default_name
  -OEChem-01062215323D

 32 32  0     1  0  0  0  0  0999 V2000
   -3.8405   -3.7518    1.6252 H   0  0  0  0  0  0  0  0  0  0  0  0
   -3.7965   -2.8768    0.9782 C   0  0  0  0  0  0  0  0  0  0  0  0
   -4.5465   -2.1527    1.2902 H   0  0  0  0  0  0  0  0  0  0  0  0
   -3.9745   -3.1748   -0.0538 H   0  0  0  0  0  0  0  0  0  0  0  0
   -2.4245   -2.2537    1.0882 C   0  0  0  0  0  0  0  0  0  0  0  0
   -1.5805   -2.7478    1.8242 O   0  0  0  0  0  0  0  0  0  0  0  0
   -2.2045   -1.1637    0.3562 N   0  0  0  0  0  0  0  0  0  0  0  0
   -2.9595   -0.7907   -0.2008 H   0  0  0  0  0  0  0  0  0  0  0  0
   -0.9485   -0.4087    0.3482 C   0  0  1  0  0  0  0  0  0  0  0  0
   -0.7686   -0.0213    1.3523 H   0  0  0  0  0  0  0  0  0  0  0  0
    0.2092   -1.3520   -0.0211 C   0  0  0  0  0  0  0  0  0  0  0  0
   -0.0286   -1.8558   -0.9591 H   0  0  0  0  0  0  0  0  0  0  0  0
    1.1096   -0.7588   -0.1871 H   0  0  0  0  0  0  0  0  0  0  0  0
    0.4948   -2.4140    1.0236 C   0  0  0  0  0  0  0  0  0  0  0  0
    1.2631   -2.1059    2.1623 C   0  0  0  0  0  0  0  0  0  0  0  0
    1.6740   -1.1140    2.2877 H   0  0  0  0  0  0  0  0  0  0  0  0
    1.4891   -3.0849    3.1473 C   0  0  0  0  0  0  0  0  0  0  0  0
    2.0815   -2.8470    4.0197 H   0  0  0  0  0  0  0  0  0  0  0  0
    0.9464   -4.3723    2.9967 C   0  0  0  0  0  0  0  0  0  0  0  0
    1.1220   -5.1251    3.7523 H   0  0  0  0  0  0  0  0  0  0  0  0
    0.1795   -4.6839    1.8593 C   0  0  0  0  0  0  0  0  0  0  0  0
   -0.2333   -5.6751    1.7407 H   0  0  0  0  0  0  0  0  0  0  0  0
   -0.0435   -3.7063    0.8734 C   0  0  0  0  0  0  0  0  0  0  0  0
   -0.6309   -3.9483   -0.0028 H   0  0  0  0  0  0  0  0  0  0  0  0
   -1.0364    0.7937   -0.6088 C   0  0  0  0  0  0  0  0  0  0  0  0
   -2.0703    1.0052   -1.2443 O   0  0  0  0  0  0  0  0  0  0  0  0
    0.0447    1.5763   -0.7170 N   0  0  0  0  0  0  0  0  0  0  0  0
    0.8716    1.3057   -0.2068 H   0  0  0  0  0  0  0  0  0  0  0  0
    0.1280    2.7481   -1.5855 C   0  0  0  0  0  0  0  0  0  0  0  0
   -0.7188    3.4106   -1.3947 H   0  0  0  0  0  0  0  0  0  0  0  0
    1.0564    3.2890   -1.4008 H   0  0  0  0  0  0  0  0  0  0  0  0
    0.0957    2.4336   -2.6305 H   0  0  0  0  0  0  0  0  0  0  0  0
  5  6  2  0  0  0  0
  5  7  1  0  0  0  0
  2  3  1  0  0  0  0
  2  4  1  0  0  0  0
  2  5  1  0  0  0  0
  1  2  1  0  0  0  0
 25 26  2  0  0  0  0
 25 27  1  0  0  0  0
 23 24  1  0  0  0  0
 21 22  1  0  0  0  0
 21 23  2  0  0  0  0
 19 20  1  0  0  0  0
 19 21  1  0  0  0  0
 17 18  1  0  0  0  0
 17 19  2  0  0  0  0
 15 16  1  0  0  0  0
 15 17  1  0  0  0  0
 14 15  2  0  0  0  0
 14 23  1  0  0  0  0
 11 12  1  0  0  0  0
 11 13  1  0  0  0  0
 11 14  1  0  0  0  0
  9 10  1  0  0  0  0
  9 11  1  0  0  0  0
  9 25  1  0  0  0  0
  7  8  1  0  0  0  0
  7  9  1  0  0  0  0
 29 30  1  0  0  0  0
 29 31  1  0  0  0  0
 29 32  1  0  0  0  0
 27 28  1  0  0  0  0
 27 29  1  0  0  0  0
M  END
$$$$
default_name
  -OEChem-01062215323D

 32 32  0     1  0  0  0  0  0999 V2000
   -3.8405   -3.7518    1.6252 H   0  0  0  0  0  0  0  0  0  0  0  0
   -3.7965   -2.8768    0.9782 C   0  0  0  0  0  0  0  0  0  0  0  0
   -4.5465   -2.1527    1.2902 H   0  0  0  0  0  0  0  0  0  0  0  0
   -3.9745   -3.1748   -0.0538 H   0  0  0  0  0  0  0  0  0  0  0  0
   -2.4245   -2.2537    1.0882 C   0  0  0  0  0  0  0  0  0  0  0  0
   -1.5805   -2.7478    1.8242 O   0  0  0  0  0  0  0  0  0  0  0  0
   -2.2045   -1.1637    0.3562 N   0  0  0  0  0  0  0  0  0  0  0  0
   -2.9595   -0.7907   -0.2008 H   0  0  0  0  0  0  0  0  0  0  0  0
   -0.9485   -0.4087    0.3482 C   0  0  1  0  0  0  0  0  0  0  0  0
   -0.7686   -0.0213    1.3523 H   0  0  0  0  0  0  0  0  0  0  0  0
    0.2092   -1.3520   -0.0211 C   0  0  0  0  0  0  0  0  0  0  0  0
   -0.0286   -1.8558   -0.9591 H   0  0  0  0  0  0  0  0  0  0  0  0
    1.1096   -0.7588   -0.1871 H   0  0  0  0  0  0  0  0  0  0  0  0
    0.4948   -2.4140    1.0236 C   0  0  0  0  0  0  0  0  0  0  0  0
    1.2631   -2.1059    2.1623 C   0  0  0  0  0  0  0  0  0  0  0  0
    1.6740   -1.1140    2.2877 H   0  0  0  0  0  0  0  0  0  0  0  0
    1.4891   -3.0849    3.1473 C   0  0  0  0  0  0  0  0  0  0  0  0
    2.0815   -2.8470    4.0197 H   0  0  0  0  0  0  0  0  0  0  0  0
    0.9464   -4.3723    2.9967 C   0  0  0  0  0  0  0  0  0  0  0  0
    1.1220   -5.1251    3.7523 H   0  0  0  0  0  0  0  0  0  0  0  0
    0.1795   -4.6839    1.8593 C   0  0  0  0  0  0  0  0  0  0  0  0
   -0.2333   -5.6751    1.7407 H   0  0  0  0  0  0  0  0  0  0  0  0
   -0.0435   -3.7063    0.8734 C   0  0  0  0  0  0  0  0  0  0  0  0
   -0.6309   -3.9483   -0.0028 H   0  0  0  0  0  0  0  0  0  0  0  0
   -1.0364    0.7937   -0.6088 C   0  0  0  0  0  0  0  0  0  0  0  0
   -2.1307    1.1714   -1.0299 O   0  0  0  0  0  0  0  0  0  0  0  0
    0.1107    1.3905   -0.9565 N   0  0  0  0  0  0  0  0  0  0  0  0
    0.9702    0.9882   -0.6147 H   0  0  0  0  0  0  0  0  0  0  0  0
    0.2013    2.5347   -1.8604 C   0  0  0  0  0  0  0  0  0  0  0  0
   -0.4723    3.3257   -1.5241 H   0  0  0  0  0  0  0  0  0  0  0  0
    1.2220    2.9174   -1.8830 H   0  0  0  0  0  0  0  0  0  0  0  0
   -0.0926    2.2315   -2.8672 H   0  0  0  0  0  0  0  0  0  0  0  0
  5  6  2  0  0  0  0
  5  7  1  0  0  0  0
  2  3  1  0  0  0  0
  2  4  1  0  0  0  0
  2  5  1  0  0  0  0
  1  2  1  0  0  0  0
 25 26  2  0  0  0  0
 25 27  1  0  0  0  0
 23 24  1  0  0  0  0
 21 22  1  0  0  0  0
 21 23  2  0  0  0  0
 19 20  1  0  0  0  0
 19 21  1  0  0  0  0
 17 18  1  0  0  0  0
 17 19  2  0  0  0  0
 15 16  1  0  0  0  0
 15 17  1  0  0  0  0
 14 15  2  0  0  0  0
 14 23  1  0  0  0  0
 11 12  1  0  0  0  0
 11 13  1  0  0  0  0
 11 14  1  0  0  0  0
  9 10  1  0  0  0  0
  9 11  1  0  0  0  0
  9 25  1  0  0  0  0
  7  8  1  0  0  0  0
  7  9  1  0  0  0  0
 29 30  1  0  0  0  0
 29 31  1  0  0  0  0
 29 32  1  0  0  0  0
 27 28  1  0  0  0  0
 27 29  1  0  0  0  0
M  END
$$$$
default_name
  -OEChem-01062215323D

 32 32  0     1  0  0  0  0  0999 V2000
   -3.8405   -3.7518    1.6252 H   0  0  0  0  0  0  0  0  0  0  0  0
   -3.7965   -2.8768    0.9782 C   0  0  0  0  0  0  0  0  0  0  0  0
   -4.5465   -2.1527    1.2902 H   0  0  0  0  0  0  0  0  0  0  0  0
   -3.9745   -3.1748   -0.0538 H   0  0  0  0  0  0  0  0  0  0  0  0
   -2.4245   -2.2537    1.0882 C   0  0  0  0  0  0  0  0  0  0  0  0
   -1.5805   -2.7478    1.8242 O   0  0  0  0  0  0  0  0  0  0  0  0
   -2.2045   -1.1637    0.3562 N   0  0  0  0  0  0  0  0  0  0  0  0
   -2.9595   -0.7907   -0.2008 H   0  0  0  0  0  0  0  0  0  0  0  0
   -0.9485   -0.4087    0.3482 C   0  0  1  0  0  0  0  0  0  0  0  0
   -0.7686   -0.0213    1.3523 H   0  0  0  0  0  0  0  0  0  0  0  0
    0.2092   -1.3520   -0.0211 C   0  0  0  0  0  0  0  0  0  0  0  0
   -0.0286   -1.8558   -0.9591 H   0  0  0  0  0  0  0  0  0  0  0  0
    1.1096   -0.7588   -0.1871 H   0  0  0  0  0  0  0  0  0  0  0  0
    0.4948   -2.4140    1.0236 C   0  0  0  0  0  0  0  0  0  0  0  0
    1.2631   -2.1059    2.1623 C   0  0  0  0  0  0  0  0  0  0  0  0
    1.6740   -1.1140    2.2877 H   0  0  0  0  0  0  0  0  0  0  0  0
    1.4891   -3.0849    3.1473 C   0  0  0  0  0  0  0  0  0  0  0  0
    2.0815   -2.8470    4.0197 H   0  0  0  0  0  0  0  0  0  0  0  0
    0.9464   -4.3723    2.9967 C   0  0  0  0  0  0  0  0  0  0  0  0
    1.1220   -5.1251    3.7523 H   0  0  0  0  0  0  0  0  0  0  0  0
    0.1795   -4.6839    1.8593 C   0  0  0  0  0  0  0  0  0  0  0  0
   -0.2333   -5.6751    1.7407 H   0  0  0  0  0  0  0  0  0  0  0  0
   -0.0435   -3.7063    0.8734 C   0  0  0  0  0  0  0  0  0  0  0  0
   -0.6309   -3.9483   -0.0028 H   0  0  0  0  0  0  0  0  0  0  0  0
   -1.0364    0.7937   -0.6088 C   0  0  0  0  0  0  0  0  0  0  0  0
   -2.1190    1.3449   -0.8130 O   0  0  0  0  0  0  0  0  0  0  0  0
    0.0962    1.1969   -1.1985 N   0  0  0  0  0  0  0  0  0  0  0  0
    0.9319    0.6597   -1.0240 H   0  0  0  0  0  0  0  0  0  0  0  0
    0.1822    2.3127   -2.1375 C   0  0  0  0  0  0  0  0  0  0  0  0
   -0.2741    3.2020   -1.6976 H   0  0  0  0  0  0  0  0  0  0  0  0
    1.2246    2.5246   -2.3768 H   0  0  0  0  0  0  0  0  0  0  0  0
   -0.3547    2.0631   -3.0547 H   0  0  0  0  0  0  0  0  0  0  0  0
  5  6  2  0  0  0  0
  5  7  1  0  0  0  0
  2  3  1  0  0  0  0
  2  4  1  0  0  0  0
  2  5  1  0  0  0  0
  1  2  1  0  0  0  0
 25 26  2  0  0  0  0
 25 27  1  0  0  0  0
 23 24  1  0  0  0  0
 21 22  1  0  0  0  0
 21 23  2  0  0  0  0
 19 20  1  0  0  0  0
 19 21  1  0  0  0  0
 17 18  1  0  0  0  0
 17 19  2  0  0  0  0
 15 16  1  0  0  0  0
 15 17  1  0  0  0  0
 14 15  2  0  0  0  0
 14 23  1  0  0  0  0
 11 12  1  0  0  0  0
 11 13  1  0  0  0  0
 11 14  1  0  0  0  0
  9 10  1  0  0  0  0
  9 11  1  0  0  0  0
  9 25  1  0  0  0  0
  7  8  1  0  0  0  0
  7  9  1  0  0  0  0
 29 30  1  0  0  0  0
 29 31  1  0  0  0  0
 29 32  1  0  0  0  0
 27 28  1  0  0  0  0
 27 29  1  0  0  0  0
M  END
$$$$
default_name
  -OEChem-01062215323D

 32 32  0     1  0  0  0  0  0999 V2000
   -3.8405   -3.7518    1.6252 H   0  0  0  0  0  0  0  0  0  0  0  0
   -3.7965   -2.8768    0.9782 C   0  0  0  0  0  0  0  0  0  0  0  0
   -4.5465   -2.1527    1.2902 H   0  0  0  0  0  0  0  0  0  0  0  0
   -3.9745   -3.1748   -0.0538 H   0  0  0  0  0  0  0  0  0  0  0  0
   -2.4245   -2.2537    1.0882 C   0  0  0  0  0  0  0  0  0  0  0  0
   -1.5805   -2.7478    1.8242 O   0  0  0  0  0  0  0  0  0  0  0  0
   -2.2045   -1.1637    0.3562 N   0  0  0  0  0  0  0  0  0  0  0  0
   -2.9595   -0.7907   -0.2008 H   0  0  0  0  0  0  0  0  0  0  0  0
   -0.9485   -0.4087    0.3482 C   0  0  1  0  0  0  0  0  0  0  0  0
   -0.7686   -0.0213    1.3523 H   0  0  0  0  0  0  0  0  0  0  0  0
    0.2092   -1.3520   -0.0211 C   0  0  0  0  0  0  0  0  0  0  0  0
   -0.0286   -1.8558   -0.9591 H   0  0  0  0  0  0  0  0  0  0  0  0
    1.1096   -0.7588   -0.1871 H   0  0  0  0  0  0  0  0  0  0  0  0
    0.4948   -2.4140    1.0236 C   0  0  0  0  0  0  0  0  0  0  0  0
    1.2631   -2.1059    2.1623 C   0  0  0  0  0  0  0  0  0  0  0  0
    1.6740   -1.1140    2.2877 H   0  0  0  0  0  0  0  0  0  0  0  0
    1.4891   -3.0849    3.1473 C   0  0  0  0  0  0  0  0  0  0  0  0
    2.0815   -2.8470    4.0197 H   0  0  0  0  0  0  0  0  0  0  0  0
    0.9464   -4.3723    2.9967 C   0  0  0  0  0  0  0  0  0  0  0  0
    1.1220   -5.1251    3.7523 H   0  0  0  0  0  0  0  0  0  0  0  0
    0.1795   -4.6839    1.8593 C   0  0  0  0  0  0  0  0  0  0  0  0
   -0.2333   -5.6751    1.7407 H   0  0  0  0  0  0  0  0  0  0  0  0
   -0.0435   -3.7063    0.8734 C   0  0  0  0  0  0  0  0  0  0  0  0
   -0.6309   -3.9483   -0.0028 H   0  0  0  0  0  0  0  0  0  0  0  0
   -1.0364    0.7937   -0.6088 C   0  0  0  0  0  0  0  0  0  0  0  0
   -2.0359    1.5138   -0.6085 O   0  0  0  0  0  0  0  0  0  0  0  0
    0.0021    1.0086   -1.4264 N   0  0  0  0  0  0  0  0  0  0  0  0
    0.7592    0.3425   -1.4066 H   0  0  0  0  0  0  0  0  0  0  0  0
    0.0720    2.0973   -2.3980 C   0  0  0  0  0  0  0  0  0  0  0  0
   -0.1375    3.0481   -1.9035 H   0  0  0  0  0  0  0  0  0  0  0  0
    1.0641    2.1374   -2.8484 H   0  0  0  0  0  0  0  0  0  0  0  0
   -0.6730    1.9398   -3.1803 H   0  0  0  0  0  0  0  0  0  0  0  0
  5  6  2  0  0  0  0
  5  7  1  0  0  0  0
  2  3  1  0  0  0  0
  2  4  1  0  0  0  0
  2  5  1  0  0  0  0
  1  2  1  0  0  0  0
 25 26  2  0  0  0  0
 25 27  1  0  0  0  0
 23 24  1  0  0  0  0
 21 22  1  0  0  0  0
 21 23  2  0  0  0  0
 19 20  1  0  0  0  0
 19 21  1  0  0  0  0
 17 18  1  0  0  0  0
 17 19  2  0  0  0  0
 15 16  1  0  0  0  0
 15 17  1  0  0  0  0
 14 15  2  0  0  0  0
 14 23  1  0  0  0  0
 11 12  1  0  0  0  0
 11 13  1  0  0  0  0
 11 14  1  0  0  0  0
  9 10  1  0  0  0  0
  9 11  1  0  0  0  0
  9 25  1  0  0  0  0
  7  8  1  0  0  0  0
  7  9  1  0  0  0  0
 29 30  1  0  0  0  0
 29 31  1  0  0  0  0
 29 32  1  0  0  0  0
 27 28  1  0  0  0  0
 27 29  1  0  0  0  0
M  END
$$$$
default_name
  -OEChem-01062215323D

 32 32  0     1  0  0  0  0  0999 V2000
   -3.8405   -3.7518    1.6252 H   0  0  0  0  0  0  0  0  0  0  0  0
   -3.7965   -2.8768    0.9782 C   0  0  0  0  0  0  0  0  0  0  0  0
   -4.5465   -2.1527    1.2902 H   0  0  0  0  0  0  0  0  0  0  0  0
   -3.9745   -3.1748   -0.0538 H   0  0  0  0  0  0  0  0  0  0  0  0
   -2.4245   -2.2537    1.0882 C   0  0  0  0  0  0  0  0  0  0  0  0
   -1.5805   -2.7478    1.8242 O   0  0  0  0  0  0  0  0  0  0  0  0
   -2.2045   -1.1637    0.3562 N   0  0  0  0  0  0  0  0  0  0  0  0
   -2.9595   -0.7907   -0.2008 H   0  0  0  0  0  0  0  0  0  0  0  0
   -0.9485   -0.4087    0.3482 C   0  0  1  0  0  0  0  0  0  0  0  0
   -0.7686   -0.0213    1.3523 H   0  0  0  0  0  0  0  0  0  0  0  0
    0.2092   -1.3520   -0.0211 C   0  0  0  0  0  0  0  0  0  0  0  0
   -0.0286   -1.8558   -0.9591 H   0  0  0  0  0  0  0  0  0  0  0  0
    1.1096   -0.7588   -0.1871 H   0  0  0  0  0  0  0  0  0  0  0  0
    0.4948   -2.4140    1.0236 C   0  0  0  0  0  0  0  0  0  0  0  0
    1.2631   -2.1059    2.1623 C   0  0  0  0  0  0  0  0  0  0  0  0
    1.6740   -1.1140    2.2877 H   0  0  0  0  0  0  0  0  0  0  0  0
    1.4891   -3.0849    3.1473 C   0  0  0  0  0  0  0  0  0  0  0  0
    2.0815   -2.8470    4.0197 H   0  0  0  0  0  0  0  0  0  0  0  0
    0.9464   -4.3723    2.9967 C   0  0  0  0  0  0  0  0  0  0  0  0
    1.1220   -5.1251    3.7523 H   0  0  0  0  0  0  0  0  0  0  0  0
    0.1795   -4.6839    1.8593 C   0  0  0  0  0  0  0  0  0  0  0  0
   -0.2333   -5.6751    1.7407 H   0  0  0  0  0  0  0  0  0  0  0  0
   -0.0435   -3.7063    0.8734 C   0  0  0  0  0  0  0  0  0  0  0  0
   -0.6309   -3.9483   -0.0028 H   0  0  0  0  0  0  0  0  0  0  0  0
   -1.0364    0.7937   -0.6088 C   0  0  0  0  0  0  0  0  0  0  0  0
   -1.8871    1.6666   -0.4302 O   0  0  0  0  0  0  0  0  0  0  0  0
   -0.1653    0.8385   -1.6248 N   0  0  0  0  0  0  0  0  0  0  0  0
    0.4641    0.0583   -1.7367 H   0  0  0  0  0  0  0  0  0  0  0  0
   -0.1218    1.9031   -2.6242 C   0  0  0  0  0  0  0  0  0  0  0  0
   -0.0721    2.8745   -2.1277 H   0  0  0  0  0  0  0  0  0  0  0  0
    0.7515    1.7823   -3.2659 H   0  0  0  0  0  0  0  0  0  0  0  0
   -1.0257    1.8701   -3.2355 H   0  0  0  0  0  0  0  0  0  0  0  0
  5  6  2  0  0  0  0
  5  7  1  0  0  0  0
  2  3  1  0  0  0  0
  2  4  1  0  0  0  0
  2  5  1  0  0  0  0
  1  2  1  0  0  0  0
 25 26  2  0  0  0  0
 25 27  1  0  0  0  0
 23 24  1  0  0  0  0
 21 22  1  0  0  0  0
 21 23  2  0  0  0  0
 19 20  1  0  0  0  0
 19 21  1  0  0  0  0
 17 18  1  0  0  0  0
 17 19  2  0  0  0  0
 15 16  1  0  0  0  0
 15 17  1  0  0  0  0
 14 15  2  0  0  0  0
 14 23  1  0  0  0  0
 11 12  1  0  0  0  0
 11 13  1  0  0  0  0
 11 14  1  0  0  0  0
  9 10  1  0  0  0  0
  9 11  1  0  0  0  0
  9 25  1  0  0  0  0
  7  8  1  0  0  0  0
  7  9  1  0  0  0  0
 29 30  1  0  0  0  0
 29 31  1  0  0  0  0
 29 32  1  0  0  0  0
 27 28  1  0  0  0  0
 27 29  1  0  0  0  0
M  END
$$$$
default_name
  -OEChem-01062215323D

 32 32  0     1  0  0  0  0  0999 V2000
   -3.8405   -3.7518    1.6252 H   0  0  0  0  0  0  0  0  0  0  0  0
   -3.7965   -2.8768    0.9782 C   0  0  0  0  0  0  0  0  0  0  0  0
   -4.5465   -2.1527    1.2902 H   0  0  0  0  0  0  0  0  0  0  0  0
   -3.9745   -3.1748   -0.0538 H   0  0  0  0  0  0  0  0  0  0  0  0
   -2.4245   -2.2537    1.0882 C   0  0  0  0  0  0  0  0  0  0  0  0
   -1.5805   -2.7478    1.8242 O   0  0  0  0  0  0  0  0  0  0  0  0
   -2.2045   -1.1637    0.3562 N   0  0  0  0  0  0  0  0  0  0  0  0
   -2.9595   -0.7907   -0.2008 H   0  0  0  0  0  0  0  0  0  0  0  0
   -0.9485   -0.4087    0.3482 C   0  0  1  0  0  0  0  0  0  0  0  0
   -0.7686   -0.0213    1.3523 H   0  0  0  0  0  0  0  0  0  0  0  0
    0.2092   -1.3520   -0.0211 C   0  0  0  0  0  0  0  0  0  0  0  0
   -0.0286   -1.8558   -0.9591 H   0  0  0  0  0  0  0  0  0  0  0  0
    1.1096   -0.7588   -0.1871 H   0  0  0  0  0  0  0  0  0  0  0  0
    0.4948   -2.4140    1.0236 C   0  0  0  0  0  0  0  0  0  0  0  0
    1.2631   -2.1059    2.1623 C   0  0  0  0  0  0  0  0  0  0  0  0
    1.6740   -1.1140    2.2877 H   0  0  0  0  0  0  0  0  0  0  0  0
    1.4891   -3.0849    3.1473 C   0  0  0  0  0  0  0  0  0  0  0  0
    2.0815   -2.8470    4.0197 H   0  0  0  0  0  0  0  0  0  0  0  0
    0.9464   -4.3723    2.9967 C   0  0  0  0  0  0  0  0  0  0  0  0
    1.1220   -5.1251    3.7523 H   0  0  0  0  0  0  0  0  0  0  0  0
    0.1795   -4.6839    1.8593 C   0  0  0  0  0  0  0  0  0  0  0  0
   -0.2333   -5.6751    1.7407 H   0  0  0  0  0  0  0  0  0  0  0  0
   -0.0435   -3.7063    0.8734 C   0  0  0  0  0  0  0  0  0  0  0  0
   -0.6309   -3.9483   -0.0028 H   0  0  0  0  0  0  0  0  0  0  0  0
   -1.0364    0.7937   -0.6088 C   0  0  0  0  0  0  0  0  0  0  0  0
   -1.6827    1.7928   -0.2903 O   0  0  0  0  0  0  0  0  0  0  0  0
   -0.3943    0.6982   -1.7800 N   0  0  0  0  0  0  0  0  0  0  0  0
    0.0665   -0.1737   -1.9916 H   0  0  0  0  0  0  0  0  0  0  0  0
   -0.3859    1.7433   -2.8007 C   0  0  0  0  0  0  0  0  0  0  0  0
   -0.0821    2.6929   -2.3550 H   0  0  0  0  0  0  0  0  0  0  0  0
    0.3079    1.4835   -3.6006 H   0  0  0  0  0  0  0  0  0  0  0  0
   -1.3887    1.8587   -3.2165 H   0  0  0  0  0  0  0  0  0  0  0  0
  5  6  2  0  0  0  0
  5  7  1  0  0  0  0
  2  3  1  0  0  0  0
  2  4  1  0  0  0  0
  2  5  1  0  0  0  0
  1  2  1  0  0  0  0
 25 26  2  0  0  0  0
 25 27  1  0  0  0  0
 23 24  1  0  0  0  0
 21 22  1  0  0  0  0
 21 23  2  0  0  0  0
 19 20  1  0  0  0  0
 19 21  1  0  0  0  0
 17 18  1  0  0  0  0
 17 19  2  0  0  0  0
 15 16  1  0  0  0  0
 15 17  1  0  0  0  0
 14 15  2  0  0  0  0
 14 23  1  0  0  0  0
 11 12  1  0  0  0  0
 11 13  1  0  0  0  0
 11 14  1  0  0  0  0
  9 10  1  0  0  0  0
  9 11  1  0  0  0  0
  9 25  1  0  0  0  0
  7  8  1  0  0  0  0
  7  9  1  0  0  0  0
 29 30  1  0  0  0  0
 29 31  1  0  0  0  0
 29 32  1  0  0  0  0
 27 28  1  0  0  0  0
 27 29  1  0  0  0  0
M  END
$$$$
default_name
  -OEChem-01062215323D

 32 32  0     1  0  0  0  0  0999 V2000
   -3.8405   -3.7518    1.6252 H   0  0  0  0  0  0  0  0  0  0  0  0
   -3.7965   -2.8768    0.9782 C   0  0  0  0  0  0  0  0  0  0  0  0
   -4.5465   -2.1527    1.2902 H   0  0  0  0  0  0  0  0  0  0  0  0
   -3.9745   -3.1748   -0.0538 H   0  0  0  0  0  0  0  0  0  0  0  0
   -2.4245   -2.2537    1.0882 C   0  0  0  0  0  0  0  0  0  0  0  0
   -1.5805   -2.7478    1.8242 O   0  0  0  0  0  0  0  0  0  0  0  0
   -2.2045   -1.1637    0.3562 N   0  0  0  0  0  0  0  0  0  0  0  0
   -2.9595   -0.7907   -0.2008 H   0  0  0  0  0  0  0  0  0  0  0  0
   -0.9485   -0.4087    0.3482 C   0  0  1  0  0  0  0  0  0  0  0  0
   -0.7686   -0.0213    1.3523 H   0  0  0  0  0  0  0  0  0  0  0  0
    0.2092   -1.3520   -0.0211 C   0  0  0  0  0  0  0  0  0  0  0  0
   -0.0286   -1.8558   -0.9591 H   0  0  0  0  0  0  0  0  0  0  0  0
    1.1096   -0.7588   -0.1871 H   0  0  0  0  0  0  0  0  0  0  0  0
    0.4948   -2.4140    1.0236 C   0  0  0  0  0  0  0  0  0  0  0  0
    1.2631   -2.1059    2.1623 C   0  0  0  0  0  0  0  0  0  0  0  0
    1.6740   -1.1140    2.2877 H   0  0  0  0  0  0  0  0  0  0  0  0
    1.4891   -3.0849    3.1473 C   0  0  0  0  0  0  0  0  0  0  0  0
    2.0815   -2.8470    4.0197 H   0  0  0  0  0  0  0  0  0  0  0  0
    0.9464   -4.3723    2.9967 C   0  0  0  0  0  0  0  0  0  0  0  0
    1.1220   -5.1251    3.7523 H   0  0  0  0  0  0  0  0  0  0  0  0
    0.1795   -4.6839    1.8593 C   0  0  0  0  0  0  0  0  0  0  0  0
   -0.2333   -5.6751    1.7407 H   0  0  0  0  0  0  0  0  0  0  0  0
   -0.0435   -3.7063    0.8734 C   0  0  0  0  0  0  0  0  0  0  0  0
   -0.6309   -3.9483   -0.0028 H   0  0  0  0  0  0  0  0  0  0  0  0
   -1.0364    0.7937   -0.6088 C   0  0  0  0  0  0  0  0  0  0  0  0
   -1.4367    1.8840   -0.1984 O   0  0  0  0  0  0  0  0  0  0  0  0
   -0.6696    0.5972   -1.8816 N   0  0  0  0  0  0  0  0  0  0  0  0
   -0.4064   -0.3376   -2.1541 H   0  0  0  0  0  0  0  0  0  0  0  0
   -0.7024    1.6289   -2.9154 C   0  0  0  0  0  0  0  0  0  0  0  0
   -0.1669    2.5157   -2.5698 H   0  0  0  0  0  0  0  0  0  0  0  0
   -0.2363    1.2612   -3.8299 H   0  0  0  0  0  0  0  0  0  0  0  0
   -1.7374    1.9064   -3.1246 H   0  0  0  0  0  0  0  0  0  0  0  0
  5  6  2  0  0  0  0
  5  7  1  0  0  0  0
  2  3  1  0  0  0  0
  2  4  1  0  0  0  0
  2  5  1  0  0  0  0
  1  2  1  0  0  0  0
 25 26  2  0  0  0  0
 25 27  1  0  0  0  0
 23 24  1  0  0  0  0
 21 22  1  0  0  0  0
 21 23  2  0  0  0  0
 19 20  1  0  0  0  0
 19 21  1  0  0  0  0
 17 18  1  0  0  0  0
 17 19  2  0  0  0  0
 15 16  1  0  0  0  0
 15 17  1  0  0  0  0
 14 15  2  0  0  0  0
 14 23  1  0  0  0  0
 11 12  1  0  0  0  0
 11 13  1  0  0  0  0
 11 14  1  0  0  0  0
  9 10  1  0  0  0  0
  9 11  1  0  0  0  0
  9 25  1  0  0  0  0
  7  8  1  0  0  0  0
  7  9  1  0  0  0  0
 29 30  1  0  0  0  0
 29 31  1  0  0  0  0
 29 32  1  0  0  0  0
 27 28  1  0  0  0  0
 27 29  1  0  0  0  0
M  END
$$$$
default_name
  -OEChem-01062215323D

 32 32  0     1  0  0  0  0  0999 V2000
   -3.8405   -3.7518    1.6252 H   0  0  0  0  0  0  0  0  0  0  0  0
   -3.7965   -2.8768    0.9782 C   0  0  0  0  0  0  0  0  0  0  0  0
   -4.5465   -2.1527    1.2902 H   0  0  0  0  0  0  0  0  0  0  0  0
   -3.9745   -3.1748   -0.0538 H   0  0  0  0  0  0  0  0  0  0  0  0
   -2.4245   -2.2537    1.0882 C   0  0  0  0  0  0  0  0  0  0  0  0
   -1.5805   -2.7478    1.8242 O   0  0  0  0  0  0  0  0  0  0  0  0
   -2.2045   -1.1637    0.3562 N   0  0  0  0  0  0  0  0  0  0  0  0
   -2.9595   -0.7907   -0.2008 H   0  0  0  0  0  0  0  0  0  0  0  0
   -0.9485   -0.4087    0.3482 C   0  0  1  0  0  0  0  0  0  0  0  0
   -0.7686   -0.0213    1.3523 H   0  0  0  0  0  0  0  0  0  0  0  0
    0.2092   -1.3520   -0.0211 C   0  0  0  0  0  0  0  0  0  0  0  0
   -0.0286   -1.8558   -0.9591 H   0  0  0  0  0  0  0  0  0  0  0  0
    1.1096   -0.7588   -0.1871 H   0  0  0  0  0  0  0  0  0  0  0  0
    0.4948   -2.4140    1.0236 C   0  0  0  0  0  0  0  0  0  0  0  0
    1.2631   -2.1059    2.1623 C   0  0  0  0  0  0  0  0  0  0  0  0
    1.6740   -1.1140    2.2877 H   0  0  0  0  0  0  0  0  0  0  0  0
    1.4891   -3.0849    3.1473 C   0  0  0  0  0  0  0  0  0  0  0  0
    2.0815   -2.8470    4.0197 H   0  0  0  0  0  0  0  0  0  0  0  0
    0.9464   -4.3723    2.9967 C   0  0  0  0  0  0  0  0  0  0  0  0
    1.1220   -5.1251    3.7523 H   0  0  0  0  0  0  0  0  0  0  0  0
    0.1795   -4.6839    1.8593 C   0  0  0  0  0  0  0  0  0  0  0  0
   -0.2333   -5.6751    1.7407 H   0  0  0  0  0  0  0  0  0  0  0  0
   -0.0435   -3.7063    0.8734 C   0  0  0  0  0  0  0  0  0  0  0  0
   -0.6309   -3.9483   -0.0028 H   0  0  0  0  0  0  0  0  0  0  0  0
   -1.0364    0.7937   -0.6088 C   0  0  0  0  0  0  0  0  0  0  0  0
   -1.1659    1.9338   -0.1607 O   0  0  0  0  0  0  0  0  0  0  0  0
   -0.9722    0.5425   -1.9225 N   0  0  0  0  0  0  0  0  0  0  0  0
   -0.9224   -0.4222   -2.2129 H   0  0  0  0  0  0  0  0  0  0  0  0
   -1.0498    1.5677   -2.9604 C   0  0  0  0  0  0  0  0  0  0  0  0
   -0.3208    2.3551   -2.7575 H   0  0  0  0  0  0  0  0  0  0  0  0
   -0.8441    1.1307   -3.9380 H   0  0  0  0  0  0  0  0  0  0  0  0
   -2.0479    2.0099   -2.9660 H   0  0  0  0  0  0  0  0  0  0  0  0
  5  6  2  0  0  0  0
  5  7  1  0  0  0  0
  2  3  1  0  0  0  0
  2  4  1  0  0  0  0
  2  5  1  0  0  0  0
  1  2  1  0  0  0  0
 25 26  2  0  0  0  0
 25 27  1  0  0  0  0
 23 24  1  0  0  0  0
 21 22  1  0  0  0  0
 21 23  2  0  0  0  0
 19 20  1  0  0  0  0
 19 21  1  0  0  0  0
 17 18  1  0  0  0  0
 17 19  2  0  0  0  0
 15 16  1  0  0  0  0
 15 17  1  0  0  0  0
 14 15  2  0  0  0  0
 14 23  1  0  0  0  0
 11 12  1  0  0  0  0
 11 13  1  0  0  0  0
 11 14  1  0  0  0  0
  9 10  1  0  0  0  0
  9 11  1  0  0  0  0
  9 25  1  0  0  0  0
  7  8  1  0  0  0  0
  7  9  1  0  0  0  0
 29 30  1  0  0  0  0
 29 31  1  0  0  0  0
 29 32  1  0  0  0  0
 27 28  1  0  0  0  0
 27 29  1  0  0  0  0
M  END
$$$$
default_name
  -OEChem-01062215323D

 32 32  0     1  0  0  0  0  0999 V2000
   -3.8405   -3.7518    1.6252 H   0  0  0  0  0  0  0  0  0  0  0  0
   -3.7965   -2.8768    0.9782 C   0  0  0  0  0  0  0  0  0  0  0  0
   -4.5465   -2.1527    1.2902 H   0  0  0  0  0  0  0  0  0  0  0  0
   -3.9745   -3.1748   -0.0538 H   0  0  0  0  0  0  0  0  0  0  0  0
   -2.4245   -2.2537    1.0882 C   0  0  0  0  0  0  0  0  0  0  0  0
   -1.5805   -2.7478    1.8242 O   0  0  0  0  0  0  0  0  0  0  0  0
   -2.2045   -1.1637    0.3562 N   0  0  0  0  0  0  0  0  0  0  0  0
   -2.9595   -0.7907   -0.2008 H   0  0  0  0  0  0  0  0  0  0  0  0
   -0.9485   -0.4087    0.3482 C   0  0  1  0  0  0  0  0  0  0  0  0
   -0.7686   -0.0213    1.3523 H   0  0  0  0  0  0  0  0  0  0  0  0
    0.2092   -1.3520   -0.0211 C   0  0  0  0  0  0  0  0  0  0  0  0
   -0.0286   -1.8558   -0.9591 H   0  0  0  0  0  0  0  0  0  0  0  0
    1.1096   -0.7588   -0.1871 H   0  0  0  0  0  0  0  0  0  0  0  0
    0.4948   -2.4140    1.0236 C   0  0  0  0  0  0  0  0  0  0  0  0
    1.2631   -2.1059    2.1623 C   0  0  0  0  0  0  0  0  0  0  0  0
    1.6740   -1.1140    2.2877 H   0  0  0  0  0  0  0  0  0  0  0  0
    1.4891   -3.0849    3.1473 C   0  0  0  0  0  0  0  0  0  0  0  0
    2.0815   -2.8470    4.0197 H   0  0  0  0  0  0  0  0  0  0  0  0
    0.9464   -4.3723    2.9967 C   0  0  0  0  0  0  0  0  0  0  0  0
    1.1220   -5.1251    3.7523 H   0  0  0  0  0  0  0  0  0  0  0  0
    0.1795   -4.6839    1.8593 C   0  0  0  0  0  0  0  0  0  0  0  0
   -0.2333   -5.6751    1.7407 H   0  0  0  0  0  0  0  0  0  0  0  0
   -0.0435   -3.7063    0.8734 C   0  0  0  0  0  0  0  0  0  0  0  0
   -0.6309   -3.9483   -0.0028 H   0  0  0  0  0  0  0  0  0  0  0  0
   -1.0364    0.7937   -0.6088 C   0  0  0  0  0  0  0  0  0  0  0  0
   -0.8886    1.9389   -0.1798 O   0  0  0  0  0  0  0  0  0  0  0  0
   -1.2816    0.5377   -1.9001 N   0  0  0  0  0  0  0  0  0  0  0  0
   -1.4463   -0.4217   -2.1642 H   0  0  0  0  0  0  0  0  0  0  0  0
   -1.4042    1.5637   -2.9328 C   0  0  0  0  0  0  0  0  0  0  0  0
   -0.5333    2.2219   -2.9053 H   0  0  0  0  0  0  0  0  0  0  0  0
   -1.4740    1.1009   -3.9176 H   0  0  0  0  0  0  0  0  0  0  0  0
   -2.2991    2.1622   -2.7515 H   0  0  0  0  0  0  0  0  0  0  0  0
  5  6  2  0  0  0  0
  5  7  1  0  0  0  0
  2  3  1  0  0  0  0
  2  4  1  0  0  0  0
  2  5  1  0  0  0  0
  1  2  1  0  0  0  0
 25 26  2  0  0  0  0
 25 27  1  0  0  0  0
 23 24  1  0  0  0  0
 21 22  1  0  0  0  0
 21 23  2  0  0  0  0
 19 20  1  0  0  0  0
 19 21  1  0  0  0  0
 17 18  1  0  0  0  0
 17 19  2  0  0  0  0
 15 16  1  0  0  0  0
 15 17  1  0  0  0  0
 14 15  2  0  0  0  0
 14 23  1  0  0  0  0
 11 12  1  0  0  0  0
 11 13  1  0  0  0  0
 11 14  1  0  0  0  0
  9 10  1  0  0  0  0
  9 11  1  0  0  0  0
  9 25  1  0  0  0  0
  7  8  1  0  0  0  0
  7  9  1  0  0  0  0
 29 30  1  0  0  0  0
 29 31  1  0  0  0  0
 29 32  1  0  0  0  0
 27 28  1  0  0  0  0
 27 29  1  0  0  0  0
M  END
$$$$
default_name
  -OEChem-01062215323D

 32 32  0     1  0  0  0  0  0999 V2000
   -3.8405   -3.7518    1.6252 H   0  0  0  0  0  0  0  0  0  0  0  0
   -3.7965   -2.8768    0.9782 C   0  0  0  0  0  0  0  0  0  0  0  0
   -4.5465   -2.1527    1.2902 H   0  0  0  0  0  0  0  0  0  0  0  0
   -3.9745   -3.1748   -0.0538 H   0  0  0  0  0  0  0  0  0  0  0  0
   -2.4245   -2.2537    1.0882 C   0  0  0  0  0  0  0  0  0  0  0  0
   -1.5805   -2.7478    1.8242 O   0  0  0  0  0  0  0  0  0  0  0  0
   -2.2045   -1.1637    0.3562 N   0  0  0  0  0  0  0  0  0  0  0  0
   -2.9595   -0.7907   -0.2008 H   0  0  0  0  0  0  0  0  0  0  0  0
   -0.9485   -0.4087    0.3482 C   0  0  1  0  0  0  0  0  0  0  0  0
   -0.7686   -0.0213    1.3523 H   0  0  0  0  0  0  0  0  0  0  0  0
    0.2092   -1.3520   -0.0211 C   0  0  0  0  0  0  0  0  0  0  0  0
   -0.0286   -1.8558   -0.9591 H   0  0  0  0  0  0  0  0  0  0  0  0
    1.1096   -0.7588   -0.1871 H   0  0  0  0  0  0  0  0  0  0  0  0
    0.4948   -2.4140    1.0236 C   0  0  0  0  0  0  0  0  0  0  0  0
    1.2631   -2.1059    2.1623 C   0  0  0  0  0  0  0  0  0  0  0  0
    1.6740   -1.1140    2.2877 H   0  0  0  0  0  0  0  0  0  0  0  0
    1.4891   -3.0849    3.1473 C   0  0  0  0  0  0  0  0  0  0  0  0
    2.0815   -2.8470    4.0197 H   0  0  0  0  0  0  0  0  0  0  0  0
    0.9464   -4.3723    2.9967 C   0  0  0  0  0  0  0  0  0  0  0  0
    1.1220   -5.1251    3.7523 H   0  0  0  0  0  0  0  0  0  0  0  0
    0.1795   -4.6839    1.8593 C   0  0  0  0  0  0  0  0  0  0  0  0
   -0.2333   -5.6751    1.7407 H   0  0  0  0  0  0  0  0  0  0  0  0
   -0.0435   -3.7063    0.8734 C   0  0  0  0  0  0  0  0  0  0  0  0
   -0.6309   -3.9483   -0.0028 H   0  0  0  0  0  0  0  0  0  0  0  0
   -1.0364    0.7937   -0.6088 C   0  0  0  0  0  0  0  0  0  0  0  0
   -0.6238    1.8989   -0.2543 O   0  0  0  0  0  0  0  0  0  0  0  0
   -1.5767    0.5832   -1.8158 N   0  0  0  0  0  0  0  0  0  0  0  0
   -1.9425   -0.3362   -2.0112 H   0  0  0  0  0  0  0  0  0  0  0  0
   -1.7417    1.6173   -2.8345 C   0  0  0  0  0  0  0  0  0  0  0  0
   -0.7898    2.1252   -3.0032 H   0  0  0  0  0  0  0  0  0  0  0  0
   -2.0832    1.1737   -3.7701 H   0  0  0  0  0  0  0  0  0  0  0  0
   -2.4739    2.3529   -2.4959 H   0  0  0  0  0  0  0  0  0  0  0  0
  5  6  2  0  0  0  0
  5  7  1  0  0  0  0
  2  3  1  0  0  0  0
  2  4  1  0  0  0  0
  2  5  1  0  0  0  0
  1  2  1  0  0  0  0
 25 26  2  0  0  0  0
 25 27  1  0  0  0  0
 23 24  1  0  0  0  0
 21 22  1  0  0  0  0
 21 23  2  0  0  0  0
 19 20  1  0  0  0  0
 19 21  1  0  0  0  0
 17 18  1  0  0  0  0
 17 19  2  0  0  0  0
 15 16  1  0  0  0  0
 15 17  1  0  0  0  0
 14 15  2  0  0  0  0
 14 23  1  0  0  0  0
 11 12  1  0  0  0  0
 11 13  1  0  0  0  0
 11 14  1  0  0  0  0
  9 10  1  0  0  0  0
  9 11  1  0  0  0  0
  9 25  1  0  0  0  0
  7  8  1  0  0  0  0
  7  9  1  0  0  0  0
 29 30  1  0  0  0  0
 29 31  1  0  0  0  0
 29 32  1  0  0  0  0
 27 28  1  0  0  0  0
 27 29  1  0  0  0  0
M  END
$$$$
default_name
  -OEChem-01062215323D

 32 32  0     1  0  0  0  0  0999 V2000
   -3.8405   -3.7518    1.6252 H   0  0  0  0  0  0  0  0  0  0  0  0
   -3.7965   -2.8768    0.9782 C   0  0  0  0  0  0  0  0  0  0  0  0
   -4.5465   -2.1527    1.2902 H   0  0  0  0  0  0  0  0  0  0  0  0
   -3.9745   -3.1748   -0.0538 H   0  0  0  0  0  0  0  0  0  0  0  0
   -2.4245   -2.2537    1.0882 C   0  0  0  0  0  0  0  0  0  0  0  0
   -1.5805   -2.7478    1.8242 O   0  0  0  0  0  0  0  0  0  0  0  0
   -2.2045   -1.1637    0.3562 N   0  0  0  0  0  0  0  0  0  0  0  0
   -2.9595   -0.7907   -0.2008 H   0  0  0  0  0  0  0  0  0  0  0  0
   -0.9485   -0.4087    0.3482 C   0  0  1  0  0  0  0  0  0  0  0  0
   -0.7686   -0.0213    1.3523 H   0  0  0  0  0  0  0  0  0  0  0  0
    0.2092   -1.3520   -0.0211 C   0  0  0  0  0  0  0  0  0  0  0  0
   -0.0286   -1.8558   -0.9591 H   0  0  0  0  0  0  0  0  0  0  0  0
    1.1096   -0.7588   -0.1871 H   0  0  0  0  0  0  0  0  0  0  0  0
    0.4948   -2.4140    1.0236 C   0  0  0  0  0  0  0  0  0  0  0  0
    1.2631   -2.1059    2.1623 C   0  0  0  0  0  0  0  0  0  0  0  0
    1.6740   -1.1140    2.2877 H   0  0  0  0  0  0  0  0  0  0  0  0
    1.4891   -3.0849    3.1473 C   0  0  0  0  0  0  0  0  0  0  0  0
    2.0815   -2.8470    4.0197 H   0  0  0  0  0  0  0  0  0  0  0  0
    0.9464   -4.3723    2.9967 C   0  0  0  0  0  0  0  0  0  0  0  0
    1.1220   -5.1251    3.7523 H   0  0  0  0  0  0  0  0  0  0  0  0
    0.1795   -4.6839    1.8593 C   0  0  0  0  0  0  0  0  0  0  0  0
   -0.2333   -5.6751    1.7407 H   0  0  0  0  0  0  0  0  0  0  0  0
   -0.0435   -3.7063    0.8734 C   0  0  0  0  0  0  0  0  0  0  0  0
   -0.6309   -3.9483   -0.0028 H   0  0  0  0  0  0  0  0  0  0  0  0
   -1.0364    0.7937   -0.6088 C   0  0  0  0  0  0  0  0  0  0  0  0
   -0.3896    1.8166   -0.3793 O   0  0  0  0  0  0  0  0  0  0  0  0
   -1.8374    0.6759   -1.6754 N   0  0  0  0  0  0  0  0  0  0  0  0
   -2.3771   -0.1716   -1.7644 H   0  0  0  0  0  0  0  0  0  0  0  0
   -2.0391    1.7249   -2.6720 C   0  0  0  0  0  0  0  0  0  0  0  0
   -1.0729    2.0717   -3.0444 H   0  0  0  0  0  0  0  0  0  0  0  0
   -2.6300    1.3443   -3.5056 H   0  0  0  0  0  0  0  0  0  0  0  0
   -2.5603    2.5690   -2.2164 H   0  0  0  0  0  0  0  0  0  0  0  0
  5  6  2  0  0  0  0
  5  7  1  0  0  0  0
  2  3  1  0  0  0  0
  2  4  1  0  0  0  0
  2  5  1  0  0  0  0
  1  2  1  0  0  0  0
 25 26  2  0  0  0  0
 25 27  1  0  0  0  0
 23 24  1  0  0  0  0
 21 22  1  0  0  0  0
 21 23  2  0  0  0  0
 19 20  1  0  0  0  0
 19 21  1  0  0  0  0
 17 18  1  0  0  0  0
 17 19  2  0  0  0  0
 15 16  1  0  0  0  0
 15 17  1  0  0  0  0
 14 15  2  0  0  0  0
 14 23  1  0  0  0  0
 11 12  1  0  0  0  0
 11 13  1  0  0  0  0
 11 14  1  0  0  0  0
  9 10  1  0  0  0  0
  9 11  1  0  0  0  0
  9 25  1  0  0  0  0
  7  8  1  0  0  0  0
  7  9  1  0  0  0  0
 29 30  1  0  0  0  0
 29 31  1  0  0  0  0
 29 32  1  0  0  0  0
 27 28  1  0  0  0  0
 27 29  1  0  0  0  0
M  END
$$$$
default_name
  -OEChem-01062215323D

 32 32  0     1  0  0  0  0  0999 V2000
   -3.8405   -3.7518    1.6252 H   0  0  0  0  0  0  0  0  0  0  0  0
   -3.7965   -2.8768    0.9782 C   0  0  0  0  0  0  0  0  0  0  0  0
   -4.5465   -2.1527    1.2902 H   0  0  0  0  0  0  0  0  0  0  0  0
   -3.9745   -3.1748   -0.0538 H   0  0  0  0  0  0  0  0  0  0  0  0
   -2.4245   -2.2537    1.0882 C   0  0  0  0  0  0  0  0  0  0  0  0
   -1.5805   -2.7478    1.8242 O   0  0  0  0  0  0  0  0  0  0  0  0
   -2.2045   -1.1637    0.3562 N   0  0  0  0  0  0  0  0  0  0  0  0
   -2.9595   -0.7907   -0.2008 H   0  0  0  0  0  0  0  0  0  0  0  0
   -0.9485   -0.4087    0.3482 C   0  0  1  0  0  0  0  0  0  0  0  0
   -0.7686   -0.0213    1.3523 H   0  0  0  0  0  0  0  0  0  0  0  0
    0.2092   -1.3520   -0.0211 C   0  0  0  0  0  0  0  0  0  0  0  0
   -0.0286   -1.8558   -0.9591 H   0  0  0  0  0  0  0  0  0  0  0  0
    1.1096   -0.7588   -0.1871 H   0  0  0  0  0  0  0  0  0  0  0  0
    0.4948   -2.4140    1.0236 C   0  0  0  0  0  0  0  0  0  0  0  0
    1.2631   -2.1059    2.1623 C   0  0  0  0  0  0  0  0  0  0  0  0
    1.6740   -1.1140    2.2877 H   0  0  0  0  0  0  0  0  0  0  0  0
    1.4891   -3.0849    3.1473 C   0  0  0  0  0  0  0  0  0  0  0  0
    2.0815   -2.8470    4.0197 H   0  0  0  0  0  0  0  0  0  0  0  0
    0.9464   -4.3723    2.9967 C   0  0  0  0  0  0  0  0  0  0  0  0
    1.1220   -5.1251    3.7523 H   0  0  0  0  0  0  0  0  0  0  0  0
    0.1795   -4.6839    1.8593 C   0  0  0  0  0  0  0  0  0  0  0  0
   -0.2333   -5.6751    1.7407 H   0  0  0  0  0  0  0  0  0  0  0  0
   -0.0435   -3.7063    0.8734 C   0  0  0  0  0  0  0  0  0  0  0  0
   -0.6309   -3.9483   -0.0028 H   0  0  0  0  0  0  0  0  0  0  0  0
   -1.0364    0.7937   -0.6088 C   0  0  0  0  0  0  0  0  0  0  0  0
   -0.2018    1.6975   -0.5461 O   0  0  0  0  0  0  0  0  0  0  0  0
   -2.0459    0.8094   -1.4884 N   0  0  0  0  0  0  0  0  0  0  0  0
   -2.7204    0.0611   -1.4406 H   0  0  0  0  0  0  0  0  0  0  0  0
   -2.2763    1.8790   -2.4566 C   0  0  0  0  0  0  0  0  0  0  0  0
   -1.3634    2.0650   -3.0262 H   0  0  0  0  0  0  0  0  0  0  0  0
   -3.0773    1.6009   -3.1420 H   0  0  0  0  0  0  0  0  0  0  0  0
   -2.5526    2.7958   -1.9321 H   0  0  0  0  0  0  0  0  0  0  0  0
  5  6  2  0  0  0  0
  5  7  1  0  0  0  0
  2  3  1  0  0  0  0
  2  4  1  0  0  0  0
  2  5  1  0  0  0  0
  1  2  1  0  0  0  0
 25 26  2  0  0  0  0
 25 27  1  0  0  0  0
 23 24  1  0  0  0  0
 21 22  1  0  0  0  0
 21 23  2  0  0  0  0
 19 20  1  0  0  0  0
 19 21  1  0  0  0  0
 17 18  1  0  0  0  0
 17 19  2  0  0  0  0
 15 16  1  0  0  0  0
 15 17  1  0  0  0  0
 14 15  2  0  0  0  0
 14 23  1  0  0  0  0
 11 12  1  0  0  0  0
 11 13  1  0  0  0  0
 11 14  1  0  0  0  0
  9 10  1  0  0  0  0
  9 11  1  0  0  0  0
  9 25  1  0  0  0  0
  7  8  1  0  0  0  0
  7  9  1  0  0  0  0
 29 30  1  0  0  0  0
 29 31  1  0  0  0  0
 29 32  1  0  0  0  0
 27 28  1  0  0  0  0
 27 29  1  0  0  0  0
M  END
$$$$
default_name
  -OEChem-01062215323D

 32 32  0     1  0  0  0  0  0999 V2000
   -3.8405   -3.7518    1.6252 H   0  0  0  0  0  0  0  0  0  0  0  0
   -3.7965   -2.8768    0.9782 C   0  0  0  0  0  0  0  0  0  0  0  0
   -4.5465   -2.1527    1.2902 H   0  0  0  0  0  0  0  0  0  0  0  0
   -3.9745   -3.1748   -0.0538 H   0  0  0  0  0  0  0  0  0  0  0  0
   -2.4245   -2.2537    1.0882 C   0  0  0  0  0  0  0  0  0  0  0  0
   -1.5805   -2.7478    1.8242 O   0  0  0  0  0  0  0  0  0  0  0  0
   -2.2045   -1.1637    0.3562 N   0  0  0  0  0  0  0  0  0  0  0  0
   -2.9595   -0.7907   -0.2008 H   0  0  0  0  0  0  0  0  0  0  0  0
   -0.9485   -0.4087    0.3482 C   0  0  1  0  0  0  0  0  0  0  0  0
   -0.7686   -0.0213    1.3523 H   0  0  0  0  0  0  0  0  0  0  0  0
    0.2092   -1.3520   -0.0211 C   0  0  0  0  0  0  0  0  0  0  0  0
   -0.0286   -1.8558   -0.9591 H   0  0  0  0  0  0  0  0  0  0  0  0
    1.1096   -0.7588   -0.1871 H   0  0  0  0  0  0  0  0  0  0  0  0
    0.4948   -2.4140    1.0236 C   0  0  0  0  0  0  0  0  0  0  0  0
    1.2631   -2.1059    2.1623 C   0  0  0  0  0  0  0  0  0  0  0  0
    1.6740   -1.1140    2.2877 H   0  0  0  0  0  0  0  0  0  0  0  0
    1.4891   -3.0849    3.1473 C   0  0  0  0  0  0  0  0  0  0  0  0
    2.0815   -2.8470    4.0197 H   0  0  0  0  0  0  0  0  0  0  0  0
    0.9464   -4.3723    2.9967 C   0  0  0  0  0  0  0  0  0  0  0  0
    1.1220   -5.1251    3.7523 H   0  0  0  0  0  0  0  0  0  0  0  0
    0.1795   -4.6839    1.8593 C   0  0  0  0  0  0  0  0  0  0  0  0
   -0.2333   -5.6751    1.7407 H   0  0  0  0  0  0  0  0  0  0  0  0
   -0.0435   -3.7063    0.8734 C   0  0  0  0  0  0  0  0  0  0  0  0
   -0.6309   -3.9483   -0.0028 H   0  0  0  0  0  0  0  0  0  0  0  0
   -1.0364    0.7937   -0.6088 C   0  0  0  0  0  0  0  0  0  0  0  0
   -0.0734    1.5498   -0.7435 O   0  0  0  0  0  0  0  0  0  0  0  0
   -2.1880    0.9748   -1.2677 N   0  0  0  0  0  0  0  0  0  0  0  0
   -2.9492    0.3458   -1.0618 H   0  0  0  0  0  0  0  0  0  0  0  0
   -2.4370    2.0692   -2.2028 C   0  0  0  0  0  0  0  0  0  0  0  0
   -1.6413    2.1055   -2.9498 H   0  0  0  0  0  0  0  0  0  0  0  0
   -3.3946    1.9262   -2.7042 H   0  0  0  0  0  0  0  0  0  0  0  0
   -2.4511    3.0178   -1.6625 H   0  0  0  0  0  0  0  0  0  0  0  0
  5  6  2  0  0  0  0
  5  7  1  0  0  0  0
  2  3  1  0  0  0  0
  2  4  1  0  0  0  0
  2  5  1  0  0  0  0
  1  2  1  0  0  0  0
 25 26  2  0  0  0  0
 25 27  1  0  0  0  0
 23 24  1  0  0  0  0
 21 22  1  0  0  0  0
 21 23  2  0  0  0  0
 19 20  1  0  0  0  0
 19 21  1  0  0  0  0
 17 18  1  0  0  0  0
 17 19  2  0  0  0  0
 15 16  1  0  0  0  0
 15 17  1  0  0  0  0
 14 15  2  0  0  0  0
 14 23  1  0  0  0  0
 11 12  1  0  0  0  0
 11 13  1  0  0  0  0
 11 14  1  0  0  0  0
  9 10  1  0  0  0  0
  9 11  1  0  0  0  0
  9 25  1  0  0  0  0
  7  8  1  0  0  0  0
  7  9  1  0  0  0  0
 29 30  1  0  0  0  0
 29 31  1  0  0  0  0
 29 32  1  0  0  0  0
 27 28  1  0  0  0  0
 27 29  1  0  0  0  0
M  END
$$$$
default_name
  -OEChem-01062215323D

 32 32  0     1  0  0  0  0  0999 V2000
   -3.8405   -3.7518    1.6252 H   0  0  0  0  0  0  0  0  0  0  0  0
   -3.7965   -2.8768    0.9782 C   0  0  0  0  0  0  0  0  0  0  0  0
   -4.5465   -2.1527    1.2902 H   0  0  0  0  0  0  0  0  0  0  0  0
   -3.9745   -3.1748   -0.0538 H   0  0  0  0  0  0  0  0  0  0  0  0
   -2.4245   -2.2537    1.0882 C   0  0  0  0  0  0  0  0  0  0  0  0
   -1.5805   -2.7478    1.8242 O   0  0  0  0  0  0  0  0  0  0  0  0
   -2.2045   -1.1637    0.3562 N   0  0  0  0  0  0  0  0  0  0  0  0
   -2.9595   -0.7907   -0.2008 H   0  0  0  0  0  0  0  0  0  0  0  0
   -0.9485   -0.4087    0.3482 C   0  0  1  0  0  0  0  0  0  0  0  0
   -0.7686   -0.0213    1.3523 H   0  0  0  0  0  0  0  0  0  0  0  0
    0.2092   -1.3520   -0.0211 C   0  0  0  0  0  0  0  0  0  0  0  0
   -0.0286   -1.8558   -0.9591 H   0  0  0  0  0  0  0  0  0  0  0  0
    1.1096   -0.7588   -0.1871 H   0  0  0  0  0  0  0  0  0  0  0  0
    0.4948   -2.4140    1.0236 C   0  0  0  0  0  0  0  0  0  0  0  0
    1.2631   -2.1059    2.1623 C   0  0  0  0  0  0  0  0  0  0  0  0
    1.6740   -1.1140    2.2877 H   0  0  0  0  0  0  0  0  0  0  0  0
    1.4891   -3.0849    3.1473 C   0  0  0  0  0  0  0  0  0  0  0  0
    2.0815   -2.8470    4.0197 H   0  0  0  0  0  0  0  0  0  0  0  0
    0.9464   -4.3723    2.9967 C   0  0  0  0  0  0  0  0  0  0  0  0
    1.1220   -5.1251    3.7523 H   0  0  0  0  0  0  0  0  0  0  0  0
    0.1795   -4.6839    1.8593 C   0  0  0  0  0  0  0  0  0  0  0  0
   -0.2333   -5.6751    1.7407 H   0  0  0  0  0  0  0  0  0  0  0  0
   -0.0435   -3.7063    0.8734 C   0  0  0  0  0  0  0  0  0  0  0  0
   -0.6309   -3.9483   -0.0028 H   0  0  0  0  0  0  0  0  0  0  0  0
   -1.0364    0.7937   -0.6088 C   0  0  0  0  0  0  0  0  0  0  0  0
   -0.0129    1.3836   -0.9579 O   0  0  0  0  0  0  0  0  0  0  0  0
   -2.2541    1.1606   -1.0281 N   0  0  0  0  0  0  0  0  0  0  0  0
   -3.0477    0.6632   -0.6539 H   0  0  0  0  0  0  0  0  0  0  0  0
   -2.5103    2.2826   -1.9279 C   0  0  0  0  0  0  0  0  0  0  0  0
   -1.8878    2.1904   -2.8204 H   0  0  0  0  0  0  0  0  0  0  0  0
   -3.5601    2.2978   -2.2220 H   0  0  0  0  0  0  0  0  0  0  0  0
   -2.2629    3.2199   -1.4259 H   0  0  0  0  0  0  0  0  0  0  0  0
  5  6  2  0  0  0  0
  5  7  1  0  0  0  0
  2  3  1  0  0  0  0
  2  4  1  0  0  0  0
  2  5  1  0  0  0  0
  1  2  1  0  0  0  0
 25 26  2  0  0  0  0
 25 27  1  0  0  0  0
 23 24  1  0  0  0  0
 21 22  1  0  0  0  0
 21 23  2  0  0  0  0
 19 20  1  0  0  0  0
 19 21  1  0  0  0  0
 17 18  1  0  0  0  0
 17 19  2  0  0  0  0
 15 16  1  0  0  0  0
 15 17  1  0  0  0  0
 14 15  2  0  0  0  0
 14 23  1  0  0  0  0
 11 12  1  0  0  0  0
 11 13  1  0  0  0  0
 11 14  1  0  0  0  0
  9 10  1  0  0  0  0
  9 11  1  0  0  0  0
  9 25  1  0  0  0  0
  7  8  1  0  0  0  0
  7  9  1  0  0  0  0
 29 30  1  0  0  0  0
 29 31  1  0  0  0  0
 29 32  1  0  0  0  0
 27 28  1  0  0  0  0
 27 29  1  0  0  0  0
M  END
$$$$
default_name
  -OEChem-01062215323D

 32 32  0     1  0  0  0  0  0999 V2000
   -3.8405   -3.7518    1.6252 H   0  0  0  0  0  0  0  0  0  0  0  0
   -3.7965   -2.8768    0.9782 C   0  0  0  0  0  0  0  0  0  0  0  0
   -4.5465   -2.1527    1.2902 H   0  0  0  0  0  0  0  0  0  0  0  0
   -3.9745   -3.1748   -0.0538 H   0  0  0  0  0  0  0  0  0  0  0  0
   -2.4245   -2.2537    1.0882 C   0  0  0  0  0  0  0  0  0  0  0  0
   -1.5805   -2.7478    1.8242 O   0  0  0  0  0  0  0  0  0  0  0  0
   -2.2045   -1.1637    0.3562 N   0  0  0  0  0  0  0  0  0  0  0  0
   -2.9595   -0.7907   -0.2008 H   0  0  0  0  0  0  0  0  0  0  0  0
   -0.9485   -0.4087    0.3482 C   0  0  1  0  0  0  0  0  0  0  0  0
   -0.7686   -0.0213    1.3523 H   0  0  0  0  0  0  0  0  0  0  0  0
    0.2092   -1.3520   -0.0211 C   0  0  0  0  0  0  0  0  0  0  0  0
   -0.0286   -1.8558   -0.9591 H   0  0  0  0  0  0  0  0  0  0  0  0
    1.1096   -0.7588   -0.1871 H   0  0  0  0  0  0  0  0  0  0  0  0
    0.4948   -2.4140    1.0236 C   0  0  0  0  0  0  0  0  0  0  0  0
    1.2631   -2.1059    2.1623 C   0  0  0  0  0  0  0  0  0  0  0  0
    1.6740   -1.1140    2.2877 H   0  0  0  0  0  0  0  0  0  0  0  0
    1.4891   -3.0849    3.1473 C   0  0  0  0  0  0  0  0  0  0  0  0
    2.0815   -2.8470    4.0197 H   0  0  0  0  0  0  0  0  0  0  0  0
    0.9464   -4.3723    2.9967 C   0  0  0  0  0  0  0  0  0  0  0  0
    1.1220   -5.1251    3.7523 H   0  0  0  0  0  0  0  0  0  0  0  0
    0.1795   -4.6839    1.8593 C   0  0  0  0  0  0  0  0  0  0  0  0
   -0.2333   -5.6751    1.7407 H   0  0  0  0  0  0  0  0  0  0  0  0
   -0.0435   -3.7063    0.8734 C   0  0  0  0  0  0  0  0  0  0  0  0
   -0.6309   -3.9483   -0.0028 H   0  0  0  0  0  0  0  0  0  0  0  0
   -1.0364    0.7937   -0.6088 C   0  0  0  0  0  0  0  0  0  0  0  0
   -0.0247    1.2101   -1.1748 O   0  0  0  0  0  0  0  0  0  0  0  0
   -2.2395    1.3542   -0.7862 N   0  0  0  0  0  0  0  0  0  0  0  0
   -3.0094    0.9917   -0.2447 H   0  0  0  0  0  0  0  0  0  0  0  0
   -2.4912    2.5046   -1.6508 C   0  0  0  0  0  0  0  0  0  0  0  0
   -2.0861    2.3140   -2.6468 H   0  0  0  0  0  0  0  0  0  0  0  0
   -3.5628    2.6906   -1.7282 H   0  0  0  0  0  0  0  0  0  0  0  0
   -2.0007    3.3884   -1.2383 H   0  0  0  0  0  0  0  0  0  0  0  0
  5  6  2  0  0  0  0
  5  7  1  0  0  0  0
  2  3  1  0  0  0  0
  2  4  1  0  0  0  0
  2  5  1  0  0  0  0
  1  2  1  0  0  0  0
 25 26  2  0  0  0  0
 25 27  1  0  0  0  0
 23 24  1  0  0  0  0
 21 22  1  0  0  0  0
 21 23  2  0  0  0  0
 19 20  1  0  0  0  0
 19 21  1  0  0  0  0
 17 18  1  0  0  0  0
 17 19  2  0  0  0  0
 15 16  1  0  0  0  0
 15 17  1  0  0  0  0
 14 15  2  0  0  0  0
 14 23  1  0  0  0  0
 11 12  1  0  0  0  0
 11 13  1  0  0  0  0
 11 14  1  0  0  0  0
  9 10  1  0  0  0  0
  9 11  1  0  0  0  0
  9 25  1  0  0  0  0
  7  8  1  0  0  0  0
  7  9  1  0  0  0  0
 29 30  1  0  0  0  0
 29 31  1  0  0  0  0
 29 32  1  0  0  0  0
 27 28  1  0  0  0  0
 27 29  1  0  0  0  0
M  END
$$$$
default_name
  -OEChem-01062215323D

 32 32  0     1  0  0  0  0  0999 V2000
   -3.8405   -3.7518    1.6252 H   0  0  0  0  0  0  0  0  0  0  0  0
   -3.7965   -2.8768    0.9782 C   0  0  0  0  0  0  0  0  0  0  0  0
   -4.5465   -2.1527    1.2902 H   0  0  0  0  0  0  0  0  0  0  0  0
   -3.9745   -3.1748   -0.0538 H   0  0  0  0  0  0  0  0  0  0  0  0
   -2.4245   -2.2537    1.0882 C   0  0  0  0  0  0  0  0  0  0  0  0
   -1.5805   -2.7478    1.8242 O   0  0  0  0  0  0  0  0  0  0  0  0
   -2.2045   -1.1637    0.3562 N   0  0  0  0  0  0  0  0  0  0  0  0
   -2.9595   -0.7907   -0.2008 H   0  0  0  0  0  0  0  0  0  0  0  0
   -0.9485   -0.4087    0.3482 C   0  0  1  0  0  0  0  0  0  0  0  0
   -0.7686   -0.0213    1.3523 H   0  0  0  0  0  0  0  0  0  0  0  0
    0.2092   -1.3520   -0.0211 C   0  0  0  0  0  0  0  0  0  0  0  0
   -0.0286   -1.8558   -0.9591 H   0  0  0  0  0  0  0  0  0  0  0  0
    1.1096   -0.7588   -0.1871 H   0  0  0  0  0  0  0  0  0  0  0  0
    0.4948   -2.4140    1.0236 C   0  0  0  0  0  0  0  0  0  0  0  0
    1.2631   -2.1059    2.1623 C   0  0  0  0  0  0  0  0  0  0  0  0
    1.6740   -1.1140    2.2877 H   0  0  0  0  0  0  0  0  0  0  0  0
    1.4891   -3.0849    3.1473 C   0  0  0  0  0  0  0  0  0  0  0  0
    2.0815   -2.8470    4.0197 H   0  0  0  0  0  0  0  0  0  0  0  0
    0.9464   -4.3723    2.9967 C   0  0  0  0  0  0  0  0  0  0  0  0
    1.1220   -5.1251    3.7523 H   0  0  0  0  0  0  0  0  0  0  0  0
    0.1795   -4.6839    1.8593 C   0  0  0  0  0  0  0  0  0  0  0  0
   -0.2333   -5.6751    1.7407 H   0  0  0  0  0  0  0  0  0  0  0  0
   -0.0435   -3.7063    0.8734 C   0  0  0  0  0  0  0  0  0  0  0  0
   -0.6309   -3.9483   -0.0028 H   0  0  0  0  0  0  0  0  0  0  0  0
   -1.0364    0.7937   -0.6088 C   0  0  0  0  0  0  0  0  0  0  0  0
   -0.1078    1.0413   -1.3793 O   0  0  0  0  0  0  0  0  0  0  0  0
   -2.1454    1.5425   -0.5582 N   0  0  0  0  0  0  0  0  0  0  0  0
   -2.8368    1.3089    0.1380 H   0  0  0  0  0  0  0  0  0  0  0  0
   -2.3810    2.7200   -1.3903 C   0  0  0  0  0  0  0  0  0  0  0  0
   -2.2226    2.4679   -2.4409 H   0  0  0  0  0  0  0  0  0  0  0  0
   -3.4023    3.0778   -1.2565 H   0  0  0  0  0  0  0  0  0  0  0  0
   -1.6824    3.5116   -1.1127 H   0  0  0  0  0  0  0  0  0  0  0  0
  5  6  2  0  0  0  0
  5  7  1  0  0  0  0
  2  3  1  0  0  0  0
  2  4  1  0  0  0  0
  2  5  1  0  0  0  0
  1  2  1  0  0  0  0
 25 26  2  0  0  0  0
 25 27  1  0  0  0  0
 23 24  1  0  0  0  0
 21 22  1  0  0  0  0
 21 23  2  0  0  0  0
 19 20  1  0  0  0  0
 19 21  1  0  0  0  0
 17 18  1  0  0  0  0
 17 19  2  0  0  0  0
 15 16  1  0  0  0  0
 15 17  1  0  0  0  0
 14 15  2  0  0  0  0
 14 23  1  0  0  0  0
 11 12  1  0  0  0  0
 11 13  1  0  0  0  0
 11 14  1  0  0  0  0
  9 10  1  0  0  0  0
  9 11  1  0  0  0  0
  9 25  1  0  0  0  0
  7  8  1  0  0  0  0
  7  9  1  0  0  0  0
 29 30  1  0  0  0  0
 29 31  1  0  0  0  0
 29 32  1  0  0  0  0
 27 28  1  0  0  0  0
 27 29  1  0  0  0  0
M  END
$$$$
default_name
  -OEChem-01062215323D

 32 32  0     1  0  0  0  0  0999 V2000
   -3.8405   -3.7518    1.6252 H   0  0  0  0  0  0  0  0  0  0  0  0
   -3.7965   -2.8768    0.9782 C   0  0  0  0  0  0  0  0  0  0  0  0
   -4.5465   -2.1527    1.2902 H   0  0  0  0  0  0  0  0  0  0  0  0
   -3.9745   -3.1748   -0.0538 H   0  0  0  0  0  0  0  0  0  0  0  0
   -2.4245   -2.2537    1.0882 C   0  0  0  0  0  0  0  0  0  0  0  0
   -1.5805   -2.7478    1.8242 O   0  0  0  0  0  0  0  0  0  0  0  0
   -2.2045   -1.1637    0.3562 N   0  0  0  0  0  0  0  0  0  0  0  0
   -2.9595   -0.7907   -0.2008 H   0  0  0  0  0  0  0  0  0  0  0  0
   -0.9485   -0.4087    0.3482 C   0  0  1  0  0  0  0  0  0  0  0  0
   -0.7686   -0.0213    1.3523 H   0  0  0  0  0  0  0  0  0  0  0  0
    0.2092   -1.3520   -0.0211 C   0  0  0  0  0  0  0  0  0  0  0  0
   -0.0286   -1.8558   -0.9591 H   0  0  0  0  0  0  0  0  0  0  0  0
    1.1096   -0.7588   -0.1871 H   0  0  0  0  0  0  0  0  0  0  0  0
    0.4948   -2.4140    1.0236 C   0  0  0  0  0  0  0  0  0  0  0  0
    1.2631   -2.1059    2.1623 C   0  0  0  0  0  0  0  0  0  0  0  0
    1.6740   -1.1140    2.2877 H   0  0  0  0  0  0  0  0  0  0  0  0
    1.4891   -3.0849    3.1473 C   0  0  0  0  0  0  0  0  0  0  0  0
    2.0815   -2.8470    4.0197 H   0  0  0  0  0  0  0  0  0  0  0  0
    0.9464   -4.3723    2.9967 C   0  0  0  0  0  0  0  0  0  0  0  0
    1.1220   -5.1251    3.7523 H   0  0  0  0  0  0  0  0  0  0  0  0
    0.1795   -4.6839    1.8593 C   0  0  0  0  0  0  0  0  0  0  0  0
   -0.2333   -5.6751    1.7407 H   0  0  0  0  0  0  0  0  0  0  0  0
   -0.0435   -3.7063    0.8734 C   0  0  0  0  0  0  0  0  0  0  0  0
   -0.6309   -3.9483   -0.0028 H   0  0  0  0  0  0  0  0  0  0  0  0
   -1.0364    0.7937   -0.6088 C   0  0  0  0  0  0  0  0  0  0  0  0
   -0.2565    0.8885   -1.5576 O   0  0  0  0  0  0  0  0  0  0  0  0
   -1.9781    1.7126   -0.3599 N   0  0  0  0  0  0  0  0  0  0  0  0
   -2.5416    1.5932    0.4681 H   0  0  0  0  0  0  0  0  0  0  0  0
   -2.1873    2.9142   -1.1641 C   0  0  0  0  0  0  0  0  0  0  0  0
   -2.2881    2.6416   -2.2167 H   0  0  0  0  0  0  0  0  0  0  0  0
   -3.0896    3.4329   -0.8391 H   0  0  0  0  0  0  0  0  0  0  0  0
   -1.3297    3.5813   -1.0575 H   0  0  0  0  0  0  0  0  0  0  0  0
  5  6  2  0  0  0  0
  5  7  1  0  0  0  0
  2  3  1  0  0  0  0
  2  4  1  0  0  0  0
  2  5  1  0  0  0  0
  1  2  1  0  0  0  0
 25 26  2  0  0  0  0
 25 27  1  0  0  0  0
 23 24  1  0  0  0  0
 21 22  1  0  0  0  0
 21 23  2  0  0  0  0
 19 20  1  0  0  0  0
 19 21  1  0  0  0  0
 17 18  1  0  0  0  0
 17 19  2  0  0  0  0
 15 16  1  0  0  0  0
 15 17  1  0  0  0  0
 14 15  2  0  0  0  0
 14 23  1  0  0  0  0
 11 12  1  0  0  0  0
 11 13  1  0  0  0  0
 11 14  1  0  0  0  0
  9 10  1  0  0  0  0
  9 11  1  0  0  0  0
  9 25  1  0  0  0  0
  7  8  1  0  0  0  0
  7  9  1  0  0  0  0
 29 30  1  0  0  0  0
 29 31  1  0  0  0  0
 29 32  1  0  0  0  0
 27 28  1  0  0  0  0
 27 29  1  0  0  0  0
M  END
$$$$
default_name
  -OEChem-01062215323D

 32 32  0     1  0  0  0  0  0999 V2000
   -3.8405   -3.7518    1.6252 H   0  0  0  0  0  0  0  0  0  0  0  0
   -3.7965   -2.8768    0.9782 C   0  0  0  0  0  0  0  0  0  0  0  0
   -4.5465   -2.1527    1.2902 H   0  0  0  0  0  0  0  0  0  0  0  0
   -3.9745   -3.1748   -0.0538 H   0  0  0  0  0  0  0  0  0  0  0  0
   -2.4245   -2.2537    1.0882 C   0  0  0  0  0  0  0  0  0  0  0  0
   -1.5805   -2.7478    1.8242 O   0  0  0  0  0  0  0  0  0  0  0  0
   -2.2045   -1.1637    0.3562 N   0  0  0  0  0  0  0  0  0  0  0  0
   -2.9595   -0.7907   -0.2008 H   0  0  0  0  0  0  0  0  0  0  0  0
   -0.9485   -0.4087    0.3482 C   0  0  1  0  0  0  0  0  0  0  0  0
   -0.7686   -0.0213    1.3523 H   0  0  0  0  0  0  0  0  0  0  0  0
    0.2092   -1.3520   -0.0211 C   0  0  0  0  0  0  0  0  0  0  0  0
   -0.0286   -1.8558   -0.9591 H   0  0  0  0  0  0  0  0  0  0  0  0
    1.1096   -0.7588   -0.1871 H   0  0  0  0  0  0  0  0  0  0  0  0
    0.4948   -2.4140    1.0236 C   0  0  0  0  0  0  0  0  0  0  0  0
    1.2631   -2.1059    2.1623 C   0  0  0  0  0  0  0  0  0  0  0  0
    1.6740   -1.1140    2.2877 H   0  0  0  0  0  0  0  0  0  0  0  0
    1.4891   -3.0849    3.1473 C   0  0  0  0  0  0  0  0  0  0  0  0
    2.0815   -2.8470    4.0197 H   0  0  0  0  0  0  0  0  0  0  0  0
    0.9464   -4.3723    2.9967 C   0  0  0  0  0  0  0  0  0  0  0  0
    1.1220   -5.1251    3.7523 H   0  0  0  0  0  0  0  0  0  0  0  0
    0.1795   -4.6839    1.8593 C   0  0  0  0  0  0  0  0  0  0  0  0
   -0.2333   -5.6751    1.7407 H   0  0  0  0  0  0  0  0  0  0  0  0
   -0.0435   -3.7063    0.8734 C   0  0  0  0  0  0  0  0  0  0  0  0
   -0.6309   -3.9483   -0.0028 H   0  0  0  0  0  0  0  0  0  0  0  0
   -1.0364    0.7937   -0.6088 C   0  0  0  0  0  0  0  0  0  0  0  0
   -0.4609    0.7622   -1.6975 O   0  0  0  0  0  0  0  0  0  0  0  0
   -1.7490    1.8529   -0.2047 N   0  0  0  0  0  0  0  0  0  0  0  0
   -2.1440    1.8252    0.7230 H   0  0  0  0  0  0  0  0  0  0  0  0
   -1.9231    3.0739   -0.9876 C   0  0  0  0  0  0  0  0  0  0  0  0
   -2.2781    2.8232   -1.9895 H   0  0  0  0  0  0  0  0  0  0  0  0
   -2.6461    3.7317   -0.5044 H   0  0  0  0  0  0  0  0  0  0  0  0
   -0.9667    3.5928   -1.0765 H   0  0  0  0  0  0  0  0  0  0  0  0
  5  6  2  0  0  0  0
  5  7  1  0  0  0  0
  2  3  1  0  0  0  0
  2  4  1  0  0  0  0
  2  5  1  0  0  0  0
  1  2  1  0  0  0  0
 25 26  2  0  0  0  0
 25 27  1  0  0  0  0
 23 24  1  0  0  0  0
 21 22  1  0  0  0  0
 21 23  2  0  0  0  0
 19 20  1  0  0  0  0
 19 21  1  0  0  0  0
 17 18  1  0  0  0  0
 17 19  2  0  0  0  0
 15 16  1  0  0  0  0
 15 17  1  0  0  0  0
 14 15  2  0  0  0  0
 14 23  1  0  0  0  0
 11 12  1  0  0  0  0
 11 13  1  0  0  0  0
 11 14  1  0  0  0  0
  9 10  1  0  0  0  0
  9 11  1  0  0  0  0
  9 25  1  0  0  0  0
  7  8  1  0  0  0  0
  7  9  1  0  0  0  0
 29 30  1  0  0  0  0
 29 31  1  0  0  0  0
 29 32  1  0  0  0  0
 27 28  1  0  0  0  0
 27 29  1  0  0  0  0
M  END
$$$$
default_name
  -OEChem-01062215323D

 32 32  0     1  0  0  0  0  0999 V2000
   -3.8405   -3.7518    1.6252 H   0  0  0  0  0  0  0  0  0  0  0  0
   -3.7965   -2.8768    0.9782 C   0  0  0  0  0  0  0  0  0  0  0  0
   -4.5465   -2.1527    1.2902 H   0  0  0  0  0  0  0  0  0  0  0  0
   -3.9745   -3.1748   -0.0538 H   0  0  0  0  0  0  0  0  0  0  0  0
   -2.4245   -2.2537    1.0882 C   0  0  0  0  0  0  0  0  0  0  0  0
   -1.5805   -2.7478    1.8242 O   0  0  0  0  0  0  0  0  0  0  0  0
   -2.2045   -1.1637    0.3562 N   0  0  0  0  0  0  0  0  0  0  0  0
   -2.9595   -0.7907   -0.2008 H   0  0  0  0  0  0  0  0  0  0  0  0
   -0.9485   -0.4087    0.3482 C   0  0  1  0  0  0  0  0  0  0  0  0
   -0.7686   -0.0213    1.3523 H   0  0  0  0  0  0  0  0  0  0  0  0
    0.2092   -1.3520   -0.0211 C   0  0  0  0  0  0  0  0  0  0  0  0
   -0.0286   -1.8558   -0.9591 H   0  0  0  0  0  0  0  0  0  0  0  0
    1.1096   -0.7588   -0.1871 H   0  0  0  0  0  0  0  0  0  0  0  0
    0.4948   -2.4140    1.0236 C   0  0  0  0  0  0  0  0  0  0  0  0
    1.2631   -2.1059    2.1623 C   0  0  0  0  0  0  0  0  0  0  0  0
    1.6740   -1.1140    2.2877 H   0  0  0  0  0  0  0  0  0  0  0  0
    1.4891   -3.0849    3.1473 C   0  0  0  0  0  0  0  0  0  0  0  0
    2.0815   -2.8470    4.0197 H   0  0  0  0  0  0  0  0  0  0  0  0
    0.9464   -4.3723    2.9967 C   0  0  0  0  0  0  0  0  0  0  0  0
    1.1220   -5.1251    3.7523 H   0  0  0  0  0  0  0  0  0  0  0  0
    0.1795   -4.6839    1.8593 C   0  0  0  0  0  0  0  0  0  0  0  0
   -0.2333   -5.6751    1.7407 H   0  0  0  0  0  0  0  0  0  0  0  0
   -0.0435   -3.7063    0.8734 C   0  0  0  0  0  0  0  0  0  0  0  0
   -0.6309   -3.9483   -0.0028 H   0  0  0  0  0  0  0  0  0  0  0  0
   -1.0364    0.7937   -0.6088 C   0  0  0  0  0  0  0  0  0  0  0  0
   -0.7069    0.6711   -1.7894 O   0  0  0  0  0  0  0  0  0  0  0  0
   -1.4738    1.9539   -0.1031 N   0  0  0  0  0  0  0  0  0  0  0  0
   -1.6711    1.9890    0.8854 H   0  0  0  0  0  0  0  0  0  0  0  0
   -1.6066    3.1884   -0.8729 C   0  0  0  0  0  0  0  0  0  0  0  0
   -2.1932    3.0004   -1.7747 H   0  0  0  0  0  0  0  0  0  0  0  0
   -2.1018    3.9540   -0.2751 H   0  0  0  0  0  0  0  0  0  0  0  0
   -0.6180    3.5451   -1.1685 H   0  0  0  0  0  0  0  0  0  0  0  0
  5  6  2  0  0  0  0
  5  7  1  0  0  0  0
  2  3  1  0  0  0  0
  2  4  1  0  0  0  0
  2  5  1  0  0  0  0
  1  2  1  0  0  0  0
 25 26  2  0  0  0  0
 25 27  1  0  0  0  0
 23 24  1  0  0  0  0
 21 22  1  0  0  0  0
 21 23  2  0  0  0  0
 19 20  1  0  0  0  0
 19 21  1  0  0  0  0
 17 18  1  0  0  0  0
 17 19  2  0  0  0  0
 15 16  1  0  0  0  0
 15 17  1  0  0  0  0
 14 15  2  0  0  0  0
 14 23  1  0  0  0  0
 11 12  1  0  0  0  0
 11 13  1  0  0  0  0
 11 14  1  0  0  0  0
  9 10  1  0  0  0  0
  9 11  1  0  0  0  0
  9 25  1  0  0  0  0
  7  8  1  0  0  0  0
  7  9  1  0  0  0  0
 29 30  1  0  0  0  0
 29 31  1  0  0  0  0
 29 32  1  0  0  0  0
 27 28  1  0  0  0  0
 27 29  1  0  0  0  0
M  END
$$$$
default_name
  -OEChem-01062215323D

 32 32  0     1  0  0  0  0  0999 V2000
   -3.8405   -3.7518    1.6252 H   0  0  0  0  0  0  0  0  0  0  0  0
   -3.7965   -2.8768    0.9782 C   0  0  0  0  0  0  0  0  0  0  0  0
   -4.5465   -2.1527    1.2902 H   0  0  0  0  0  0  0  0  0  0  0  0
   -3.9745   -3.1748   -0.0538 H   0  0  0  0  0  0  0  0  0  0  0  0
   -2.4245   -2.2537    1.0882 C   0  0  0  0  0  0  0  0  0  0  0  0
   -1.5805   -2.7478    1.8242 O   0  0  0  0  0  0  0  0  0  0  0  0
   -2.2045   -1.1637    0.3562 N   0  0  0  0  0  0  0  0  0  0  0  0
   -2.9595   -0.7907   -0.2008 H   0  0  0  0  0  0  0  0  0  0  0  0
   -0.9485   -0.4087    0.3482 C   0  0  1  0  0  0  0  0  0  0  0  0
   -0.7686   -0.0213    1.3523 H   0  0  0  0  0  0  0  0  0  0  0  0
    0.2092   -1.3520   -0.0211 C   0  0  0  0  0  0  0  0  0  0  0  0
   -0.0286   -1.8558   -0.9591 H   0  0  0  0  0  0  0  0  0  0  0  0
    1.1096   -0.7588   -0.1871 H   0  0  0  0  0  0  0  0  0  0  0  0
    0.4948   -2.4140    1.0236 C   0  0  0  0  0  0  0  0  0  0  0  0
    1.2631   -2.1059    2.1623 C   0  0  0  0  0  0  0  0  0  0  0  0
    1.6740   -1.1140    2.2877 H   0  0  0  0  0  0  0  0  0  0  0  0
    1.4891   -3.0849    3.1473 C   0  0  0  0  0  0  0  0  0  0  0  0
    2.0815   -2.8470    4.0197 H   0  0  0  0  0  0  0  0  0  0  0  0
    0.9464   -4.3723    2.9967 C   0  0  0  0  0  0  0  0  0  0  0  0
    1.1220   -5.1251    3.7523 H   0  0  0  0  0  0  0  0  0  0  0  0
    0.1795   -4.6839    1.8593 C   0  0  0  0  0  0  0  0  0  0  0  0
   -0.2333   -5.6751    1.7407 H   0  0  0  0  0  0  0  0  0  0  0  0
   -0.0435   -3.7063    0.8734 C   0  0  0  0  0  0  0  0  0  0  0  0
   -0.6309   -3.9483   -0.0028 H   0  0  0  0  0  0  0  0  0  0  0  0
   -1.0364    0.7937   -0.6088 C   0  0  0  0  0  0  0  0  0  0  0  0
   -0.9777    0.6213   -1.8271 O   0  0  0  0  0  0  0  0  0  0  0  0
   -1.1711    2.0086   -0.0621 N   0  0  0  0  0  0  0  0  0  0  0  0
   -1.1551    2.0736    0.9443 H   0  0  0  0  0  0  0  0  0  0  0  0
   -1.2593    3.2496   -0.8279 C   0  0  0  0  0  0  0  0  0  0  0  0
   -2.0393    3.1610   -1.5870 H   0  0  0  0  0  0  0  0  0  0  0  0
   -1.4941    4.0845   -0.1670 H   0  0  0  0  0  0  0  0  0  0  0  0
   -0.3075    3.4416   -1.3271 H   0  0  0  0  0  0  0  0  0  0  0  0
  5  6  2  0  0  0  0
  5  7  1  0  0  0  0
  2  3  1  0  0  0  0
  2  4  1  0  0  0  0
  2  5  1  0  0  0  0
  1  2  1  0  0  0  0
 25 26  2  0  0  0  0
 25 27  1  0  0  0  0
 23 24  1  0  0  0  0
 21 22  1  0  0  0  0
 21 23  2  0  0  0  0
 19 20  1  0  0  0  0
 19 21  1  0  0  0  0
 17 18  1  0  0  0  0
 17 19  2  0  0  0  0
 15 16  1  0  0  0  0
 15 17  1  0  0  0  0
 14 15  2  0  0  0  0
 14 23  1  0  0  0  0
 11 12  1  0  0  0  0
 11 13  1  0  0  0  0
 11 14  1  0  0  0  0
  9 10  1  0  0  0  0
  9 11  1  0  0  0  0
  9 25  1  0  0  0  0
  7  8  1  0  0  0  0
  7  9  1  0  0  0  0
 29 30  1  0  0  0  0
 29 31  1  0  0  0  0
 29 32  1  0  0  0  0
 27 28  1  0  0  0  0
 27 29  1  0  0  0  0
M  END
$$$$
default_name
  -OEChem-01062215323D

 32 32  0     1  0  0  0  0  0999 V2000
   -3.8405   -3.7518    1.6252 H   0  0  0  0  0  0  0  0  0  0  0  0
   -3.7965   -2.8768    0.9782 C   0  0  0  0  0  0  0  0  0  0  0  0
   -4.5465   -2.1527    1.2902 H   0  0  0  0  0  0  0  0  0  0  0  0
   -3.9745   -3.1748   -0.0538 H   0  0  0  0  0  0  0  0  0  0  0  0
   -2.4245   -2.2537    1.0882 C   0  0  0  0  0  0  0  0  0  0  0  0
   -1.5805   -2.7478    1.8242 O   0  0  0  0  0  0  0  0  0  0  0  0
   -2.2045   -1.1637    0.3562 N   0  0  0  0  0  0  0  0  0  0  0  0
   -2.9595   -0.7907   -0.2008 H   0  0  0  0  0  0  0  0  0  0  0  0
   -0.9485   -0.4087    0.3482 C   0  0  1  0  0  0  0  0  0  0  0  0
   -0.7686   -0.0213    1.3523 H   0  0  0  0  0  0  0  0  0  0  0  0
    0.2092   -1.3520   -0.0211 C   0  0  0  0  0  0  0  0  0  0  0  0
   -0.0286   -1.8558   -0.9591 H   0  0  0  0  0  0  0  0  0  0  0  0
    1.1096   -0.7588   -0.1871 H   0  0  0  0  0  0  0  0  0  0  0  0
    0.4948   -2.4140    1.0236 C   0  0  0  0  0  0  0  0  0  0  0  0
    1.2631   -2.1059    2.1623 C   0  0  0  0  0  0  0  0  0  0  0  0
    1.6740   -1.1140    2.2877 H   0  0  0  0  0  0  0  0  0  0  0  0
    1.4891   -3.0849    3.1473 C   0  0  0  0  0  0  0  0  0  0  0  0
    2.0815   -2.8470    4.0197 H   0  0  0  0  0  0  0  0  0  0  0  0
    0.9464   -4.3723    2.9967 C   0  0  0  0  0  0  0  0  0  0  0  0
    1.1220   -5.1251    3.7523 H   0  0  0  0  0  0  0  0  0  0  0  0
    0.1795   -4.6839    1.8593 C   0  0  0  0  0  0  0  0  0  0  0  0
   -0.2333   -5.6751    1.7407 H   0  0  0  0  0  0  0  0  0  0  0  0
   -0.0435   -3.7063    0.8734 C   0  0  0  0  0  0  0  0  0  0  0  0
   -0.6309   -3.9483   -0.0028 H   0  0  0  0  0  0  0  0  0  0  0  0
   -1.0364    0.7937   -0.6088 C   0  0  0  0  0  0  0  0  0  0  0  0
   -1.2550    0.6162   -1.8080 O   0  0  0  0  0  0  0  0  0  0  0  0
   -0.8617    2.0134   -0.0845 N   0  0  0  0  0  0  0  0  0  0  0  0
   -0.6312    2.0732    0.8956 H   0  0  0  0  0  0  0  0  0  0  0  0
   -0.9048    3.2536   -0.8555 C   0  0  0  0  0  0  0  0  0  0  0  0
   -1.8269    3.2942   -1.4391 H   0  0  0  0  0  0  0  0  0  0  0  0
   -0.8641    4.1143   -0.1874 H   0  0  0  0  0  0  0  0  0  0  0  0
   -0.0563    3.2893   -1.5415 H   0  0  0  0  0  0  0  0  0  0  0  0
  5  6  2  0  0  0  0
  5  7  1  0  0  0  0
  2  3  1  0  0  0  0
  2  4  1  0  0  0  0
  2  5  1  0  0  0  0
  1  2  1  0  0  0  0
 25 26  2  0  0  0  0
 25 27  1  0  0  0  0
 23 24  1  0  0  0  0
 21 22  1  0  0  0  0
 21 23  2  0  0  0  0
 19 20  1  0  0  0  0
 19 21  1  0  0  0  0
 17 18  1  0  0  0  0
 17 19  2  0  0  0  0
 15 16  1  0  0  0  0
 15 17  1  0  0  0  0
 14 15  2  0  0  0  0
 14 23  1  0  0  0  0
 11 12  1  0  0  0  0
 11 13  1  0  0  0  0
 11 14  1  0  0  0  0
  9 10  1  0  0  0  0
  9 11  1  0  0  0  0
  9 25  1  0  0  0  0
  7  8  1  0  0  0  0
  7  9  1  0  0  0  0
 29 30  1  0  0  0  0
 29 31  1  0  0  0  0
 29 32  1  0  0  0  0
 27 28  1  0  0  0  0
 27 29  1  0  0  0  0
M  END
$$$$
default_name
  -OEChem-01062215323D

 32 32  0     1  0  0  0  0  0999 V2000
   -3.8405   -3.7518    1.6252 H   0  0  0  0  0  0  0  0  0  0  0  0
   -3.7965   -2.8768    0.9782 C   0  0  0  0  0  0  0  0  0  0  0  0
   -4.5465   -2.1527    1.2902 H   0  0  0  0  0  0  0  0  0  0  0  0
   -3.9745   -3.1748   -0.0538 H   0  0  0  0  0  0  0  0  0  0  0  0
   -2.4245   -2.2537    1.0882 C   0  0  0  0  0  0  0  0  0  0  0  0
   -1.5805   -2.7478    1.8242 O   0  0  0  0  0  0  0  0  0  0  0  0
   -2.2045   -1.1637    0.3562 N   0  0  0  0  0  0  0  0  0  0  0  0
   -2.9595   -0.7907   -0.2008 H   0  0  0  0  0  0  0  0  0  0  0  0
   -0.9485   -0.4087    0.3482 C   0  0  1  0  0  0  0  0  0  0  0  0
   -0.7686   -0.0213    1.3523 H   0  0  0  0  0  0  0  0  0  0  0  0
    0.2092   -1.3520   -0.0211 C   0  0  0  0  0  0  0  0  0  0  0  0
   -0.0286   -1.8558   -0.9591 H   0  0  0  0  0  0  0  0  0  0  0  0
    1.1096   -0.7588   -0.1871 H   0  0  0  0  0  0  0  0  0  0  0  0
    0.4948   -2.4140    1.0236 C   0  0  0  0  0  0  0  0  0  0  0  0
    1.2631   -2.1059    2.1623 C   0  0  0  0  0  0  0  0  0  0  0  0
    1.6740   -1.1140    2.2877 H   0  0  0  0  0  0  0  0  0  0  0  0
    1.4891   -3.0849    3.1473 C   0  0  0  0  0  0  0  0  0  0  0  0
    2.0815   -2.8470    4.0197 H   0  0  0  0  0  0  0  0  0  0  0  0
    0.9464   -4.3723    2.9967 C   0  0  0  0  0  0  0  0  0  0  0  0
    1.1220   -5.1251    3.7523 H   0  0  0  0  0  0  0  0  0  0  0  0
    0.1795   -4.6839    1.8593 C   0  0  0  0  0  0  0  0  0  0  0  0
   -0.2333   -5.6751    1.7407 H   0  0  0  0  0  0  0  0  0  0  0  0
   -0.0435   -3.7063    0.8734 C   0  0  0  0  0  0  0  0  0  0  0  0
   -0.6309   -3.9483   -0.0028 H   0  0  0  0  0  0  0  0  0  0  0  0
   -1.0364    0.7937   -0.6088 C   0  0  0  0  0  0  0  0  0  0  0  0
   -1.5198    0.6561   -1.7335 O   0  0  0  0  0  0  0  0  0  0  0  0
   -0.5666    1.9679   -0.1688 N   0  0  0  0  0  0  0  0  0  0  0  0
   -0.1350    1.9877    0.7426 H   0  0  0  0  0  0  0  0  0  0  0  0
   -0.5673    3.2000   -0.9538 C   0  0  0  0  0  0  0  0  0  0  0  0
   -1.5703    3.3908   -1.3413 H   0  0  0  0  0  0  0  0  0  0  0  0
   -0.2550    4.0415   -0.3349 H   0  0  0  0  0  0  0  0  0  0  0  0
    0.1185    3.0986   -1.7972 H   0  0  0  0  0  0  0  0  0  0  0  0
  5  6  2  0  0  0  0
  5  7  1  0  0  0  0
  2  3  1  0  0  0  0
  2  4  1  0  0  0  0
  2  5  1  0  0  0  0
  1  2  1  0  0  0  0
 25 26  2  0  0  0  0
 25 27  1  0  0  0  0
 23 24  1  0  0  0  0
 21 22  1  0  0  0  0
 21 23  2  0  0  0  0
 19 20  1  0  0  0  0
 19 21  1  0  0  0  0
 17 18  1  0  0  0  0
 17 19  2  0  0  0  0
 15 16  1  0  0  0  0
 15 17  1  0  0  0  0
 14 15  2  0  0  0  0
 14 23  1  0  0  0  0
 11 12  1  0  0  0  0
 11 13  1  0  0  0  0
 11 14  1  0  0  0  0
  9 10  1  0  0  0  0
  9 11  1  0  0  0  0
  9 25  1  0  0  0  0
  7  8  1  0  0  0  0
  7  9  1  0  0  0  0
 29 30  1  0  0  0  0
 29 31  1  0  0  0  0
 29 32  1  0  0  0  0
 27 28  1  0  0  0  0
 27 29  1  0  0  0  0
M  END
$$$$
default_name
  -OEChem-01062215323D

 32 32  0     1  0  0  0  0  0999 V2000
   -3.8405   -3.7518    1.6252 H   0  0  0  0  0  0  0  0  0  0  0  0
   -3.7965   -2.8768    0.9782 C   0  0  0  0  0  0  0  0  0  0  0  0
   -4.5465   -2.1527    1.2902 H   0  0  0  0  0  0  0  0  0  0  0  0
   -3.9745   -3.1748   -0.0538 H   0  0  0  0  0  0  0  0  0  0  0  0
   -2.4245   -2.2537    1.0882 C   0  0  0  0  0  0  0  0  0  0  0  0
   -1.5805   -2.7478    1.8242 O   0  0  0  0  0  0  0  0  0  0  0  0
   -2.2045   -1.1637    0.3562 N   0  0  0  0  0  0  0  0  0  0  0  0
   -2.9595   -0.7907   -0.2008 H   0  0  0  0  0  0  0  0  0  0  0  0
   -0.9485   -0.4087    0.3482 C   0  0  1  0  0  0  0  0  0  0  0  0
   -0.7686   -0.0213    1.3523 H   0  0  0  0  0  0  0  0  0  0  0  0
    0.2092   -1.3520   -0.0211 C   0  0  0  0  0  0  0  0  0  0  0  0
   -0.0286   -1.8558   -0.9591 H   0  0  0  0  0  0  0  0  0  0  0  0
    1.1096   -0.7588   -0.1871 H   0  0  0  0  0  0  0  0  0  0  0  0
    0.4948   -2.4140    1.0236 C   0  0  0  0  0  0  0  0  0  0  0  0
    1.2631   -2.1059    2.1623 C   0  0  0  0  0  0  0  0  0  0  0  0
    1.6740   -1.1140    2.2877 H   0  0  0  0  0  0  0  0  0  0  0  0
    1.4891   -3.0849    3.1473 C   0  0  0  0  0  0  0  0  0  0  0  0
    2.0815   -2.8470    4.0197 H   0  0  0  0  0  0  0  0  0  0  0  0
    0.9464   -4.3723    2.9967 C   0  0  0  0  0  0  0  0  0  0  0  0
    1.1220   -5.1251    3.7523 H   0  0  0  0  0  0  0  0  0  0  0  0
    0.1795   -4.6839    1.8593 C   0  0  0  0  0  0  0  0  0  0  0  0
   -0.2333   -5.6751    1.7407 H   0  0  0  0  0  0  0  0  0  0  0  0
   -0.0435   -3.7063    0.8734 C   0  0  0  0  0  0  0  0  0  0  0  0
   -0.6309   -3.9483   -0.0028 H   0  0  0  0  0  0  0  0  0  0  0  0
   -1.0364    0.7937   -0.6088 C   0  0  0  0  0  0  0  0  0  0  0  0
   -1.7540    0.7385   -1.6085 O   0  0  0  0  0  0  0  0  0  0  0  0
   -0.3059    1.8752   -0.3092 N   0  0  0  0  0  0  0  0  0  0  0  0
    0.2995    1.8230    0.4958 H   0  0  0  0  0  0  0  0  0  0  0  0
   -0.2699    3.0924   -1.1163 C   0  0  0  0  0  0  0  0  0  0  0  0
   -1.2872    3.4444   -1.3001 H   0  0  0  0  0  0  0  0  0  0  0  0
    0.2919    3.8709   -0.5994 H   0  0  0  0  0  0  0  0  0  0  0  0
    0.2049    2.8824   -2.0766 H   0  0  0  0  0  0  0  0  0  0  0  0
  5  6  2  0  0  0  0
  5  7  1  0  0  0  0
  2  3  1  0  0  0  0
  2  4  1  0  0  0  0
  2  5  1  0  0  0  0
  1  2  1  0  0  0  0
 25 26  2  0  0  0  0
 25 27  1  0  0  0  0
 23 24  1  0  0  0  0
 21 22  1  0  0  0  0
 21 23  2  0  0  0  0
 19 20  1  0  0  0  0
 19 21  1  0  0  0  0
 17 18  1  0  0  0  0
 17 19  2  0  0  0  0
 15 16  1  0  0  0  0
 15 17  1  0  0  0  0
 14 15  2  0  0  0  0
 14 23  1  0  0  0  0
 11 12  1  0  0  0  0
 11 13  1  0  0  0  0
 11 14  1  0  0  0  0
  9 10  1  0  0  0  0
  9 11  1  0  0  0  0
  9 25  1  0  0  0  0
  7  8  1  0  0  0  0
  7  9  1  0  0  0  0
 29 30  1  0  0  0  0
 29 31  1  0  0  0  0
 29 32  1  0  0  0  0
 27 28  1  0  0  0  0
 27 29  1  0  0  0  0
M  END
$$$$
default_name
  -OEChem-01062215323D

 32 32  0     1  0  0  0  0  0999 V2000
   -3.8405   -3.7518    1.6252 H   0  0  0  0  0  0  0  0  0  0  0  0
   -3.7965   -2.8768    0.9782 C   0  0  0  0  0  0  0  0  0  0  0  0
   -4.5465   -2.1527    1.2902 H   0  0  0  0  0  0  0  0  0  0  0  0
   -3.9745   -3.1748   -0.0538 H   0  0  0  0  0  0  0  0  0  0  0  0
   -2.4245   -2.2537    1.0882 C   0  0  0  0  0  0  0  0  0  0  0  0
   -1.5805   -2.7478    1.8242 O   0  0  0  0  0  0  0  0  0  0  0  0
   -2.2045   -1.1637    0.3562 N   0  0  0  0  0  0  0  0  0  0  0  0
   -2.9595   -0.7907   -0.2008 H   0  0  0  0  0  0  0  0  0  0  0  0
   -0.9485   -0.4087    0.3482 C   0  0  1  0  0  0  0  0  0  0  0  0
   -0.7686   -0.0213    1.3523 H   0  0  0  0  0  0  0  0  0  0  0  0
    0.2092   -1.3520   -0.0211 C   0  0  0  0  0  0  0  0  0  0  0  0
   -0.0286   -1.8558   -0.9591 H   0  0  0  0  0  0  0  0  0  0  0  0
    1.1096   -0.7588   -0.1871 H   0  0  0  0  0  0  0  0  0  0  0  0
    0.4948   -2.4140    1.0236 C   0  0  0  0  0  0  0  0  0  0  0  0
    1.2631   -2.1059    2.1623 C   0  0  0  0  0  0  0  0  0  0  0  0
    1.6740   -1.1140    2.2877 H   0  0  0  0  0  0  0  0  0  0  0  0
    1.4891   -3.0849    3.1473 C   0  0  0  0  0  0  0  0  0  0  0  0
    2.0815   -2.8470    4.0197 H   0  0  0  0  0  0  0  0  0  0  0  0
    0.9464   -4.3723    2.9967 C   0  0  0  0  0  0  0  0  0  0  0  0
    1.1220   -5.1251    3.7523 H   0  0  0  0  0  0  0  0  0  0  0  0
    0.1795   -4.6839    1.8593 C   0  0  0  0  0  0  0  0  0  0  0  0
   -0.2333   -5.6751    1.7407 H   0  0  0  0  0  0  0  0  0  0  0  0
   -0.0435   -3.7063    0.8734 C   0  0  0  0  0  0  0  0  0  0  0  0
   -0.6309   -3.9483   -0.0028 H   0  0  0  0  0  0  0  0  0  0  0  0
   -1.0364    0.7937   -0.6088 C   0  0  0  0  0  0  0  0  0  0  0  0
   -1.9418    0.8575   -1.4417 O   0  0  0  0  0  0  0  0  0  0  0  0
   -0.0974    1.7416   -0.4962 N   0  0  0  0  0  0  0  0  0  0  0  0
    0.6429    1.5904    0.1720 H   0  0  0  0  0  0  0  0  0  0  0  0
   -0.0328    2.9383   -1.3317 C   0  0  0  0  0  0  0  0  0  0  0  0
   -0.9968    3.4511   -1.3183 H   0  0  0  0  0  0  0  0  0  0  0  0
    0.7392    3.6143   -0.9630 H   0  0  0  0  0  0  0  0  0  0  0  0
    0.1972    2.6557   -2.3609 H   0  0  0  0  0  0  0  0  0  0  0  0
  5  6  2  0  0  0  0
  5  7  1  0  0  0  0
  2  3  1  0  0  0  0
  2  4  1  0  0  0  0
  2  5  1  0  0  0  0
  1  2  1  0  0  0  0
 25 26  2  0  0  0  0
 25 27  1  0  0  0  0
 23 24  1  0  0  0  0
 21 22  1  0  0  0  0
 21 23  2  0  0  0  0
 19 20  1  0  0  0  0
 19 21  1  0  0  0  0
 17 18  1  0  0  0  0
 17 19  2  0  0  0  0
 15 16  1  0  0  0  0
 15 17  1  0  0  0  0
 14 15  2  0  0  0  0
 14 23  1  0  0  0  0
 11 12  1  0  0  0  0
 11 13  1  0  0  0  0
 11 14  1  0  0  0  0
  9 10  1  0  0  0  0
  9 11  1  0  0  0  0
  9 25  1  0  0  0  0
  7  8  1  0  0  0  0
  7  9  1  0  0  0  0
 29 30  1  0  0  0  0
 29 31  1  0  0  0  0
 29 32  1  0  0  0  0
 27 28  1  0  0  0  0
 27 29  1  0  0  0  0
M  END
$$$$
default_name
  -OEChem-01062215323D

 32 32  0     1  0  0  0  0  0999 V2000
   -3.8405   -3.7518    1.6252 H   0  0  0  0  0  0  0  0  0  0  0  0
   -3.7965   -2.8768    0.9782 C   0  0  0  0  0  0  0  0  0  0  0  0
   -4.5465   -2.1527    1.2902 H   0  0  0  0  0  0  0  0  0  0  0  0
   -3.9745   -3.1748   -0.0538 H   0  0  0  0  0  0  0  0  0  0  0  0
   -2.4245   -2.2537    1.0882 C   0  0  0  0  0  0  0  0  0  0  0  0
   -1.5805   -2.7478    1.8242 O   0  0  0  0  0  0  0  0  0  0  0  0
   -2.2045   -1.1637    0.3562 N   0  0  0  0  0  0  0  0  0  0  0  0
   -2.9595   -0.7907   -0.2008 H   0  0  0  0  0  0  0  0  0  0  0  0
   -0.9485   -0.4087    0.3482 C   0  0  1  0  0  0  0  0  0  0  0  0
   -0.6302   -0.2513    1.3800 H   0  0  0  0  0  0  0  0  0  0  0  0
    0.1340   -1.2307   -0.3723 C   0  0  0  0  0  0  0  0  0  0  0  0
   -0.2349   -1.5169   -1.3582 H   0  0  0  0  0  0  0  0  0  0  0  0
    1.0140   -0.6032   -0.5213 H   0  0  0  0  0  0  0  0  0  0  0  0
    0.5387   -2.4940    0.3633 C   0  0  0  0  0  0  0  0  0  0  0  0
    1.4567   -2.4358    1.4290 C   0  0  0  0  0  0  0  0  0  0  0  0
    1.8970   -1.4911    1.7152 H   0  0  0  0  0  0  0  0  0  0  0  0
    1.7958   -3.6059    2.1332 C   0  0  0  0  0  0  0  0  0  0  0  0
    2.5029   -3.5594    2.9495 H   0  0  0  0  0  0  0  0  0  0  0  0
    1.2167   -4.8350    1.7747 C   0  0  0  0  0  0  0  0  0  0  0  0
    1.4791   -5.7343    2.3142 H   0  0  0  0  0  0  0  0  0  0  0  0
    0.3002   -4.8969    0.7093 C   0  0  0  0  0  0  0  0  0  0  0  0
   -0.1409   -5.8425    0.4300 H   0  0  0  0  0  0  0  0  0  0  0  0
   -0.0360   -3.7280    0.0036 C   0  0  0  0  0  0  0  0  0  0  0  0
   -0.7387   -3.7775   -0.8180 H   0  0  0  0  0  0  0  0  0  0  0  0
   -1.1433    0.9748   -0.2979 C   0  0  0  0  0  0  0  0  0  0  0  0
   -2.2489    1.3079   -0.7268 O   0  0  0  0  0  0  0  0  0  0  0  0
   -0.0735    1.7766   -0.3731 N   0  0  0  0  0  0  0  0  0  0  0  0
    0.8095    1.4107   -0.0508 H   0  0  0  0  0  0  0  0  0  0  0  0
   -0.0874    3.1128   -0.9634 C   0  0  0  0  0  0  0  0  0  0  0  0
   -0.8902    3.7049   -0.5191 H   0  0  0  0  0  0  0  0  0  0  0  0
    0.8662    3.6119   -0.7889 H   0  0  0  0  0  0  0  0  0  0  0  0
   -0.2637    3.0378   -2.0382 H   0  0  0  0  0  0  0  0  0  0  0  0
  5  6  2  0  0  0  0
  5  7  1  0  0  0  0
  2  3  1  0  0  0  0
  2  4  1  0  0  0  0
  2  5  1  0  0  0  0
  1  2  1  0  0  0  0
 25 26  2  0  0  0  0
 25 27  1  0  0  0  0
 23 24  1  0  0  0  0
 21 22  1  0  0  0  0
 21 23  2  0  0  0  0
 19 20  1  0  0  0  0
 19 21  1  0  0  0  0
 17 18  1  0  0  0  0
 17 19  2  0  0  0  0
 15 16  1  0  0  0  0
 15 17  1  0  0  0  0
 14 15  2  0  0  0  0
 14 23  1  0  0  0  0
 11 12  1  0  0  0  0
 11 13  1  0  0  0  0
 11 14  1  0  0  0  0
  9 10  1  0  0  0  0
  9 11  1  0  0  0  0
  9 25  1  0  0  0  0
  7  8  1  0  0  0  0
  7  9  1  0  0  0  0
 29 30  1  0  0  0  0
 29 31  1  0  0  0  0
 29 32  1  0  0  0  0
 27 28  1  0  0  0  0
 27 29  1  0  0  0  0
M  END
$$$$
default_name
  -OEChem-01062215323D

 32 32  0     1  0  0  0  0  0999 V2000
   -3.8405   -3.7518    1.6252 H   0  0  0  0  0  0  0  0  0  0  0  0
   -3.7965   -2.8768    0.9782 C   0  0  0  0  0  0  0  0  0  0  0  0
   -4.5465   -2.1527    1.2902 H   0  0  0  0  0  0  0  0  0  0  0  0
   -3.9745   -3.1748   -0.0538 H   0  0  0  0  0  0  0  0  0  0  0  0
   -2.4245   -2.2537    1.0882 C   0  0  0  0  0  0  0  0  0  0  0  0
   -1.5805   -2.7478    1.8242 O   0  0  0  0  0  0  0  0  0  0  0  0
   -2.2045   -1.1637    0.3562 N   0  0  0  0  0  0  0  0  0  0  0  0
   -2.9595   -0.7907   -0.2008 H   0  0  0  0  0  0  0  0  0  0  0  0
   -0.9485   -0.4087    0.3482 C   0  0  1  0  0  0  0  0  0  0  0  0
   -0.6302   -0.2513    1.3800 H   0  0  0  0  0  0  0  0  0  0  0  0
    0.1340   -1.2307   -0.3723 C   0  0  0  0  0  0  0  0  0  0  0  0
   -0.2349   -1.5169   -1.3582 H   0  0  0  0  0  0  0  0  0  0  0  0
    1.0140   -0.6032   -0.5213 H   0  0  0  0  0  0  0  0  0  0  0  0
    0.5387   -2.4940    0.3633 C   0  0  0  0  0  0  0  0  0  0  0  0
    1.4567   -2.4358    1.4290 C   0  0  0  0  0  0  0  0  0  0  0  0
    1.8970   -1.4911    1.7152 H   0  0  0  0  0  0  0  0  0  0  0  0
    1.7958   -3.6059    2.1332 C   0  0  0  0  0  0  0  0  0  0  0  0
    2.5029   -3.5594    2.9495 H   0  0  0  0  0  0  0  0  0  0  0  0
    1.2167   -4.8350    1.7747 C   0  0  0  0  0  0  0  0  0  0  0  0
    1.4791   -5.7343    2.3142 H   0  0  0  0  0  0  0  0  0  0  0  0
    0.3002   -4.8969    0.7093 C   0  0  0  0  0  0  0  0  0  0  0  0
   -0.1409   -5.8425    0.4300 H   0  0  0  0  0  0  0  0  0  0  0  0
   -0.0360   -3.7280    0.0036 C   0  0  0  0  0  0  0  0  0  0  0  0
   -0.7387   -3.7775   -0.8180 H   0  0  0  0  0  0  0  0  0  0  0  0
   -1.1433    0.9748   -0.2979 C   0  0  0  0  0  0  0  0  0  0  0  0
   -2.2775    1.4216   -0.4747 O   0  0  0  0  0  0  0  0  0  0  0  0
   -0.0430    1.6495   -0.6545 N   0  0  0  0  0  0  0  0  0  0  0  0
    0.8476    1.1931   -0.5283 H   0  0  0  0  0  0  0  0  0  0  0  0
   -0.0548    2.9668   -1.2860 C   0  0  0  0  0  0  0  0  0  0  0  0
   -0.6645    3.6542   -0.6958 H   0  0  0  0  0  0  0  0  0  0  0  0
    0.9600    3.3588   -1.3592 H   0  0  0  0  0  0  0  0  0  0  0  0
   -0.4851    2.8907   -2.2864 H   0  0  0  0  0  0  0  0  0  0  0  0
  5  6  2  0  0  0  0
  5  7  1  0  0  0  0
  2  3  1  0  0  0  0
  2  4  1  0  0  0  0
  2  5  1  0  0  0  0
  1  2  1  0  0  0  0
 25 26  2  0  0  0  0
 25 27  1  0  0  0  0
 23 24  1  0  0  0  0
 21 22  1  0  0  0  0
 21 23  2  0  0  0  0
 19 20  1  0  0  0  0
 19 21  1  0  0  0  0
 17 18  1  0  0  0  0
 17 19  2  0  0  0  0
 15 16  1  0  0  0  0
 15 17  1  0  0  0  0
 14 15  2  0  0  0  0
 14 23  1  0  0  0  0
 11 12  1  0  0  0  0
 11 13  1  0  0  0  0
 11 14  1  0  0  0  0
  9 10  1  0  0  0  0
  9 11  1  0  0  0  0
  9 25  1  0  0  0  0
  7  8  1  0  0  0  0
  7  9  1  0  0  0  0
 29 30  1  0  0  0  0
 29 31  1  0  0  0  0
 29 32  1  0  0  0  0
 27 28  1  0  0  0  0
 27 29  1  0  0  0  0
M  END
$$$$
default_name
  -OEChem-01062215323D

 32 32  0     1  0  0  0  0  0999 V2000
   -3.8405   -3.7518    1.6252 H   0  0  0  0  0  0  0  0  0  0  0  0
   -3.7965   -2.8768    0.9782 C   0  0  0  0  0  0  0  0  0  0  0  0
   -4.5465   -2.1527    1.2902 H   0  0  0  0  0  0  0  0  0  0  0  0
   -3.9745   -3.1748   -0.0538 H   0  0  0  0  0  0  0  0  0  0  0  0
   -2.4245   -2.2537    1.0882 C   0  0  0  0  0  0  0  0  0  0  0  0
   -1.5805   -2.7478    1.8242 O   0  0  0  0  0  0  0  0  0  0  0  0
   -2.2045   -1.1637    0.3562 N   0  0  0  0  0  0  0  0  0  0  0  0
   -2.9595   -0.7907   -0.2008 H   0  0  0  0  0  0  0  0  0  0  0  0
   -0.9485   -0.4087    0.3482 C   0  0  1  0  0  0  0  0  0  0  0  0
   -0.6302   -0.2513    1.3800 H   0  0  0  0  0  0  0  0  0  0  0  0
    0.1340   -1.2307   -0.3723 C   0  0  0  0  0  0  0  0  0  0  0  0
   -0.2349   -1.5169   -1.3582 H   0  0  0  0  0  0  0  0  0  0  0  0
    1.0140   -0.6032   -0.5213 H   0  0  0  0  0  0  0  0  0  0  0  0
    0.5387   -2.4940    0.3633 C   0  0  0  0  0  0  0  0  0  0  0  0
    1.4567   -2.4358    1.4290 C   0  0  0  0  0  0  0  0  0  0  0  0
    1.8970   -1.4911    1.7152 H   0  0  0  0  0  0  0  0  0  0  0  0
    1.7958   -3.6059    2.1332 C   0  0  0  0  0  0  0  0  0  0  0  0
    2.5029   -3.5594    2.9495 H   0  0  0  0  0  0  0  0  0  0  0  0
    1.2167   -4.8350    1.7747 C   0  0  0  0  0  0  0  0  0  0  0  0
    1.4791   -5.7343    2.3142 H   0  0  0  0  0  0  0  0  0  0  0  0
    0.3002   -4.8969    0.7093 C   0  0  0  0  0  0  0  0  0  0  0  0
   -0.1409   -5.8425    0.4300 H   0  0  0  0  0  0  0  0  0  0  0  0
   -0.0360   -3.7280    0.0036 C   0  0  0  0  0  0  0  0  0  0  0  0
   -0.7387   -3.7775   -0.8180 H   0  0  0  0  0  0  0  0  0  0  0  0
   -1.1433    0.9748   -0.2979 C   0  0  0  0  0  0  0  0  0  0  0  0
   -2.2342    1.5428   -0.2284 O   0  0  0  0  0  0  0  0  0  0  0  0
   -0.0928    1.5142   -0.9292 N   0  0  0  0  0  0  0  0  0  0  0  0
    0.7497    0.9631   -0.9913 H   0  0  0  0  0  0  0  0  0  0  0  0
   -0.1143    2.8116   -1.6003 C   0  0  0  0  0  0  0  0  0  0  0  0
   -0.4932    3.5749   -0.9173 H   0  0  0  0  0  0  0  0  0  0  0  0
    0.8903    3.0855   -1.9236 H   0  0  0  0  0  0  0  0  0  0  0  0
   -0.7726    2.7645   -2.4699 H   0  0  0  0  0  0  0  0  0  0  0  0
  5  6  2  0  0  0  0
  5  7  1  0  0  0  0
  2  3  1  0  0  0  0
  2  4  1  0  0  0  0
  2  5  1  0  0  0  0
  1  2  1  0  0  0  0
 25 26  2  0  0  0  0
 25 27  1  0  0  0  0
 23 24  1  0  0  0  0
 21 22  1  0  0  0  0
 21 23  2  0  0  0  0
 19 20  1  0  0  0  0
 19 21  1  0  0  0  0
 17 18  1  0  0  0  0
 17 19  2  0  0  0  0
 15 16  1  0  0  0  0
 15 17  1  0  0  0  0
 14 15  2  0  0  0  0
 14 23  1  0  0  0  0
 11 12  1  0  0  0  0
 11 13  1  0  0  0  0
 11 14  1  0  0  0  0
  9 10  1  0  0  0  0
  9 11  1  0  0  0  0
  9 25  1  0  0  0  0
  7  8  1  0  0  0  0
  7  9  1  0  0  0  0
 29 30  1  0  0  0  0
 29 31  1  0  0  0  0
 29 32  1  0  0  0  0
 27 28  1  0  0  0  0
 27 29  1  0  0  0  0
M  END
$$$$
default_name
  -OEChem-01062215323D

 32 32  0     1  0  0  0  0  0999 V2000
   -3.8405   -3.7518    1.6252 H   0  0  0  0  0  0  0  0  0  0  0  0
   -3.7965   -2.8768    0.9782 C   0  0  0  0  0  0  0  0  0  0  0  0
   -4.5465   -2.1527    1.2902 H   0  0  0  0  0  0  0  0  0  0  0  0
   -3.9745   -3.1748   -0.0538 H   0  0  0  0  0  0  0  0  0  0  0  0
   -2.4245   -2.2537    1.0882 C   0  0  0  0  0  0  0  0  0  0  0  0
   -1.5805   -2.7478    1.8242 O   0  0  0  0  0  0  0  0  0  0  0  0
   -2.2045   -1.1637    0.3562 N   0  0  0  0  0  0  0  0  0  0  0  0
   -2.9595   -0.7907   -0.2008 H   0  0  0  0  0  0  0  0  0  0  0  0
   -0.9485   -0.4087    0.3482 C   0  0  1  0  0  0  0  0  0  0  0  0
   -0.6302   -0.2513    1.3800 H   0  0  0  0  0  0  0  0  0  0  0  0
    0.1340   -1.2307   -0.3723 C   0  0  0  0  0  0  0  0  0  0  0  0
   -0.2349   -1.5169   -1.3582 H   0  0  0  0  0  0  0  0  0  0  0  0
    1.0140   -0.6032   -0.5213 H   0  0  0  0  0  0  0  0  0  0  0  0
    0.5387   -2.4940    0.3633 C   0  0  0  0  0  0  0  0  0  0  0  0
    1.4567   -2.4358    1.4290 C   0  0  0  0  0  0  0  0  0  0  0  0
    1.8970   -1.4911    1.7152 H   0  0  0  0  0  0  0  0  0  0  0  0
    1.7958   -3.6059    2.1332 C   0  0  0  0  0  0  0  0  0  0  0  0
    2.5029   -3.5594    2.9495 H   0  0  0  0  0  0  0  0  0  0  0  0
    1.2167   -4.8350    1.7747 C   0  0  0  0  0  0  0  0  0  0  0  0
    1.4791   -5.7343    2.3142 H   0  0  0  0  0  0  0  0  0  0  0  0
    0.3002   -4.8969    0.7093 C   0  0  0  0  0  0  0  0  0  0  0  0
   -0.1409   -5.8425    0.4300 H   0  0  0  0  0  0  0  0  0  0  0  0
   -0.0360   -3.7280    0.0036 C   0  0  0  0  0  0  0  0  0  0  0  0
   -0.7387   -3.7775   -0.8180 H   0  0  0  0  0  0  0  0  0  0  0  0
   -1.1433    0.9748   -0.2979 C   0  0  0  0  0  0  0  0  0  0  0  0
   -2.1218    1.6631   -0.0044 O   0  0  0  0  0  0  0  0  0  0  0  0
   -0.2196    1.3799   -1.1786 N   0  0  0  0  0  0  0  0  0  0  0  0
    0.5224    0.7364   -1.4083 H   0  0  0  0  0  0  0  0  0  0  0  0
   -0.2617    2.6579   -1.8850 C   0  0  0  0  0  0  0  0  0  0  0  0
   -0.3879    3.4724   -1.1686 H   0  0  0  0  0  0  0  0  0  0  0  0
    0.6621    2.8105   -2.4437 H   0  0  0  0  0  0  0  0  0  0  0  0
   -1.1068    2.6678   -2.5761 H   0  0  0  0  0  0  0  0  0  0  0  0
  5  6  2  0  0  0  0
  5  7  1  0  0  0  0
  2  3  1  0  0  0  0
  2  4  1  0  0  0  0
  2  5  1  0  0  0  0
  1  2  1  0  0  0  0
 25 26  2  0  0  0  0
 25 27  1  0  0  0  0
 23 24  1  0  0  0  0
 21 22  1  0  0  0  0
 21 23  2  0  0  0  0
 19 20  1  0  0  0  0
 19 21  1  0  0  0  0
 17 18  1  0  0  0  0
 17 19  2  0  0  0  0
 15 16  1  0  0  0  0
 15 17  1  0  0  0  0
 14 15  2  0  0  0  0
 14 23  1  0  0  0  0
 11 12  1  0  0  0  0
 11 13  1  0  0  0  0
 11 14  1  0  0  0  0
  9 10  1  0  0  0  0
  9 11  1  0  0  0  0
  9 25  1  0  0  0  0
  7  8  1  0  0  0  0
  7  9  1  0  0  0  0
 29 30  1  0  0  0  0
 29 31  1  0  0  0  0
 29 32  1  0  0  0  0
 27 28  1  0  0  0  0
 27 29  1  0  0  0  0
M  END
$$$$
default_name
  -OEChem-01062215323D

 32 32  0     1  0  0  0  0  0999 V2000
   -3.8405   -3.7518    1.6252 H   0  0  0  0  0  0  0  0  0  0  0  0
   -3.7965   -2.8768    0.9782 C   0  0  0  0  0  0  0  0  0  0  0  0
   -4.5465   -2.1527    1.2902 H   0  0  0  0  0  0  0  0  0  0  0  0
   -3.9745   -3.1748   -0.0538 H   0  0  0  0  0  0  0  0  0  0  0  0
   -2.4245   -2.2537    1.0882 C   0  0  0  0  0  0  0  0  0  0  0  0
   -1.5805   -2.7478    1.8242 O   0  0  0  0  0  0  0  0  0  0  0  0
   -2.2045   -1.1637    0.3562 N   0  0  0  0  0  0  0  0  0  0  0  0
   -2.9595   -0.7907   -0.2008 H   0  0  0  0  0  0  0  0  0  0  0  0
   -0.9485   -0.4087    0.3482 C   0  0  1  0  0  0  0  0  0  0  0  0
   -0.6302   -0.2513    1.3800 H   0  0  0  0  0  0  0  0  0  0  0  0
    0.1340   -1.2307   -0.3723 C   0  0  0  0  0  0  0  0  0  0  0  0
   -0.2349   -1.5169   -1.3582 H   0  0  0  0  0  0  0  0  0  0  0  0
    1.0140   -0.6032   -0.5213 H   0  0  0  0  0  0  0  0  0  0  0  0
    0.5387   -2.4940    0.3633 C   0  0  0  0  0  0  0  0  0  0  0  0
    1.4567   -2.4358    1.4290 C   0  0  0  0  0  0  0  0  0  0  0  0
    1.8970   -1.4911    1.7152 H   0  0  0  0  0  0  0  0  0  0  0  0
    1.7958   -3.6059    2.1332 C   0  0  0  0  0  0  0  0  0  0  0  0
    2.5029   -3.5594    2.9495 H   0  0  0  0  0  0  0  0  0  0  0  0
    1.2167   -4.8350    1.7747 C   0  0  0  0  0  0  0  0  0  0  0  0
    1.4791   -5.7343    2.3142 H   0  0  0  0  0  0  0  0  0  0  0  0
    0.3002   -4.8969    0.7093 C   0  0  0  0  0  0  0  0  0  0  0  0
   -0.1409   -5.8425    0.4300 H   0  0  0  0  0  0  0  0  0  0  0  0
   -0.0360   -3.7280    0.0036 C   0  0  0  0  0  0  0  0  0  0  0  0
   -0.7387   -3.7775   -0.8180 H   0  0  0  0  0  0  0  0  0  0  0  0
   -1.1433    0.9748   -0.2979 C   0  0  0  0  0  0  0  0  0  0  0  0
   -1.9481    1.7746    0.1818 O   0  0  0  0  0  0  0  0  0  0  0  0
   -0.4146    1.2558   -1.3856 N   0  0  0  0  0  0  0  0  0  0  0  0
    0.1813    0.5285   -1.7507 H   0  0  0  0  0  0  0  0  0  0  0  0
   -0.4871    2.5161   -2.1207 C   0  0  0  0  0  0  0  0  0  0  0  0
   -0.3557    3.3537   -1.4324 H   0  0  0  0  0  0  0  0  0  0  0  0
    0.2908    2.5527   -2.8839 H   0  0  0  0  0  0  0  0  0  0  0  0
   -1.4648    2.6073   -2.5978 H   0  0  0  0  0  0  0  0  0  0  0  0
  5  6  2  0  0  0  0
  5  7  1  0  0  0  0
  2  3  1  0  0  0  0
  2  4  1  0  0  0  0
  2  5  1  0  0  0  0
  1  2  1  0  0  0  0
 25 26  2  0  0  0  0
 25 27  1  0  0  0  0
 23 24  1  0  0  0  0
 21 22  1  0  0  0  0
 21 23  2  0  0  0  0
 19 20  1  0  0  0  0
 19 21  1  0  0  0  0
 17 18  1  0  0  0  0
 17 19  2  0  0  0  0
 15 16  1  0  0  0  0
 15 17  1  0  0  0  0
 14 15  2  0  0  0  0
 14 23  1  0  0  0  0
 11 12  1  0  0  0  0
 11 13  1  0  0  0  0
 11 14  1  0  0  0  0
  9 10  1  0  0  0  0
  9 11  1  0  0  0  0
  9 25  1  0  0  0  0
  7  8  1  0  0  0  0
  7  9  1  0  0  0  0
 29 30  1  0  0  0  0
 29 31  1  0  0  0  0
 29 32  1  0  0  0  0
 27 28  1  0  0  0  0
 27 29  1  0  0  0  0
M  END
$$$$
default_name
  -OEChem-01062215323D

 32 32  0     1  0  0  0  0  0999 V2000
   -3.8405   -3.7518    1.6252 H   0  0  0  0  0  0  0  0  0  0  0  0
   -3.7965   -2.8768    0.9782 C   0  0  0  0  0  0  0  0  0  0  0  0
   -4.5465   -2.1527    1.2902 H   0  0  0  0  0  0  0  0  0  0  0  0
   -3.9745   -3.1748   -0.0538 H   0  0  0  0  0  0  0  0  0  0  0  0
   -2.4245   -2.2537    1.0882 C   0  0  0  0  0  0  0  0  0  0  0  0
   -1.5805   -2.7478    1.8242 O   0  0  0  0  0  0  0  0  0  0  0  0
   -2.2045   -1.1637    0.3562 N   0  0  0  0  0  0  0  0  0  0  0  0
   -2.9595   -0.7907   -0.2008 H   0  0  0  0  0  0  0  0  0  0  0  0
   -0.9485   -0.4087    0.3482 C   0  0  1  0  0  0  0  0  0  0  0  0
   -0.6302   -0.2513    1.3800 H   0  0  0  0  0  0  0  0  0  0  0  0
    0.1340   -1.2307   -0.3723 C   0  0  0  0  0  0  0  0  0  0  0  0
   -0.2349   -1.5169   -1.3582 H   0  0  0  0  0  0  0  0  0  0  0  0
    1.0140   -0.6032   -0.5213 H   0  0  0  0  0  0  0  0  0  0  0  0
    0.5387   -2.4940    0.3633 C   0  0  0  0  0  0  0  0  0  0  0  0
    1.4567   -2.4358    1.4290 C   0  0  0  0  0  0  0  0  0  0  0  0
    1.8970   -1.4911    1.7152 H   0  0  0  0  0  0  0  0  0  0  0  0
    1.7958   -3.6059    2.1332 C   0  0  0  0  0  0  0  0  0  0  0  0
    2.5029   -3.5594    2.9495 H   0  0  0  0  0  0  0  0  0  0  0  0
    1.2167   -4.8350    1.7747 C   0  0  0  0  0  0  0  0  0  0  0  0
    1.4791   -5.7343    2.3142 H   0  0  0  0  0  0  0  0  0  0  0  0
    0.3002   -4.8969    0.7093 C   0  0  0  0  0  0  0  0  0  0  0  0
   -0.1409   -5.8425    0.4300 H   0  0  0  0  0  0  0  0  0  0  0  0
   -0.0360   -3.7280    0.0036 C   0  0  0  0  0  0  0  0  0  0  0  0
   -0.7387   -3.7775   -0.8180 H   0  0  0  0  0  0  0  0  0  0  0  0
   -1.1433    0.9748   -0.2979 C   0  0  0  0  0  0  0  0  0  0  0  0
   -1.7249    1.8694    0.3176 O   0  0  0  0  0  0  0  0  0  0  0  0
   -0.6646    1.1503   -1.5360 N   0  0  0  0  0  0  0  0  0  0  0  0
   -0.2505    0.3535   -1.9953 H   0  0  0  0  0  0  0  0  0  0  0  0
   -0.7749    2.3959   -2.2913 C   0  0  0  0  0  0  0  0  0  0  0  0
   -0.3989    3.2269   -1.6908 H   0  0  0  0  0  0  0  0  0  0  0  0
   -0.1982    2.3295   -3.2143 H   0  0  0  0  0  0  0  0  0  0  0  0
   -1.8222    2.5870   -2.5335 H   0  0  0  0  0  0  0  0  0  0  0  0
  5  6  2  0  0  0  0
  5  7  1  0  0  0  0
  2  3  1  0  0  0  0
  2  4  1  0  0  0  0
  2  5  1  0  0  0  0
  1  2  1  0  0  0  0
 25 26  2  0  0  0  0
 25 27  1  0  0  0  0
 23 24  1  0  0  0  0
 21 22  1  0  0  0  0
 21 23  2  0  0  0  0
 19 20  1  0  0  0  0
 19 21  1  0  0  0  0
 17 18  1  0  0  0  0
 17 19  2  0  0  0  0
 15 16  1  0  0  0  0
 15 17  1  0  0  0  0
 14 15  2  0  0  0  0
 14 23  1  0  0  0  0
 11 12  1  0  0  0  0
 11 13  1  0  0  0  0
 11 14  1  0  0  0  0
  9 10  1  0  0  0  0
  9 11  1  0  0  0  0
  9 25  1  0  0  0  0
  7  8  1  0  0  0  0
  7  9  1  0  0  0  0
 29 30  1  0  0  0  0
 29 31  1  0  0  0  0
 29 32  1  0  0  0  0
 27 28  1  0  0  0  0
 27 29  1  0  0  0  0
M  END
$$$$
default_name
  -OEChem-01062215323D

 32 32  0     1  0  0  0  0  0999 V2000
   -3.8405   -3.7518    1.6252 H   0  0  0  0  0  0  0  0  0  0  0  0
   -3.7965   -2.8768    0.9782 C   0  0  0  0  0  0  0  0  0  0  0  0
   -4.5465   -2.1527    1.2902 H   0  0  0  0  0  0  0  0  0  0  0  0
   -3.9745   -3.1748   -0.0538 H   0  0  0  0  0  0  0  0  0  0  0  0
   -2.4245   -2.2537    1.0882 C   0  0  0  0  0  0  0  0  0  0  0  0
   -1.5805   -2.7478    1.8242 O   0  0  0  0  0  0  0  0  0  0  0  0
   -2.2045   -1.1637    0.3562 N   0  0  0  0  0  0  0  0  0  0  0  0
   -2.9595   -0.7907   -0.2008 H   0  0  0  0  0  0  0  0  0  0  0  0
   -0.9485   -0.4087    0.3482 C   0  0  1  0  0  0  0  0  0  0  0  0
   -0.6302   -0.2513    1.3800 H   0  0  0  0  0  0  0  0  0  0  0  0
    0.1340   -1.2307   -0.3723 C   0  0  0  0  0  0  0  0  0  0  0  0
   -0.2349   -1.5169   -1.3582 H   0  0  0  0  0  0  0  0  0  0  0  0
    1.0140   -0.6032   -0.5213 H   0  0  0  0  0  0  0  0  0  0  0  0
    0.5387   -2.4940    0.3633 C   0  0  0  0  0  0  0  0  0  0  0  0
    1.4567   -2.4358    1.4290 C   0  0  0  0  0  0  0  0  0  0  0  0
    1.8970   -1.4911    1.7152 H   0  0  0  0  0  0  0  0  0  0  0  0
    1.7958   -3.6059    2.1332 C   0  0  0  0  0  0  0  0  0  0  0  0
    2.5029   -3.5594    2.9495 H   0  0  0  0  0  0  0  0  0  0  0  0
    1.2167   -4.8350    1.7747 C   0  0  0  0  0  0  0  0  0  0  0  0
    1.4791   -5.7343    2.3142 H   0  0  0  0  0  0  0  0  0  0  0  0
    0.3002   -4.8969    0.7093 C   0  0  0  0  0  0  0  0  0  0  0  0
   -0.1409   -5.8425    0.4300 H   0  0  0  0  0  0  0  0  0  0  0  0
   -0.0360   -3.7280    0.0036 C   0  0  0  0  0  0  0  0  0  0  0  0
   -0.7387   -3.7775   -0.8180 H   0  0  0  0  0  0  0  0  0  0  0  0
   -1.1433    0.9748   -0.2979 C   0  0  0  0  0  0  0  0  0  0  0  0
   -1.4674    1.9412    0.3938 O   0  0  0  0  0  0  0  0  0  0  0  0
   -0.9525    1.0707   -1.6198 N   0  0  0  0  0  0  0  0  0  0  0  0
   -0.7434    0.2233   -2.1254 H   0  0  0  0  0  0  0  0  0  0  0  0
   -1.1058    2.3055   -2.3852 C   0  0  0  0  0  0  0  0  0  0  0  0
   -0.5145    3.1007   -1.9263 H   0  0  0  0  0  0  0  0  0  0  0  0
   -0.7717    2.1563   -3.4123 H   0  0  0  0  0  0  0  0  0  0  0  0
   -2.1546    2.6084   -2.3876 H   0  0  0  0  0  0  0  0  0  0  0  0
  5  6  2  0  0  0  0
  5  7  1  0  0  0  0
  2  3  1  0  0  0  0
  2  4  1  0  0  0  0
  2  5  1  0  0  0  0
  1  2  1  0  0  0  0
 25 26  2  0  0  0  0
 25 27  1  0  0  0  0
 23 24  1  0  0  0  0
 21 22  1  0  0  0  0
 21 23  2  0  0  0  0
 19 20  1  0  0  0  0
 19 21  1  0  0  0  0
 17 18  1  0  0  0  0
 17 19  2  0  0  0  0
 15 16  1  0  0  0  0
 15 17  1  0  0  0  0
 14 15  2  0  0  0  0
 14 23  1  0  0  0  0
 11 12  1  0  0  0  0
 11 13  1  0  0  0  0
 11 14  1  0  0  0  0
  9 10  1  0  0  0  0
  9 11  1  0  0  0  0
  9 25  1  0  0  0  0
  7  8  1  0  0  0  0
  7  9  1  0  0  0  0
 29 30  1  0  0  0  0
 29 31  1  0  0  0  0
 29 32  1  0  0  0  0
 27 28  1  0  0  0  0
 27 29  1  0  0  0  0
M  END
$$$$
default_name
  -OEChem-01062215323D

 32 32  0     1  0  0  0  0  0999 V2000
   -3.8405   -3.7518    1.6252 H   0  0  0  0  0  0  0  0  0  0  0  0
   -3.7965   -2.8768    0.9782 C   0  0  0  0  0  0  0  0  0  0  0  0
   -4.5465   -2.1527    1.2902 H   0  0  0  0  0  0  0  0  0  0  0  0
   -3.9745   -3.1748   -0.0538 H   0  0  0  0  0  0  0  0  0  0  0  0
   -2.4245   -2.2537    1.0882 C   0  0  0  0  0  0  0  0  0  0  0  0
   -1.5805   -2.7478    1.8242 O   0  0  0  0  0  0  0  0  0  0  0  0
   -2.2045   -1.1637    0.3562 N   0  0  0  0  0  0  0  0  0  0  0  0
   -2.9595   -0.7907   -0.2008 H   0  0  0  0  0  0  0  0  0  0  0  0
   -0.9485   -0.4087    0.3482 C   0  0  1  0  0  0  0  0  0  0  0  0
   -0.6302   -0.2513    1.3800 H   0  0  0  0  0  0  0  0  0  0  0  0
    0.1340   -1.2307   -0.3723 C   0  0  0  0  0  0  0  0  0  0  0  0
   -0.2349   -1.5169   -1.3582 H   0  0  0  0  0  0  0  0  0  0  0  0
    1.0140   -0.6032   -0.5213 H   0  0  0  0  0  0  0  0  0  0  0  0
    0.5387   -2.4940    0.3633 C   0  0  0  0  0  0  0  0  0  0  0  0
    1.4567   -2.4358    1.4290 C   0  0  0  0  0  0  0  0  0  0  0  0
    1.8970   -1.4911    1.7152 H   0  0  0  0  0  0  0  0  0  0  0  0
    1.7958   -3.6059    2.1332 C   0  0  0  0  0  0  0  0  0  0  0  0
    2.5029   -3.5594    2.9495 H   0  0  0  0  0  0  0  0  0  0  0  0
    1.2167   -4.8350    1.7747 C   0  0  0  0  0  0  0  0  0  0  0  0
    1.4791   -5.7343    2.3142 H   0  0  0  0  0  0  0  0  0  0  0  0
    0.3002   -4.8969    0.7093 C   0  0  0  0  0  0  0  0  0  0  0  0
   -0.1409   -5.8425    0.4300 H   0  0  0  0  0  0  0  0  0  0  0  0
   -0.0360   -3.7280    0.0036 C   0  0  0  0  0  0  0  0  0  0  0  0
   -0.7387   -3.7775   -0.8180 H   0  0  0  0  0  0  0  0  0  0  0  0
   -1.1433    0.9748   -0.2979 C   0  0  0  0  0  0  0  0  0  0  0  0
   -1.1931    1.9851    0.4051 O   0  0  0  0  0  0  0  0  0  0  0  0
   -1.2588    1.0223   -1.6311 N   0  0  0  0  0  0  0  0  0  0  0  0
   -1.2640    0.1469   -2.1321 H   0  0  0  0  0  0  0  0  0  0  0  0
   -1.4570    2.2511   -2.3960 C   0  0  0  0  0  0  0  0  0  0  0  0
   -0.6946    2.9837   -2.1227 H   0  0  0  0  0  0  0  0  0  0  0  0
   -1.3905    2.0448   -3.4645 H   0  0  0  0  0  0  0  0  0  0  0  0
   -2.4395    2.6699   -2.1700 H   0  0  0  0  0  0  0  0  0  0  0  0
  5  6  2  0  0  0  0
  5  7  1  0  0  0  0
  2  3  1  0  0  0  0
  2  4  1  0  0  0  0
  2  5  1  0  0  0  0
  1  2  1  0  0  0  0
 25 26  2  0  0  0  0
 25 27  1  0  0  0  0
 23 24  1  0  0  0  0
 21 22  1  0  0  0  0
 21 23  2  0  0  0  0
 19 20  1  0  0  0  0
 19 21  1  0  0  0  0
 17 18  1  0  0  0  0
 17 19  2  0  0  0  0
 15 16  1  0  0  0  0
 15 17  1  0  0  0  0
 14 15  2  0  0  0  0
 14 23  1  0  0  0  0
 11 12  1  0  0  0  0
 11 13  1  0  0  0  0
 11 14  1  0  0  0  0
  9 10  1  0  0  0  0
  9 11  1  0  0  0  0
  9 25  1  0  0  0  0
  7  8  1  0  0  0  0
  7  9  1  0  0  0  0
 29 30  1  0  0  0  0
 29 31  1  0  0  0  0
 29 32  1  0  0  0  0
 27 28  1  0  0  0  0
 27 29  1  0  0  0  0
M  END
$$$$
default_name
  -OEChem-01062215323D

 32 32  0     1  0  0  0  0  0999 V2000
   -3.8405   -3.7518    1.6252 H   0  0  0  0  0  0  0  0  0  0  0  0
   -3.7965   -2.8768    0.9782 C   0  0  0  0  0  0  0  0  0  0  0  0
   -4.5465   -2.1527    1.2902 H   0  0  0  0  0  0  0  0  0  0  0  0
   -3.9745   -3.1748   -0.0538 H   0  0  0  0  0  0  0  0  0  0  0  0
   -2.4245   -2.2537    1.0882 C   0  0  0  0  0  0  0  0  0  0  0  0
   -1.5805   -2.7478    1.8242 O   0  0  0  0  0  0  0  0  0  0  0  0
   -2.2045   -1.1637    0.3562 N   0  0  0  0  0  0  0  0  0  0  0  0
   -2.9595   -0.7907   -0.2008 H   0  0  0  0  0  0  0  0  0  0  0  0
   -0.9485   -0.4087    0.3482 C   0  0  1  0  0  0  0  0  0  0  0  0
   -0.6302   -0.2513    1.3800 H   0  0  0  0  0  0  0  0  0  0  0  0
    0.1340   -1.2307   -0.3723 C   0  0  0  0  0  0  0  0  0  0  0  0
   -0.2349   -1.5169   -1.3582 H   0  0  0  0  0  0  0  0  0  0  0  0
    1.0140   -0.6032   -0.5213 H   0  0  0  0  0  0  0  0  0  0  0  0
    0.5387   -2.4940    0.3633 C   0  0  0  0  0  0  0  0  0  0  0  0
    1.4567   -2.4358    1.4290 C   0  0  0  0  0  0  0  0  0  0  0  0
    1.8970   -1.4911    1.7152 H   0  0  0  0  0  0  0  0  0  0  0  0
    1.7958   -3.6059    2.1332 C   0  0  0  0  0  0  0  0  0  0  0  0
    2.5029   -3.5594    2.9495 H   0  0  0  0  0  0  0  0  0  0  0  0
    1.2167   -4.8350    1.7747 C   0  0  0  0  0  0  0  0  0  0  0  0
    1.4791   -5.7343    2.3142 H   0  0  0  0  0  0  0  0  0  0  0  0
    0.3002   -4.8969    0.7093 C   0  0  0  0  0  0  0  0  0  0  0  0
   -0.1409   -5.8425    0.4300 H   0  0  0  0  0  0  0  0  0  0  0  0
   -0.0360   -3.7280    0.0036 C   0  0  0  0  0  0  0  0  0  0  0  0
   -0.7387   -3.7775   -0.8180 H   0  0  0  0  0  0  0  0  0  0  0  0
   -1.1433    0.9748   -0.2979 C   0  0  0  0  0  0  0  0  0  0  0  0
   -0.9208    1.9981    0.3508 O   0  0  0  0  0  0  0  0  0  0  0  0
   -1.5625    1.0084   -1.5692 N   0  0  0  0  0  0  0  0  0  0  0  0
   -1.7767    0.1294   -2.0150 H   0  0  0  0  0  0  0  0  0  0  0  0
   -1.8046    2.2362   -2.3229 C   0  0  0  0  0  0  0  0  0  0  0  0
   -0.9271    2.8837   -2.2666 H   0  0  0  0  0  0  0  0  0  0  0  0
   -2.0125    2.0026   -3.3674 H   0  0  0  0  0  0  0  0  0  0  0  0
   -2.6574    2.7673   -1.8956 H   0  0  0  0  0  0  0  0  0  0  0  0
  5  6  2  0  0  0  0
  5  7  1  0  0  0  0
  2  3  1  0  0  0  0
  2  4  1  0  0  0  0
  2  5  1  0  0  0  0
  1  2  1  0  0  0  0
 25 26  2  0  0  0  0
 25 27  1  0  0  0  0
 23 24  1  0  0  0  0
 21 22  1  0  0  0  0
 21 23  2  0  0  0  0
 19 20  1  0  0  0  0
 19 21  1  0  0  0  0
 17 18  1  0  0  0  0
 17 19  2  0  0  0  0
 15 16  1  0  0  0  0
 15 17  1  0  0  0  0
 14 15  2  0  0  0  0
 14 23  1  0  0  0  0
 11 12  1  0  0  0  0
 11 13  1  0  0  0  0
 11 14  1  0  0  0  0
  9 10  1  0  0  0  0
  9 11  1  0  0  0  0
  9 25  1  0  0  0  0
  7  8  1  0  0  0  0
  7  9  1  0  0  0  0
 29 30  1  0  0  0  0
 29 31  1  0  0  0  0
 29 32  1  0  0  0  0
 27 28  1  0  0  0  0
 27 29  1  0  0  0  0
M  END
$$$$
default_name
  -OEChem-01062215323D

 32 32  0     1  0  0  0  0  0999 V2000
   -3.8405   -3.7518    1.6252 H   0  0  0  0  0  0  0  0  0  0  0  0
   -3.7965   -2.8768    0.9782 C   0  0  0  0  0  0  0  0  0  0  0  0
   -4.5465   -2.1527    1.2902 H   0  0  0  0  0  0  0  0  0  0  0  0
   -3.9745   -3.1748   -0.0538 H   0  0  0  0  0  0  0  0  0  0  0  0
   -2.4245   -2.2537    1.0882 C   0  0  0  0  0  0  0  0  0  0  0  0
   -1.5805   -2.7478    1.8242 O   0  0  0  0  0  0  0  0  0  0  0  0
   -2.2045   -1.1637    0.3562 N   0  0  0  0  0  0  0  0  0  0  0  0
   -2.9595   -0.7907   -0.2008 H   0  0  0  0  0  0  0  0  0  0  0  0
   -0.9485   -0.4087    0.3482 C   0  0  1  0  0  0  0  0  0  0  0  0
   -0.6302   -0.2513    1.3800 H   0  0  0  0  0  0  0  0  0  0  0  0
    0.1340   -1.2307   -0.3723 C   0  0  0  0  0  0  0  0  0  0  0  0
   -0.2349   -1.5169   -1.3582 H   0  0  0  0  0  0  0  0  0  0  0  0
    1.0140   -0.6032   -0.5213 H   0  0  0  0  0  0  0  0  0  0  0  0
    0.5387   -2.4940    0.3633 C   0  0  0  0  0  0  0  0  0  0  0  0
    1.4567   -2.4358    1.4290 C   0  0  0  0  0  0  0  0  0  0  0  0
    1.8970   -1.4911    1.7152 H   0  0  0  0  0  0  0  0  0  0  0  0
    1.7958   -3.6059    2.1332 C   0  0  0  0  0  0  0  0  0  0  0  0
    2.5029   -3.5594    2.9495 H   0  0  0  0  0  0  0  0  0  0  0  0
    1.2167   -4.8350    1.7747 C   0  0  0  0  0  0  0  0  0  0  0  0
    1.4791   -5.7343    2.3142 H   0  0  0  0  0  0  0  0  0  0  0  0
    0.3002   -4.8969    0.7093 C   0  0  0  0  0  0  0  0  0  0  0  0
   -0.1409   -5.8425    0.4300 H   0  0  0  0  0  0  0  0  0  0  0  0
   -0.0360   -3.7280    0.0036 C   0  0  0  0  0  0  0  0  0  0  0  0
   -0.7387   -3.7775   -0.8180 H   0  0  0  0  0  0  0  0  0  0  0  0
   -1.1433    0.9748   -0.2979 C   0  0  0  0  0  0  0  0  0  0  0  0
   -0.6690    1.9793    0.2345 O   0  0  0  0  0  0  0  0  0  0  0  0
   -1.8429    1.0300   -1.4383 N   0  0  0  0  0  0  0  0  0  0  0  0
   -2.2465    0.1720   -1.7821 H   0  0  0  0  0  0  0  0  0  0  0  0
   -2.1251    2.2621   -2.1709 C   0  0  0  0  0  0  0  0  0  0  0  0
   -1.1959    2.8077   -2.3483 H   0  0  0  0  0  0  0  0  0  0  0  0
   -2.5953    2.0326   -3.1275 H   0  0  0  0  0  0  0  0  0  0  0  0
   -2.7934    2.8941   -1.5830 H   0  0  0  0  0  0  0  0  0  0  0  0
  5  6  2  0  0  0  0
  5  7  1  0  0  0  0
  2  3  1  0  0  0  0
  2  4  1  0  0  0  0
  2  5  1  0  0  0  0
  1  2  1  0  0  0  0
 25 26  2  0  0  0  0
 25 27  1  0  0  0  0
 23 24  1  0  0  0  0
 21 22  1  0  0  0  0
 21 23  2  0  0  0  0
 19 20  1  0  0  0  0
 19 21  1  0  0  0  0
 17 18  1  0  0  0  0
 17 19  2  0  0  0  0
 15 16  1  0  0  0  0
 15 17  1  0  0  0  0
 14 15  2  0  0  0  0
 14 23  1  0  0  0  0
 11 12  1  0  0  0  0
 11 13  1  0  0  0  0
 11 14  1  0  0  0  0
  9 10  1  0  0  0  0
  9 11  1  0  0  0  0
  9 25  1  0  0  0  0
  7  8  1  0  0  0  0
  7  9  1  0  0  0  0
 29 30  1  0  0  0  0
 29 31  1  0  0  0  0
 29 32  1  0  0  0  0
 27 28  1  0  0  0  0
 27 29  1  0  0  0  0
M  END
$$$$
default_name
  -OEChem-01062215323D

 32 32  0     1  0  0  0  0  0999 V2000
   -3.8405   -3.7518    1.6252 H   0  0  0  0  0  0  0  0  0  0  0  0
   -3.7965   -2.8768    0.9782 C   0  0  0  0  0  0  0  0  0  0  0  0
   -4.5465   -2.1527    1.2902 H   0  0  0  0  0  0  0  0  0  0  0  0
   -3.9745   -3.1748   -0.0538 H   0  0  0  0  0  0  0  0  0  0  0  0
   -2.4245   -2.2537    1.0882 C   0  0  0  0  0  0  0  0  0  0  0  0
   -1.5805   -2.7478    1.8242 O   0  0  0  0  0  0  0  0  0  0  0  0
   -2.2045   -1.1637    0.3562 N   0  0  0  0  0  0  0  0  0  0  0  0
   -2.9595   -0.7907   -0.2008 H   0  0  0  0  0  0  0  0  0  0  0  0
   -0.9485   -0.4087    0.3482 C   0  0  1  0  0  0  0  0  0  0  0  0
   -0.6302   -0.2513    1.3800 H   0  0  0  0  0  0  0  0  0  0  0  0
    0.1340   -1.2307   -0.3723 C   0  0  0  0  0  0  0  0  0  0  0  0
   -0.2349   -1.5169   -1.3582 H   0  0  0  0  0  0  0  0  0  0  0  0
    1.0140   -0.6032   -0.5213 H   0  0  0  0  0  0  0  0  0  0  0  0
    0.5387   -2.4940    0.3633 C   0  0  0  0  0  0  0  0  0  0  0  0
    1.4567   -2.4358    1.4290 C   0  0  0  0  0  0  0  0  0  0  0  0
    1.8970   -1.4911    1.7152 H   0  0  0  0  0  0  0  0  0  0  0  0
    1.7958   -3.6059    2.1332 C   0  0  0  0  0  0  0  0  0  0  0  0
    2.5029   -3.5594    2.9495 H   0  0  0  0  0  0  0  0  0  0  0  0
    1.2167   -4.8350    1.7747 C   0  0  0  0  0  0  0  0  0  0  0  0
    1.4791   -5.7343    2.3142 H   0  0  0  0  0  0  0  0  0  0  0  0
    0.3002   -4.8969    0.7093 C   0  0  0  0  0  0  0  0  0  0  0  0
   -0.1409   -5.8425    0.4300 H   0  0  0  0  0  0  0  0  0  0  0  0
   -0.0360   -3.7280    0.0036 C   0  0  0  0  0  0  0  0  0  0  0  0
   -0.7387   -3.7775   -0.8180 H   0  0  0  0  0  0  0  0  0  0  0  0
   -1.1433    0.9748   -0.2979 C   0  0  0  0  0  0  0  0  0  0  0  0
   -0.4549    1.9299    0.0643 O   0  0  0  0  0  0  0  0  0  0  0  0
   -2.0810    1.0857   -1.2473 N   0  0  0  0  0  0  0  0  0  0  0  0
   -2.6416    0.2718   -1.4491 H   0  0  0  0  0  0  0  0  0  0  0  0
   -2.3964    2.3268   -1.9504 C   0  0  0  0  0  0  0  0  0  0  0  0
   -1.4828    2.7608   -2.3622 H   0  0  0  0  0  0  0  0  0  0  0  0
   -3.0992    2.1327   -2.7611 H   0  0  0  0  0  0  0  0  0  0  0  0
   -2.8383    3.0416   -1.2536 H   0  0  0  0  0  0  0  0  0  0  0  0
  5  6  2  0  0  0  0
  5  7  1  0  0  0  0
  2  3  1  0  0  0  0
  2  4  1  0  0  0  0
  2  5  1  0  0  0  0
  1  2  1  0  0  0  0
 25 26  2  0  0  0  0
 25 27  1  0  0  0  0
 23 24  1  0  0  0  0
 21 22  1  0  0  0  0
 21 23  2  0  0  0  0
 19 20  1  0  0  0  0
 19 21  1  0  0  0  0
 17 18  1  0  0  0  0
 17 19  2  0  0  0  0
 15 16  1  0  0  0  0
 15 17  1  0  0  0  0
 14 15  2  0  0  0  0
 14 23  1  0  0  0  0
 11 12  1  0  0  0  0
 11 13  1  0  0  0  0
 11 14  1  0  0  0  0
  9 10  1  0  0  0  0
  9 11  1  0  0  0  0
  9 25  1  0  0  0  0
  7  8  1  0  0  0  0
  7  9  1  0  0  0  0
 29 30  1  0  0  0  0
 29 31  1  0  0  0  0
 29 32  1  0  0  0  0
 27 28  1  0  0  0  0
 27 29  1  0  0  0  0
M  END
$$$$
default_name
  -OEChem-01062215323D

 32 32  0     1  0  0  0  0  0999 V2000
   -3.8405   -3.7518    1.6252 H   0  0  0  0  0  0  0  0  0  0  0  0
   -3.7965   -2.8768    0.9782 C   0  0  0  0  0  0  0  0  0  0  0  0
   -4.5465   -2.1527    1.2902 H   0  0  0  0  0  0  0  0  0  0  0  0
   -3.9745   -3.1748   -0.0538 H   0  0  0  0  0  0  0  0  0  0  0  0
   -2.4245   -2.2537    1.0882 C   0  0  0  0  0  0  0  0  0  0  0  0
   -1.5805   -2.7478    1.8242 O   0  0  0  0  0  0  0  0  0  0  0  0
   -2.2045   -1.1637    0.3562 N   0  0  0  0  0  0  0  0  0  0  0  0
   -2.9595   -0.7907   -0.2008 H   0  0  0  0  0  0  0  0  0  0  0  0
   -0.9485   -0.4087    0.3482 C   0  0  1  0  0  0  0  0  0  0  0  0
   -0.6302   -0.2513    1.3800 H   0  0  0  0  0  0  0  0  0  0  0  0
    0.1340   -1.2307   -0.3723 C   0  0  0  0  0  0  0  0  0  0  0  0
   -0.2349   -1.5169   -1.3582 H   0  0  0  0  0  0  0  0  0  0  0  0
    1.0140   -0.6032   -0.5213 H   0  0  0  0  0  0  0  0  0  0  0  0
    0.5387   -2.4940    0.3633 C   0  0  0  0  0  0  0  0  0  0  0  0
    1.4567   -2.4358    1.4290 C   0  0  0  0  0  0  0  0  0  0  0  0
    1.8970   -1.4911    1.7152 H   0  0  0  0  0  0  0  0  0  0  0  0
    1.7958   -3.6059    2.1332 C   0  0  0  0  0  0  0  0  0  0  0  0
    2.5029   -3.5594    2.9495 H   0  0  0  0  0  0  0  0  0  0  0  0
    1.2167   -4.8350    1.7747 C   0  0  0  0  0  0  0  0  0  0  0  0
    1.4791   -5.7343    2.3142 H   0  0  0  0  0  0  0  0  0  0  0  0
    0.3002   -4.8969    0.7093 C   0  0  0  0  0  0  0  0  0  0  0  0
   -0.1409   -5.8425    0.4300 H   0  0  0  0  0  0  0  0  0  0  0  0
   -0.0360   -3.7280    0.0036 C   0  0  0  0  0  0  0  0  0  0  0  0
   -0.7387   -3.7775   -0.8180 H   0  0  0  0  0  0  0  0  0  0  0  0
   -1.1433    0.9748   -0.2979 C   0  0  0  0  0  0  0  0  0  0  0  0
   -0.2930    1.8534   -0.1483 O   0  0  0  0  0  0  0  0  0  0  0  0
   -2.2606    1.1716   -1.0093 N   0  0  0  0  0  0  0  0  0  0  0  0
   -2.9349    0.4221   -1.0389 H   0  0  0  0  0  0  0  0  0  0  0  0
   -2.6002    2.4261   -1.6765 C   0  0  0  0  0  0  0  0  0  0  0  0
   -1.7683    2.7462   -2.3074 H   0  0  0  0  0  0  0  0  0  0  0  0
   -3.4898    2.2961   -2.2933 H   0  0  0  0  0  0  0  0  0  0  0  0
   -2.7890    3.1998   -0.9298 H   0  0  0  0  0  0  0  0  0  0  0  0
  5  6  2  0  0  0  0
  5  7  1  0  0  0  0
  2  3  1  0  0  0  0
  2  4  1  0  0  0  0
  2  5  1  0  0  0  0
  1  2  1  0  0  0  0
 25 26  2  0  0  0  0
 25 27  1  0  0  0  0
 23 24  1  0  0  0  0
 21 22  1  0  0  0  0
 21 23  2  0  0  0  0
 19 20  1  0  0  0  0
 19 21  1  0  0  0  0
 17 18  1  0  0  0  0
 17 19  2  0  0  0  0
 15 16  1  0  0  0  0
 15 17  1  0  0  0  0
 14 15  2  0  0  0  0
 14 23  1  0  0  0  0
 11 12  1  0  0  0  0
 11 13  1  0  0  0  0
 11 14  1  0  0  0  0
  9 10  1  0  0  0  0
  9 11  1  0  0  0  0
  9 25  1  0  0  0  0
  7  8  1  0  0  0  0
  7  9  1  0  0  0  0
 29 30  1  0  0  0  0
 29 31  1  0  0  0  0
 29 32  1  0  0  0  0
 27 28  1  0  0  0  0
 27 29  1  0  0  0  0
M  END
$$$$
default_name
  -OEChem-01062215323D

 32 32  0     1  0  0  0  0  0999 V2000
   -3.8405   -3.7518    1.6252 H   0  0  0  0  0  0  0  0  0  0  0  0
   -3.7965   -2.8768    0.9782 C   0  0  0  0  0  0  0  0  0  0  0  0
   -4.5465   -2.1527    1.2902 H   0  0  0  0  0  0  0  0  0  0  0  0
   -3.9745   -3.1748   -0.0538 H   0  0  0  0  0  0  0  0  0  0  0  0
   -2.4245   -2.2537    1.0882 C   0  0  0  0  0  0  0  0  0  0  0  0
   -1.5805   -2.7478    1.8242 O   0  0  0  0  0  0  0  0  0  0  0  0
   -2.2045   -1.1637    0.3562 N   0  0  0  0  0  0  0  0  0  0  0  0
   -2.9595   -0.7907   -0.2008 H   0  0  0  0  0  0  0  0  0  0  0  0
   -0.9485   -0.4087    0.3482 C   0  0  1  0  0  0  0  0  0  0  0  0
   -0.6302   -0.2513    1.3800 H   0  0  0  0  0  0  0  0  0  0  0  0
    0.1340   -1.2307   -0.3723 C   0  0  0  0  0  0  0  0  0  0  0  0
   -0.2349   -1.5169   -1.3582 H   0  0  0  0  0  0  0  0  0  0  0  0
    1.0140   -0.6032   -0.5213 H   0  0  0  0  0  0  0  0  0  0  0  0
    0.5387   -2.4940    0.3633 C   0  0  0  0  0  0  0  0  0  0  0  0
    1.4567   -2.4358    1.4290 C   0  0  0  0  0  0  0  0  0  0  0  0
    1.8970   -1.4911    1.7152 H   0  0  0  0  0  0  0  0  0  0  0  0
    1.7958   -3.6059    2.1332 C   0  0  0  0  0  0  0  0  0  0  0  0
    2.5029   -3.5594    2.9495 H   0  0  0  0  0  0  0  0  0  0  0  0
    1.2167   -4.8350    1.7747 C   0  0  0  0  0  0  0  0  0  0  0  0
    1.4791   -5.7343    2.3142 H   0  0  0  0  0  0  0  0  0  0  0  0
    0.3002   -4.8969    0.7093 C   0  0  0  0  0  0  0  0  0  0  0  0
   -0.1409   -5.8425    0.4300 H   0  0  0  0  0  0  0  0  0  0  0  0
   -0.0360   -3.7280    0.0036 C   0  0  0  0  0  0  0  0  0  0  0  0
   -0.7387   -3.7775   -0.8180 H   0  0  0  0  0  0  0  0  0  0  0  0
   -1.1433    0.9748   -0.2979 C   0  0  0  0  0  0  0  0  0  0  0  0
   -0.1944    1.7550   -0.3888 O   0  0  0  0  0  0  0  0  0  0  0  0
   -2.3693    1.2818   -0.7404 N   0  0  0  0  0  0  0  0  0  0  0  0
   -3.1064    0.6125   -0.5794 H   0  0  0  0  0  0  0  0  0  0  0  0
   -2.7225    2.5530   -1.3677 C   0  0  0  0  0  0  0  0  0  0  0  0
   -2.0329    2.7650   -2.1875 H   0  0  0  0  0  0  0  0  0  0  0  0
   -3.7405    2.5118   -1.7560 H   0  0  0  0  0  0  0  0  0  0  0  0
   -2.6489    3.3578   -0.6336 H   0  0  0  0  0  0  0  0  0  0  0  0
  5  6  2  0  0  0  0
  5  7  1  0  0  0  0
  2  3  1  0  0  0  0
  2  4  1  0  0  0  0
  2  5  1  0  0  0  0
  1  2  1  0  0  0  0
 25 26  2  0  0  0  0
 25 27  1  0  0  0  0
 23 24  1  0  0  0  0
 21 22  1  0  0  0  0
 21 23  2  0  0  0  0
 19 20  1  0  0  0  0
 19 21  1  0  0  0  0
 17 18  1  0  0  0  0
 17 19  2  0  0  0  0
 15 16  1  0  0  0  0
 15 17  1  0  0  0  0
 14 15  2  0  0  0  0
 14 23  1  0  0  0  0
 11 12  1  0  0  0  0
 11 13  1  0  0  0  0
 11 14  1  0  0  0  0
  9 10  1  0  0  0  0
  9 11  1  0  0  0  0
  9 25  1  0  0  0  0
  7  8  1  0  0  0  0
  7  9  1  0  0  0  0
 29 30  1  0  0  0  0
 29 31  1  0  0  0  0
 29 32  1  0  0  0  0
 27 28  1  0  0  0  0
 27 29  1  0  0  0  0
M  END
$$$$
default_name
  -OEChem-01062215323D

 32 32  0     1  0  0  0  0  0999 V2000
   -3.8405   -3.7518    1.6252 H   0  0  0  0  0  0  0  0  0  0  0  0
   -3.7965   -2.8768    0.9782 C   0  0  0  0  0  0  0  0  0  0  0  0
   -4.5465   -2.1527    1.2902 H   0  0  0  0  0  0  0  0  0  0  0  0
   -3.9745   -3.1748   -0.0538 H   0  0  0  0  0  0  0  0  0  0  0  0
   -2.4245   -2.2537    1.0882 C   0  0  0  0  0  0  0  0  0  0  0  0
   -1.5805   -2.7478    1.8242 O   0  0  0  0  0  0  0  0  0  0  0  0
   -2.2045   -1.1637    0.3562 N   0  0  0  0  0  0  0  0  0  0  0  0
   -2.9595   -0.7907   -0.2008 H   0  0  0  0  0  0  0  0  0  0  0  0
   -0.9485   -0.4087    0.3482 C   0  0  1  0  0  0  0  0  0  0  0  0
   -0.6302   -0.2513    1.3800 H   0  0  0  0  0  0  0  0  0  0  0  0
    0.1340   -1.2307   -0.3723 C   0  0  0  0  0  0  0  0  0  0  0  0
   -0.2349   -1.5169   -1.3582 H   0  0  0  0  0  0  0  0  0  0  0  0
    1.0140   -0.6032   -0.5213 H   0  0  0  0  0  0  0  0  0  0  0  0
    0.5387   -2.4940    0.3633 C   0  0  0  0  0  0  0  0  0  0  0  0
    1.4567   -2.4358    1.4290 C   0  0  0  0  0  0  0  0  0  0  0  0
    1.8970   -1.4911    1.7152 H   0  0  0  0  0  0  0  0  0  0  0  0
    1.7958   -3.6059    2.1332 C   0  0  0  0  0  0  0  0  0  0  0  0
    2.5029   -3.5594    2.9495 H   0  0  0  0  0  0  0  0  0  0  0  0
    1.2167   -4.8350    1.7747 C   0  0  0  0  0  0  0  0  0  0  0  0
    1.4791   -5.7343    2.3142 H   0  0  0  0  0  0  0  0  0  0  0  0
    0.3002   -4.8969    0.7093 C   0  0  0  0  0  0  0  0  0  0  0  0
   -0.1409   -5.8425    0.4300 H   0  0  0  0  0  0  0  0  0  0  0  0
   -0.0360   -3.7280    0.0036 C   0  0  0  0  0  0  0  0  0  0  0  0
   -0.7387   -3.7775   -0.8180 H   0  0  0  0  0  0  0  0  0  0  0  0
   -1.1433    0.9748   -0.2979 C   0  0  0  0  0  0  0  0  0  0  0  0
   -0.1658    1.6413   -0.6409 O   0  0  0  0  0  0  0  0  0  0  0  0
   -2.3997    1.4089   -0.4590 N   0  0  0  0  0  0  0  0  0  0  0  0
   -3.1446    0.8302   -0.1018 H   0  0  0  0  0  0  0  0  0  0  0  0
   -2.7550    2.6991   -1.0451 C   0  0  0  0  0  0  0  0  0  0  0  0
   -2.2585    2.8157   -2.0107 H   0  0  0  0  0  0  0  0  0  0  0  0
   -3.8343    2.7649   -1.1856 H   0  0  0  0  0  0  0  0  0  0  0  0
   -2.4275    3.5049   -0.3854 H   0  0  0  0  0  0  0  0  0  0  0  0
  5  6  2  0  0  0  0
  5  7  1  0  0  0  0
  2  3  1  0  0  0  0
  2  4  1  0  0  0  0
  2  5  1  0  0  0  0
  1  2  1  0  0  0  0
 25 26  2  0  0  0  0
 25 27  1  0  0  0  0
 23 24  1  0  0  0  0
 21 22  1  0  0  0  0
 21 23  2  0  0  0  0
 19 20  1  0  0  0  0
 19 21  1  0  0  0  0
 17 18  1  0  0  0  0
 17 19  2  0  0  0  0
 15 16  1  0  0  0  0
 15 17  1  0  0  0  0
 14 15  2  0  0  0  0
 14 23  1  0  0  0  0
 11 12  1  0  0  0  0
 11 13  1  0  0  0  0
 11 14  1  0  0  0  0
  9 10  1  0  0  0  0
  9 11  1  0  0  0  0
  9 25  1  0  0  0  0
  7  8  1  0  0  0  0
  7  9  1  0  0  0  0
 29 30  1  0  0  0  0
 29 31  1  0  0  0  0
 29 32  1  0  0  0  0
 27 28  1  0  0  0  0
 27 29  1  0  0  0  0
M  END
$$$$
default_name
  -OEChem-01062215323D

 32 32  0     1  0  0  0  0  0999 V2000
   -3.8405   -3.7518    1.6252 H   0  0  0  0  0  0  0  0  0  0  0  0
   -3.7965   -2.8768    0.9782 C   0  0  0  0  0  0  0  0  0  0  0  0
   -4.5465   -2.1527    1.2902 H   0  0  0  0  0  0  0  0  0  0  0  0
   -3.9745   -3.1748   -0.0538 H   0  0  0  0  0  0  0  0  0  0  0  0
   -2.4245   -2.2537    1.0882 C   0  0  0  0  0  0  0  0  0  0  0  0
   -1.5805   -2.7478    1.8242 O   0  0  0  0  0  0  0  0  0  0  0  0
   -2.2045   -1.1637    0.3562 N   0  0  0  0  0  0  0  0  0  0  0  0
   -2.9595   -0.7907   -0.2008 H   0  0  0  0  0  0  0  0  0  0  0  0
   -0.9485   -0.4087    0.3482 C   0  0  1  0  0  0  0  0  0  0  0  0
   -0.6302   -0.2513    1.3800 H   0  0  0  0  0  0  0  0  0  0  0  0
    0.1340   -1.2307   -0.3723 C   0  0  0  0  0  0  0  0  0  0  0  0
   -0.2349   -1.5169   -1.3582 H   0  0  0  0  0  0  0  0  0  0  0  0
    1.0140   -0.6032   -0.5213 H   0  0  0  0  0  0  0  0  0  0  0  0
    0.5387   -2.4940    0.3633 C   0  0  0  0  0  0  0  0  0  0  0  0
    1.4567   -2.4358    1.4290 C   0  0  0  0  0  0  0  0  0  0  0  0
    1.8970   -1.4911    1.7152 H   0  0  0  0  0  0  0  0  0  0  0  0
    1.7958   -3.6059    2.1332 C   0  0  0  0  0  0  0  0  0  0  0  0
    2.5029   -3.5594    2.9495 H   0  0  0  0  0  0  0  0  0  0  0  0
    1.2167   -4.8350    1.7747 C   0  0  0  0  0  0  0  0  0  0  0  0
    1.4791   -5.7343    2.3142 H   0  0  0  0  0  0  0  0  0  0  0  0
    0.3002   -4.8969    0.7093 C   0  0  0  0  0  0  0  0  0  0  0  0
   -0.1409   -5.8425    0.4300 H   0  0  0  0  0  0  0  0  0  0  0  0
   -0.0360   -3.7280    0.0036 C   0  0  0  0  0  0  0  0  0  0  0  0
   -0.7387   -3.7775   -0.8180 H   0  0  0  0  0  0  0  0  0  0  0  0
   -1.1433    0.9748   -0.2979 C   0  0  0  0  0  0  0  0  0  0  0  0
   -0.2092    1.5202   -0.8873 O   0  0  0  0  0  0  0  0  0  0  0  0
   -2.3499    1.5442   -0.1843 N   0  0  0  0  0  0  0  0  0  0  0  0
   -3.0467    1.0602    0.3612 H   0  0  0  0  0  0  0  0  0  0  0  0
   -2.6956    2.8542   -0.7308 C   0  0  0  0  0  0  0  0  0  0  0  0
   -2.4299    2.8950   -1.7892 H   0  0  0  0  0  0  0  0  0  0  0  0
   -3.7647    3.0382   -0.6212 H   0  0  0  0  0  0  0  0  0  0  0  0
   -2.1400    3.6311   -0.2019 H   0  0  0  0  0  0  0  0  0  0  0  0
  5  6  2  0  0  0  0
  5  7  1  0  0  0  0
  2  3  1  0  0  0  0
  2  4  1  0  0  0  0
  2  5  1  0  0  0  0
  1  2  1  0  0  0  0
 25 26  2  0  0  0  0
 25 27  1  0  0  0  0
 23 24  1  0  0  0  0
 21 22  1  0  0  0  0
 21 23  2  0  0  0  0
 19 20  1  0  0  0  0
 19 21  1  0  0  0  0
 17 18  1  0  0  0  0
 17 19  2  0  0  0  0
 15 16  1  0  0  0  0
 15 17  1  0  0  0  0
 14 15  2  0  0  0  0
 14 23  1  0  0  0  0
 11 12  1  0  0  0  0
 11 13  1  0  0  0  0
 11 14  1  0  0  0  0
  9 10  1  0  0  0  0
  9 11  1  0  0  0  0
  9 25  1  0  0  0  0
  7  8  1  0  0  0  0
  7  9  1  0  0  0  0
 29 30  1  0  0  0  0
 29 31  1  0  0  0  0
 29 32  1  0  0  0  0
 27 28  1  0  0  0  0
 27 29  1  0  0  0  0
M  END
$$$$
default_name
  -OEChem-01062215323D

 32 32  0     1  0  0  0  0  0999 V2000
   -3.8405   -3.7518    1.6252 H   0  0  0  0  0  0  0  0  0  0  0  0
   -3.7965   -2.8768    0.9782 C   0  0  0  0  0  0  0  0  0  0  0  0
   -4.5465   -2.1527    1.2902 H   0  0  0  0  0  0  0  0  0  0  0  0
   -3.9745   -3.1748   -0.0538 H   0  0  0  0  0  0  0  0  0  0  0  0
   -2.4245   -2.2537    1.0882 C   0  0  0  0  0  0  0  0  0  0  0  0
   -1.5805   -2.7478    1.8242 O   0  0  0  0  0  0  0  0  0  0  0  0
   -2.2045   -1.1637    0.3562 N   0  0  0  0  0  0  0  0  0  0  0  0
   -2.9595   -0.7907   -0.2008 H   0  0  0  0  0  0  0  0  0  0  0  0
   -0.9485   -0.4087    0.3482 C   0  0  1  0  0  0  0  0  0  0  0  0
   -0.6302   -0.2513    1.3800 H   0  0  0  0  0  0  0  0  0  0  0  0
    0.1340   -1.2307   -0.3723 C   0  0  0  0  0  0  0  0  0  0  0  0
   -0.2349   -1.5169   -1.3582 H   0  0  0  0  0  0  0  0  0  0  0  0
    1.0140   -0.6032   -0.5213 H   0  0  0  0  0  0  0  0  0  0  0  0
    0.5387   -2.4940    0.3633 C   0  0  0  0  0  0  0  0  0  0  0  0
    1.4567   -2.4358    1.4290 C   0  0  0  0  0  0  0  0  0  0  0  0
    1.8970   -1.4911    1.7152 H   0  0  0  0  0  0  0  0  0  0  0  0
    1.7958   -3.6059    2.1332 C   0  0  0  0  0  0  0  0  0  0  0  0
    2.5029   -3.5594    2.9495 H   0  0  0  0  0  0  0  0  0  0  0  0
    1.2167   -4.8350    1.7747 C   0  0  0  0  0  0  0  0  0  0  0  0
    1.4791   -5.7343    2.3142 H   0  0  0  0  0  0  0  0  0  0  0  0
    0.3002   -4.8969    0.7093 C   0  0  0  0  0  0  0  0  0  0  0  0
   -0.1409   -5.8425    0.4300 H   0  0  0  0  0  0  0  0  0  0  0  0
   -0.0360   -3.7280    0.0036 C   0  0  0  0  0  0  0  0  0  0  0  0
   -0.7387   -3.7775   -0.8180 H   0  0  0  0  0  0  0  0  0  0  0  0
   -1.1433    0.9748   -0.2979 C   0  0  0  0  0  0  0  0  0  0  0  0
   -0.3216    1.3998   -1.1112 O   0  0  0  0  0  0  0  0  0  0  0  0
   -2.2232    1.6785    0.0651 N   0  0  0  0  0  0  0  0  0  0  0  0
   -2.8194    1.2868    0.7781 H   0  0  0  0  0  0  0  0  0  0  0  0
   -2.5481    3.0079   -0.4461 C   0  0  0  0  0  0  0  0  0  0  0  0
   -2.5352    2.9975   -1.5380 H   0  0  0  0  0  0  0  0  0  0  0  0
   -3.5364    3.3132   -0.1012 H   0  0  0  0  0  0  0  0  0  0  0  0
   -1.8058    3.7277   -0.0957 H   0  0  0  0  0  0  0  0  0  0  0  0
  5  6  2  0  0  0  0
  5  7  1  0  0  0  0
  2  3  1  0  0  0  0
  2  4  1  0  0  0  0
  2  5  1  0  0  0  0
  1  2  1  0  0  0  0
 25 26  2  0  0  0  0
 25 27  1  0  0  0  0
 23 24  1  0  0  0  0
 21 22  1  0  0  0  0
 21 23  2  0  0  0  0
 19 20  1  0  0  0  0
 19 21  1  0  0  0  0
 17 18  1  0  0  0  0
 17 19  2  0  0  0  0
 15 16  1  0  0  0  0
 15 17  1  0  0  0  0
 14 15  2  0  0  0  0
 14 23  1  0  0  0  0
 11 12  1  0  0  0  0
 11 13  1  0  0  0  0
 11 14  1  0  0  0  0
  9 10  1  0  0  0  0
  9 11  1  0  0  0  0
  9 25  1  0  0  0  0
  7  8  1  0  0  0  0
  7  9  1  0  0  0  0
 29 30  1  0  0  0  0
 29 31  1  0  0  0  0
 29 32  1  0  0  0  0
 27 28  1  0  0  0  0
 27 29  1  0  0  0  0
M  END
$$$$
default_name
  -OEChem-01062215323D

 32 32  0     1  0  0  0  0  0999 V2000
   -3.8405   -3.7518    1.6252 H   0  0  0  0  0  0  0  0  0  0  0  0
   -3.7965   -2.8768    0.9782 C   0  0  0  0  0  0  0  0  0  0  0  0
   -4.5465   -2.1527    1.2902 H   0  0  0  0  0  0  0  0  0  0  0  0
   -3.9745   -3.1748   -0.0538 H   0  0  0  0  0  0  0  0  0  0  0  0
   -2.4245   -2.2537    1.0882 C   0  0  0  0  0  0  0  0  0  0  0  0
   -1.5805   -2.7478    1.8242 O   0  0  0  0  0  0  0  0  0  0  0  0
   -2.2045   -1.1637    0.3562 N   0  0  0  0  0  0  0  0  0  0  0  0
   -2.9595   -0.7907   -0.2008 H   0  0  0  0  0  0  0  0  0  0  0  0
   -0.9485   -0.4087    0.3482 C   0  0  1  0  0  0  0  0  0  0  0  0
   -0.6302   -0.2513    1.3800 H   0  0  0  0  0  0  0  0  0  0  0  0
    0.1340   -1.2307   -0.3723 C   0  0  0  0  0  0  0  0  0  0  0  0
   -0.2349   -1.5169   -1.3582 H   0  0  0  0  0  0  0  0  0  0  0  0
    1.0140   -0.6032   -0.5213 H   0  0  0  0  0  0  0  0  0  0  0  0
    0.5387   -2.4940    0.3633 C   0  0  0  0  0  0  0  0  0  0  0  0
    1.4567   -2.4358    1.4290 C   0  0  0  0  0  0  0  0  0  0  0  0
    1.8970   -1.4911    1.7152 H   0  0  0  0  0  0  0  0  0  0  0  0
    1.7958   -3.6059    2.1332 C   0  0  0  0  0  0  0  0  0  0  0  0
    2.5029   -3.5594    2.9495 H   0  0  0  0  0  0  0  0  0  0  0  0
    1.2167   -4.8350    1.7747 C   0  0  0  0  0  0  0  0  0  0  0  0
    1.4791   -5.7343    2.3142 H   0  0  0  0  0  0  0  0  0  0  0  0
    0.3002   -4.8969    0.7093 C   0  0  0  0  0  0  0  0  0  0  0  0
   -0.1409   -5.8425    0.4300 H   0  0  0  0  0  0  0  0  0  0  0  0
   -0.0360   -3.7280    0.0036 C   0  0  0  0  0  0  0  0  0  0  0  0
   -0.7387   -3.7775   -0.8180 H   0  0  0  0  0  0  0  0  0  0  0  0
   -1.1433    0.9748   -0.2979 C   0  0  0  0  0  0  0  0  0  0  0  0
   -0.4953    1.2884   -1.2974 O   0  0  0  0  0  0  0  0  0  0  0  0
   -2.0282    1.8026    0.2720 N   0  0  0  0  0  0  0  0  0  0  0  0
   -2.4783    1.4948    1.1205 H   0  0  0  0  0  0  0  0  0  0  0  0
   -2.3228    3.1497   -0.2104 C   0  0  0  0  0  0  0  0  0  0  0  0
   -2.5674    3.1162   -1.2741 H   0  0  0  0  0  0  0  0  0  0  0  0
   -3.1651    3.5710    0.3390 H   0  0  0  0  0  0  0  0  0  0  0  0
   -1.4478    3.7882   -0.0740 H   0  0  0  0  0  0  0  0  0  0  0  0
  5  6  2  0  0  0  0
  5  7  1  0  0  0  0
  2  3  1  0  0  0  0
  2  4  1  0  0  0  0
  2  5  1  0  0  0  0
  1  2  1  0  0  0  0
 25 26  2  0  0  0  0
 25 27  1  0  0  0  0
 23 24  1  0  0  0  0
 21 22  1  0  0  0  0
 21 23  2  0  0  0  0
 19 20  1  0  0  0  0
 19 21  1  0  0  0  0
 17 18  1  0  0  0  0
 17 19  2  0  0  0  0
 15 16  1  0  0  0  0
 15 17  1  0  0  0  0
 14 15  2  0  0  0  0
 14 23  1  0  0  0  0
 11 12  1  0  0  0  0
 11 13  1  0  0  0  0
 11 14  1  0  0  0  0
  9 10  1  0  0  0  0
  9 11  1  0  0  0  0
  9 25  1  0  0  0  0
  7  8  1  0  0  0  0
  7  9  1  0  0  0  0
 29 30  1  0  0  0  0
 29 31  1  0  0  0  0
 29 32  1  0  0  0  0
 27 28  1  0  0  0  0
 27 29  1  0  0  0  0
M  END
$$$$
default_name
  -OEChem-01062215323D

 32 32  0     1  0  0  0  0  0999 V2000
   -3.8405   -3.7518    1.6252 H   0  0  0  0  0  0  0  0  0  0  0  0
   -3.7965   -2.8768    0.9782 C   0  0  0  0  0  0  0  0  0  0  0  0
   -4.5465   -2.1527    1.2902 H   0  0  0  0  0  0  0  0  0  0  0  0
   -3.9745   -3.1748   -0.0538 H   0  0  0  0  0  0  0  0  0  0  0  0
   -2.4245   -2.2537    1.0882 C   0  0  0  0  0  0  0  0  0  0  0  0
   -1.5805   -2.7478    1.8242 O   0  0  0  0  0  0  0  0  0  0  0  0
   -2.2045   -1.1637    0.3562 N   0  0  0  0  0  0  0  0  0  0  0  0
   -2.9595   -0.7907   -0.2008 H   0  0  0  0  0  0  0  0  0  0  0  0
   -0.9485   -0.4087    0.3482 C   0  0  1  0  0  0  0  0  0  0  0  0
   -0.6302   -0.2513    1.3800 H   0  0  0  0  0  0  0  0  0  0  0  0
    0.1340   -1.2307   -0.3723 C   0  0  0  0  0  0  0  0  0  0  0  0
   -0.2349   -1.5169   -1.3582 H   0  0  0  0  0  0  0  0  0  0  0  0
    1.0140   -0.6032   -0.5213 H   0  0  0  0  0  0  0  0  0  0  0  0
    0.5387   -2.4940    0.3633 C   0  0  0  0  0  0  0  0  0  0  0  0
    1.4567   -2.4358    1.4290 C   0  0  0  0  0  0  0  0  0  0  0  0
    1.8970   -1.4911    1.7152 H   0  0  0  0  0  0  0  0  0  0  0  0
    1.7958   -3.6059    2.1332 C   0  0  0  0  0  0  0  0  0  0  0  0
    2.5029   -3.5594    2.9495 H   0  0  0  0  0  0  0  0  0  0  0  0
    1.2167   -4.8350    1.7747 C   0  0  0  0  0  0  0  0  0  0  0  0
    1.4791   -5.7343    2.3142 H   0  0  0  0  0  0  0  0  0  0  0  0
    0.3002   -4.8969    0.7093 C   0  0  0  0  0  0  0  0  0  0  0  0
   -0.1409   -5.8425    0.4300 H   0  0  0  0  0  0  0  0  0  0  0  0
   -0.0360   -3.7280    0.0036 C   0  0  0  0  0  0  0  0  0  0  0  0
   -0.7387   -3.7775   -0.8180 H   0  0  0  0  0  0  0  0  0  0  0  0
   -1.1433    0.9748   -0.2979 C   0  0  0  0  0  0  0  0  0  0  0  0
   -0.7185    1.1935   -1.4332 O   0  0  0  0  0  0  0  0  0  0  0  0
   -1.7782    1.9081    0.4225 N   0  0  0  0  0  0  0  0  0  0  0  0
   -2.0465    1.6698    1.3651 H   0  0  0  0  0  0  0  0  0  0  0  0
   -2.0349    3.2699   -0.0398 C   0  0  0  0  0  0  0  0  0  0  0  0
   -2.5242    3.2430   -1.0157 H   0  0  0  0  0  0  0  0  0  0  0  0
   -2.6761    3.7942    0.6694 H   0  0  0  0  0  0  0  0  0  0  0  0
   -1.0904    3.8085   -0.1383 H   0  0  0  0  0  0  0  0  0  0  0  0
  5  6  2  0  0  0  0
  5  7  1  0  0  0  0
  2  3  1  0  0  0  0
  2  4  1  0  0  0  0
  2  5  1  0  0  0  0
  1  2  1  0  0  0  0
 25 26  2  0  0  0  0
 25 27  1  0  0  0  0
 23 24  1  0  0  0  0
 21 22  1  0  0  0  0
 21 23  2  0  0  0  0
 19 20  1  0  0  0  0
 19 21  1  0  0  0  0
 17 18  1  0  0  0  0
 17 19  2  0  0  0  0
 15 16  1  0  0  0  0
 15 17  1  0  0  0  0
 14 15  2  0  0  0  0
 14 23  1  0  0  0  0
 11 12  1  0  0  0  0
 11 13  1  0  0  0  0
 11 14  1  0  0  0  0
  9 10  1  0  0  0  0
  9 11  1  0  0  0  0
  9 25  1  0  0  0  0
  7  8  1  0  0  0  0
  7  9  1  0  0  0  0
 29 30  1  0  0  0  0
 29 31  1  0  0  0  0
 29 32  1  0  0  0  0
 27 28  1  0  0  0  0
 27 29  1  0  0  0  0
M  END
$$$$
default_name
  -OEChem-01062215323D

 32 32  0     1  0  0  0  0  0999 V2000
   -3.8405   -3.7518    1.6252 H   0  0  0  0  0  0  0  0  0  0  0  0
   -3.7965   -2.8768    0.9782 C   0  0  0  0  0  0  0  0  0  0  0  0
   -4.5465   -2.1527    1.2902 H   0  0  0  0  0  0  0  0  0  0  0  0
   -3.9745   -3.1748   -0.0538 H   0  0  0  0  0  0  0  0  0  0  0  0
   -2.4245   -2.2537    1.0882 C   0  0  0  0  0  0  0  0  0  0  0  0
   -1.5805   -2.7478    1.8242 O   0  0  0  0  0  0  0  0  0  0  0  0
   -2.2045   -1.1637    0.3562 N   0  0  0  0  0  0  0  0  0  0  0  0
   -2.9595   -0.7907   -0.2008 H   0  0  0  0  0  0  0  0  0  0  0  0
   -0.9485   -0.4087    0.3482 C   0  0  1  0  0  0  0  0  0  0  0  0
   -0.6302   -0.2513    1.3800 H   0  0  0  0  0  0  0  0  0  0  0  0
    0.1340   -1.2307   -0.3723 C   0  0  0  0  0  0  0  0  0  0  0  0
   -0.2349   -1.5169   -1.3582 H   0  0  0  0  0  0  0  0  0  0  0  0
    1.0140   -0.6032   -0.5213 H   0  0  0  0  0  0  0  0  0  0  0  0
    0.5387   -2.4940    0.3633 C   0  0  0  0  0  0  0  0  0  0  0  0
    1.4567   -2.4358    1.4290 C   0  0  0  0  0  0  0  0  0  0  0  0
    1.8970   -1.4911    1.7152 H   0  0  0  0  0  0  0  0  0  0  0  0
    1.7958   -3.6059    2.1332 C   0  0  0  0  0  0  0  0  0  0  0  0
    2.5029   -3.5594    2.9495 H   0  0  0  0  0  0  0  0  0  0  0  0
    1.2167   -4.8350    1.7747 C   0  0  0  0  0  0  0  0  0  0  0  0
    1.4791   -5.7343    2.3142 H   0  0  0  0  0  0  0  0  0  0  0  0
    0.3002   -4.8969    0.7093 C   0  0  0  0  0  0  0  0  0  0  0  0
   -0.1409   -5.8425    0.4300 H   0  0  0  0  0  0  0  0  0  0  0  0
   -0.0360   -3.7280    0.0036 C   0  0  0  0  0  0  0  0  0  0  0  0
   -0.7387   -3.7775   -0.8180 H   0  0  0  0  0  0  0  0  0  0  0  0
   -1.1433    0.9748   -0.2979 C   0  0  0  0  0  0  0  0  0  0  0  0
   -0.9760    1.1217   -1.5094 O   0  0  0  0  0  0  0  0  0  0  0  0
   -1.4902    1.9877    0.5063 N   0  0  0  0  0  0  0  0  0  0  0  0
   -1.5536    1.8000    1.4952 H   0  0  0  0  0  0  0  0  0  0  0  0
   -1.7041    3.3603    0.0541 C   0  0  0  0  0  0  0  0  0  0  0  0
   -2.4086    3.3692   -0.7803 H   0  0  0  0  0  0  0  0  0  0  0  0
   -2.1026    3.9674    0.8674 H   0  0  0  0  0  0  0  0  0  0  0  0
   -0.7579    3.7872   -0.2842 H   0  0  0  0  0  0  0  0  0  0  0  0
  5  6  2  0  0  0  0
  5  7  1  0  0  0  0
  2  3  1  0  0  0  0
  2  4  1  0  0  0  0
  2  5  1  0  0  0  0
  1  2  1  0  0  0  0
 25 26  2  0  0  0  0
 25 27  1  0  0  0  0
 23 24  1  0  0  0  0
 21 22  1  0  0  0  0
 21 23  2  0  0  0  0
 19 20  1  0  0  0  0
 19 21  1  0  0  0  0
 17 18  1  0  0  0  0
 17 19  2  0  0  0  0
 15 16  1  0  0  0  0
 15 17  1  0  0  0  0
 14 15  2  0  0  0  0
 14 23  1  0  0  0  0
 11 12  1  0  0  0  0
 11 13  1  0  0  0  0
 11 14  1  0  0  0  0
  9 10  1  0  0  0  0
  9 11  1  0  0  0  0
  9 25  1  0  0  0  0
  7  8  1  0  0  0  0
  7  9  1  0  0  0  0
 29 30  1  0  0  0  0
 29 31  1  0  0  0  0
 29 32  1  0  0  0  0
 27 28  1  0  0  0  0
 27 29  1  0  0  0  0
M  END
$$$$
default_name
  -OEChem-01062215323D

 32 32  0     1  0  0  0  0  0999 V2000
   -3.8405   -3.7518    1.6252 H   0  0  0  0  0  0  0  0  0  0  0  0
   -3.7965   -2.8768    0.9782 C   0  0  0  0  0  0  0  0  0  0  0  0
   -4.5465   -2.1527    1.2902 H   0  0  0  0  0  0  0  0  0  0  0  0
   -3.9745   -3.1748   -0.0538 H   0  0  0  0  0  0  0  0  0  0  0  0
   -2.4245   -2.2537    1.0882 C   0  0  0  0  0  0  0  0  0  0  0  0
   -1.5805   -2.7478    1.8242 O   0  0  0  0  0  0  0  0  0  0  0  0
   -2.2045   -1.1637    0.3562 N   0  0  0  0  0  0  0  0  0  0  0  0
   -2.9595   -0.7907   -0.2008 H   0  0  0  0  0  0  0  0  0  0  0  0
   -0.9485   -0.4087    0.3482 C   0  0  1  0  0  0  0  0  0  0  0  0
   -0.6302   -0.2513    1.3800 H   0  0  0  0  0  0  0  0  0  0  0  0
    0.1340   -1.2307   -0.3723 C   0  0  0  0  0  0  0  0  0  0  0  0
   -0.2349   -1.5169   -1.3582 H   0  0  0  0  0  0  0  0  0  0  0  0
    1.0140   -0.6032   -0.5213 H   0  0  0  0  0  0  0  0  0  0  0  0
    0.5387   -2.4940    0.3633 C   0  0  0  0  0  0  0  0  0  0  0  0
    1.4567   -2.4358    1.4290 C   0  0  0  0  0  0  0  0  0  0  0  0
    1.8970   -1.4911    1.7152 H   0  0  0  0  0  0  0  0  0  0  0  0
    1.7958   -3.6059    2.1332 C   0  0  0  0  0  0  0  0  0  0  0  0
    2.5029   -3.5594    2.9495 H   0  0  0  0  0  0  0  0  0  0  0  0
    1.2167   -4.8350    1.7747 C   0  0  0  0  0  0  0  0  0  0  0  0
    1.4791   -5.7343    2.3142 H   0  0  0  0  0  0  0  0  0  0  0  0
    0.3002   -4.8969    0.7093 C   0  0  0  0  0  0  0  0  0  0  0  0
   -0.1409   -5.8425    0.4300 H   0  0  0  0  0  0  0  0  0  0  0  0
   -0.0360   -3.7280    0.0036 C   0  0  0  0  0  0  0  0  0  0  0  0
   -0.7387   -3.7775   -0.8180 H   0  0  0  0  0  0  0  0  0  0  0  0
   -1.1433    0.9748   -0.2979 C   0  0  0  0  0  0  0  0  0  0  0  0
   -1.2502    1.0778   -1.5207 O   0  0  0  0  0  0  0  0  0  0  0  0
   -1.1840    2.0361    0.5176 N   0  0  0  0  0  0  0  0  0  0  0  0
   -1.0330    1.8764    1.5020 H   0  0  0  0  0  0  0  0  0  0  0  0
   -1.3529    3.4148    0.0649 C   0  0  0  0  0  0  0  0  0  0  0  0
   -2.2284    3.4862   -0.5839 H   0  0  0  0  0  0  0  0  0  0  0  0
   -1.4838    4.0789    0.9197 H   0  0  0  0  0  0  0  0  0  0  0  0
   -0.4731    3.7257   -0.5018 H   0  0  0  0  0  0  0  0  0  0  0  0
  5  6  2  0  0  0  0
  5  7  1  0  0  0  0
  2  3  1  0  0  0  0
  2  4  1  0  0  0  0
  2  5  1  0  0  0  0
  1  2  1  0  0  0  0
 25 26  2  0  0  0  0
 25 27  1  0  0  0  0
 23 24  1  0  0  0  0
 21 22  1  0  0  0  0
 21 23  2  0  0  0  0
 19 20  1  0  0  0  0
 19 21  1  0  0  0  0
 17 18  1  0  0  0  0
 17 19  2  0  0  0  0
 15 16  1  0  0  0  0
 15 17  1  0  0  0  0
 14 15  2  0  0  0  0
 14 23  1  0  0  0  0
 11 12  1  0  0  0  0
 11 13  1  0  0  0  0
 11 14  1  0  0  0  0
  9 10  1  0  0  0  0
  9 11  1  0  0  0  0
  9 25  1  0  0  0  0
  7  8  1  0  0  0  0
  7  9  1  0  0  0  0
 29 30  1  0  0  0  0
 29 31  1  0  0  0  0
 29 32  1  0  0  0  0
 27 28  1  0  0  0  0
 27 29  1  0  0  0  0
M  END
$$$$
default_name
  -OEChem-01062215323D

 32 32  0     1  0  0  0  0  0999 V2000
   -3.8405   -3.7518    1.6252 H   0  0  0  0  0  0  0  0  0  0  0  0
   -3.7965   -2.8768    0.9782 C   0  0  0  0  0  0  0  0  0  0  0  0
   -4.5465   -2.1527    1.2902 H   0  0  0  0  0  0  0  0  0  0  0  0
   -3.9745   -3.1748   -0.0538 H   0  0  0  0  0  0  0  0  0  0  0  0
   -2.4245   -2.2537    1.0882 C   0  0  0  0  0  0  0  0  0  0  0  0
   -1.5805   -2.7478    1.8242 O   0  0  0  0  0  0  0  0  0  0  0  0
   -2.2045   -1.1637    0.3562 N   0  0  0  0  0  0  0  0  0  0  0  0
   -2.9595   -0.7907   -0.2008 H   0  0  0  0  0  0  0  0  0  0  0  0
   -0.9485   -0.4087    0.3482 C   0  0  1  0  0  0  0  0  0  0  0  0
   -0.6302   -0.2513    1.3800 H   0  0  0  0  0  0  0  0  0  0  0  0
    0.1340   -1.2307   -0.3723 C   0  0  0  0  0  0  0  0  0  0  0  0
   -0.2349   -1.5169   -1.3582 H   0  0  0  0  0  0  0  0  0  0  0  0
    1.0140   -0.6032   -0.5213 H   0  0  0  0  0  0  0  0  0  0  0  0
    0.5387   -2.4940    0.3633 C   0  0  0  0  0  0  0  0  0  0  0  0
    1.4567   -2.4358    1.4290 C   0  0  0  0  0  0  0  0  0  0  0  0
    1.8970   -1.4911    1.7152 H   0  0  0  0  0  0  0  0  0  0  0  0
    1.7958   -3.6059    2.1332 C   0  0  0  0  0  0  0  0  0  0  0  0
    2.5029   -3.5594    2.9495 H   0  0  0  0  0  0  0  0  0  0  0  0
    1.2167   -4.8350    1.7747 C   0  0  0  0  0  0  0  0  0  0  0  0
    1.4791   -5.7343    2.3142 H   0  0  0  0  0  0  0  0  0  0  0  0
    0.3002   -4.8969    0.7093 C   0  0  0  0  0  0  0  0  0  0  0  0
   -0.1409   -5.8425    0.4300 H   0  0  0  0  0  0  0  0  0  0  0  0
   -0.0360   -3.7280    0.0036 C   0  0  0  0  0  0  0  0  0  0  0  0
   -0.7387   -3.7775   -0.8180 H   0  0  0  0  0  0  0  0  0  0  0  0
   -1.1433    0.9748   -0.2979 C   0  0  0  0  0  0  0  0  0  0  0  0
   -1.5225    1.0648   -1.4664 O   0  0  0  0  0  0  0  0  0  0  0  0
   -0.8803    2.0500    0.4557 N   0  0  0  0  0  0  0  0  0  0  0  0
   -0.5203    1.8939    1.3849 H   0  0  0  0  0  0  0  0  0  0  0  0
   -1.0052    3.4296   -0.0082 C   0  0  0  0  0  0  0  0  0  0  0  0
   -1.9960    3.5862   -0.4399 H   0  0  0  0  0  0  0  0  0  0  0  0
   -0.8618    4.1211    0.8225 H   0  0  0  0  0  0  0  0  0  0  0  0
   -0.2552    3.6282   -0.7763 H   0  0  0  0  0  0  0  0  0  0  0  0
  5  6  2  0  0  0  0
  5  7  1  0  0  0  0
  2  3  1  0  0  0  0
  2  4  1  0  0  0  0
  2  5  1  0  0  0  0
  1  2  1  0  0  0  0
 25 26  2  0  0  0  0
 25 27  1  0  0  0  0
 23 24  1  0  0  0  0
 21 22  1  0  0  0  0
 21 23  2  0  0  0  0
 19 20  1  0  0  0  0
 19 21  1  0  0  0  0
 17 18  1  0  0  0  0
 17 19  2  0  0  0  0
 15 16  1  0  0  0  0
 15 17  1  0  0  0  0
 14 15  2  0  0  0  0
 14 23  1  0  0  0  0
 11 12  1  0  0  0  0
 11 13  1  0  0  0  0
 11 14  1  0  0  0  0
  9 10  1  0  0  0  0
  9 11  1  0  0  0  0
  9 25  1  0  0  0  0
  7  8  1  0  0  0  0
  7  9  1  0  0  0  0
 29 30  1  0  0  0  0
 29 31  1  0  0  0  0
 29 32  1  0  0  0  0
 27 28  1  0  0  0  0
 27 29  1  0  0  0  0
M  END
$$$$
default_name
  -OEChem-01062215323D

 32 32  0     1  0  0  0  0  0999 V2000
   -3.8405   -3.7518    1.6252 H   0  0  0  0  0  0  0  0  0  0  0  0
   -3.7965   -2.8768    0.9782 C   0  0  0  0  0  0  0  0  0  0  0  0
   -4.5465   -2.1527    1.2902 H   0  0  0  0  0  0  0  0  0  0  0  0
   -3.9745   -3.1748   -0.0538 H   0  0  0  0  0  0  0  0  0  0  0  0
   -2.4245   -2.2537    1.0882 C   0  0  0  0  0  0  0  0  0  0  0  0
   -1.5805   -2.7478    1.8242 O   0  0  0  0  0  0  0  0  0  0  0  0
   -2.2045   -1.1637    0.3562 N   0  0  0  0  0  0  0  0  0  0  0  0
   -2.9595   -0.7907   -0.2008 H   0  0  0  0  0  0  0  0  0  0  0  0
   -0.9485   -0.4087    0.3482 C   0  0  1  0  0  0  0  0  0  0  0  0
   -0.6302   -0.2513    1.3800 H   0  0  0  0  0  0  0  0  0  0  0  0
    0.1340   -1.2307   -0.3723 C   0  0  0  0  0  0  0  0  0  0  0  0
   -0.2349   -1.5169   -1.3582 H   0  0  0  0  0  0  0  0  0  0  0  0
    1.0140   -0.6032   -0.5213 H   0  0  0  0  0  0  0  0  0  0  0  0
    0.5387   -2.4940    0.3633 C   0  0  0  0  0  0  0  0  0  0  0  0
    1.4567   -2.4358    1.4290 C   0  0  0  0  0  0  0  0  0  0  0  0
    1.8970   -1.4911    1.7152 H   0  0  0  0  0  0  0  0  0  0  0  0
    1.7958   -3.6059    2.1332 C   0  0  0  0  0  0  0  0  0  0  0  0
    2.5029   -3.5594    2.9495 H   0  0  0  0  0  0  0  0  0  0  0  0
    1.2167   -4.8350    1.7747 C   0  0  0  0  0  0  0  0  0  0  0  0
    1.4791   -5.7343    2.3142 H   0  0  0  0  0  0  0  0  0  0  0  0
    0.3002   -4.8969    0.7093 C   0  0  0  0  0  0  0  0  0  0  0  0
   -0.1409   -5.8425    0.4300 H   0  0  0  0  0  0  0  0  0  0  0  0
   -0.0360   -3.7280    0.0036 C   0  0  0  0  0  0  0  0  0  0  0  0
   -0.7387   -3.7775   -0.8180 H   0  0  0  0  0  0  0  0  0  0  0  0
   -1.1433    0.9748   -0.2979 C   0  0  0  0  0  0  0  0  0  0  0  0
   -1.7743    1.0837   -1.3502 O   0  0  0  0  0  0  0  0  0  0  0  0
   -0.5998    2.0283    0.3248 N   0  0  0  0  0  0  0  0  0  0  0  0
   -0.0504    1.8513    1.1519 H   0  0  0  0  0  0  0  0  0  0  0  0
   -0.6848    3.4038   -0.1602 C   0  0  0  0  0  0  0  0  0  0  0  0
   -1.7272    3.6622   -0.3582 H   0  0  0  0  0  0  0  0  0  0  0  0
   -0.2790    4.0911    0.5826 H   0  0  0  0  0  0  0  0  0  0  0  0
   -0.1192    3.5014   -1.0888 H   0  0  0  0  0  0  0  0  0  0  0  0
  5  6  2  0  0  0  0
  5  7  1  0  0  0  0
  2  3  1  0  0  0  0
  2  4  1  0  0  0  0
  2  5  1  0  0  0  0
  1  2  1  0  0  0  0
 25 26  2  0  0  0  0
 25 27  1  0  0  0  0
 23 24  1  0  0  0  0
 21 22  1  0  0  0  0
 21 23  2  0  0  0  0
 19 20  1  0  0  0  0
 19 21  1  0  0  0  0
 17 18  1  0  0  0  0
 17 19  2  0  0  0  0
 15 16  1  0  0  0  0
 15 17  1  0  0  0  0
 14 15  2  0  0  0  0
 14 23  1  0  0  0  0
 11 12  1  0  0  0  0
 11 13  1  0  0  0  0
 11 14  1  0  0  0  0
  9 10  1  0  0  0  0
  9 11  1  0  0  0  0
  9 25  1  0  0  0  0
  7  8  1  0  0  0  0
  7  9  1  0  0  0  0
 29 30  1  0  0  0  0
 29 31  1  0  0  0  0
 29 32  1  0  0  0  0
 27 28  1  0  0  0  0
 27 29  1  0  0  0  0
M  END
$$$$
default_name
  -OEChem-01062215323D

 32 32  0     1  0  0  0  0  0999 V2000
   -3.8405   -3.7518    1.6252 H   0  0  0  0  0  0  0  0  0  0  0  0
   -3.7965   -2.8768    0.9782 C   0  0  0  0  0  0  0  0  0  0  0  0
   -4.5465   -2.1527    1.2902 H   0  0  0  0  0  0  0  0  0  0  0  0
   -3.9745   -3.1748   -0.0538 H   0  0  0  0  0  0  0  0  0  0  0  0
   -2.4245   -2.2537    1.0882 C   0  0  0  0  0  0  0  0  0  0  0  0
   -1.5805   -2.7478    1.8242 O   0  0  0  0  0  0  0  0  0  0  0  0
   -2.2045   -1.1637    0.3562 N   0  0  0  0  0  0  0  0  0  0  0  0
   -2.9595   -0.7907   -0.2008 H   0  0  0  0  0  0  0  0  0  0  0  0
   -0.9485   -0.4087    0.3482 C   0  0  1  0  0  0  0  0  0  0  0  0
   -0.6302   -0.2513    1.3800 H   0  0  0  0  0  0  0  0  0  0  0  0
    0.1340   -1.2307   -0.3723 C   0  0  0  0  0  0  0  0  0  0  0  0
   -0.2349   -1.5169   -1.3582 H   0  0  0  0  0  0  0  0  0  0  0  0
    1.0140   -0.6032   -0.5213 H   0  0  0  0  0  0  0  0  0  0  0  0
    0.5387   -2.4940    0.3633 C   0  0  0  0  0  0  0  0  0  0  0  0
    1.4567   -2.4358    1.4290 C   0  0  0  0  0  0  0  0  0  0  0  0
    1.8970   -1.4911    1.7152 H   0  0  0  0  0  0  0  0  0  0  0  0
    1.7958   -3.6059    2.1332 C   0  0  0  0  0  0  0  0  0  0  0  0
    2.5029   -3.5594    2.9495 H   0  0  0  0  0  0  0  0  0  0  0  0
    1.2167   -4.8350    1.7747 C   0  0  0  0  0  0  0  0  0  0  0  0
    1.4791   -5.7343    2.3142 H   0  0  0  0  0  0  0  0  0  0  0  0
    0.3002   -4.8969    0.7093 C   0  0  0  0  0  0  0  0  0  0  0  0
   -0.1409   -5.8425    0.4300 H   0  0  0  0  0  0  0  0  0  0  0  0
   -0.0360   -3.7280    0.0036 C   0  0  0  0  0  0  0  0  0  0  0  0
   -0.7387   -3.7775   -0.8180 H   0  0  0  0  0  0  0  0  0  0  0  0
   -1.1433    0.9748   -0.2979 C   0  0  0  0  0  0  0  0  0  0  0  0
   -1.9885    1.1330   -1.1799 O   0  0  0  0  0  0  0  0  0  0  0  0
   -0.3617    1.9727    0.1338 N   0  0  0  0  0  0  0  0  0  0  0  0
    0.3446    1.7514    0.8190 H   0  0  0  0  0  0  0  0  0  0  0  0
   -0.4135    3.3390   -0.3807 C   0  0  0  0  0  0  0  0  0  0  0  0
   -1.4402    3.7091   -0.3443 H   0  0  0  0  0  0  0  0  0  0  0  0
    0.2249    3.9910    0.2162 H   0  0  0  0  0  0  0  0  0  0  0  0
   -0.0743    3.3539   -1.4183 H   0  0  0  0  0  0  0  0  0  0  0  0
  5  6  2  0  0  0  0
  5  7  1  0  0  0  0
  2  3  1  0  0  0  0
  2  4  1  0  0  0  0
  2  5  1  0  0  0  0
  1  2  1  0  0  0  0
 25 26  2  0  0  0  0
 25 27  1  0  0  0  0
 23 24  1  0  0  0  0
 21 22  1  0  0  0  0
 21 23  2  0  0  0  0
 19 20  1  0  0  0  0
 19 21  1  0  0  0  0
 17 18  1  0  0  0  0
 17 19  2  0  0  0  0
 15 16  1  0  0  0  0
 15 17  1  0  0  0  0
 14 15  2  0  0  0  0
 14 23  1  0  0  0  0
 11 12  1  0  0  0  0
 11 13  1  0  0  0  0
 11 14  1  0  0  0  0
  9 10  1  0  0  0  0
  9 11  1  0  0  0  0
  9 25  1  0  0  0  0
  7  8  1  0  0  0  0
  7  9  1  0  0  0  0
 29 30  1  0  0  0  0
 29 31  1  0  0  0  0
 29 32  1  0  0  0  0
 27 28  1  0  0  0  0
 27 29  1  0  0  0  0
M  END
$$$$
default_name
  -OEChem-01062215323D

 32 32  0     1  0  0  0  0  0999 V2000
   -3.8405   -3.7518    1.6252 H   0  0  0  0  0  0  0  0  0  0  0  0
   -3.7965   -2.8768    0.9782 C   0  0  0  0  0  0  0  0  0  0  0  0
   -4.5465   -2.1527    1.2902 H   0  0  0  0  0  0  0  0  0  0  0  0
   -3.9745   -3.1748   -0.0538 H   0  0  0  0  0  0  0  0  0  0  0  0
   -2.4245   -2.2537    1.0882 C   0  0  0  0  0  0  0  0  0  0  0  0
   -1.5805   -2.7478    1.8242 O   0  0  0  0  0  0  0  0  0  0  0  0
   -2.2045   -1.1637    0.3562 N   0  0  0  0  0  0  0  0  0  0  0  0
   -2.9595   -0.7907   -0.2008 H   0  0  0  0  0  0  0  0  0  0  0  0
   -0.9485   -0.4087    0.3482 C   0  0  1  0  0  0  0  0  0  0  0  0
   -0.6302   -0.2513    1.3800 H   0  0  0  0  0  0  0  0  0  0  0  0
    0.1340   -1.2307   -0.3723 C   0  0  0  0  0  0  0  0  0  0  0  0
   -0.2349   -1.5169   -1.3582 H   0  0  0  0  0  0  0  0  0  0  0  0
    1.0140   -0.6032   -0.5213 H   0  0  0  0  0  0  0  0  0  0  0  0
    0.5387   -2.4940    0.3633 C   0  0  0  0  0  0  0  0  0  0  0  0
    1.4567   -2.4358    1.4290 C   0  0  0  0  0  0  0  0  0  0  0  0
    1.8970   -1.4911    1.7152 H   0  0  0  0  0  0  0  0  0  0  0  0
    1.7958   -3.6059    2.1332 C   0  0  0  0  0  0  0  0  0  0  0  0
    2.5029   -3.5594    2.9495 H   0  0  0  0  0  0  0  0  0  0  0  0
    1.2167   -4.8350    1.7747 C   0  0  0  0  0  0  0  0  0  0  0  0
    1.4791   -5.7343    2.3142 H   0  0  0  0  0  0  0  0  0  0  0  0
    0.3002   -4.8969    0.7093 C   0  0  0  0  0  0  0  0  0  0  0  0
   -0.1409   -5.8425    0.4300 H   0  0  0  0  0  0  0  0  0  0  0  0
   -0.0360   -3.7280    0.0036 C   0  0  0  0  0  0  0  0  0  0  0  0
   -0.7387   -3.7775   -0.8180 H   0  0  0  0  0  0  0  0  0  0  0  0
   -1.1433    0.9748   -0.2979 C   0  0  0  0  0  0  0  0  0  0  0  0
   -2.1503    1.2095   -0.9673 O   0  0  0  0  0  0  0  0  0  0  0  0
   -0.1822    1.8868   -0.1043 N   0  0  0  0  0  0  0  0  0  0  0  0
    0.6379    1.6012    0.4088 H   0  0  0  0  0  0  0  0  0  0  0  0
   -0.2097    3.2398   -0.6546 C   0  0  0  0  0  0  0  0  0  0  0  0
   -1.1548    3.7237   -0.3992 H   0  0  0  0  0  0  0  0  0  0  0  0
    0.6155    3.8276   -0.2516 H   0  0  0  0  0  0  0  0  0  0  0  0
   -0.1236    3.1958   -1.7421 H   0  0  0  0  0  0  0  0  0  0  0  0
  5  6  2  0  0  0  0
  5  7  1  0  0  0  0
  2  3  1  0  0  0  0
  2  4  1  0  0  0  0
  2  5  1  0  0  0  0
  1  2  1  0  0  0  0
 25 26  2  0  0  0  0
 25 27  1  0  0  0  0
 23 24  1  0  0  0  0
 21 22  1  0  0  0  0
 21 23  2  0  0  0  0
 19 20  1  0  0  0  0
 19 21  1  0  0  0  0
 17 18  1  0  0  0  0
 17 19  2  0  0  0  0
 15 16  1  0  0  0  0
 15 17  1  0  0  0  0
 14 15  2  0  0  0  0
 14 23  1  0  0  0  0
 11 12  1  0  0  0  0
 11 13  1  0  0  0  0
 11 14  1  0  0  0  0
  9 10  1  0  0  0  0
  9 11  1  0  0  0  0
  9 25  1  0  0  0  0
  7  8  1  0  0  0  0
  7  9  1  0  0  0  0
 29 30  1  0  0  0  0
 29 31  1  0  0  0  0
 29 32  1  0  0  0  0
 27 28  1  0  0  0  0
 27 29  1  0  0  0  0
M  END
$$$$
default_name
  -OEChem-01062215323D

 32 32  0     1  0  0  0  0  0999 V2000
   -3.8405   -3.7518    1.6252 H   0  0  0  0  0  0  0  0  0  0  0  0
   -3.7965   -2.8768    0.9782 C   0  0  0  0  0  0  0  0  0  0  0  0
   -4.5465   -2.1527    1.2902 H   0  0  0  0  0  0  0  0  0  0  0  0
   -3.9745   -3.1748   -0.0538 H   0  0  0  0  0  0  0  0  0  0  0  0
   -2.4245   -2.2537    1.0882 C   0  0  0  0  0  0  0  0  0  0  0  0
   -1.5805   -2.7478    1.8242 O   0  0  0  0  0  0  0  0  0  0  0  0
   -2.2045   -1.1637    0.3562 N   0  0  0  0  0  0  0  0  0  0  0  0
   -2.9595   -0.7907   -0.2008 H   0  0  0  0  0  0  0  0  0  0  0  0
   -0.9485   -0.4087    0.3482 C   0  0  1  0  0  0  0  0  0  0  0  0
   -0.4930   -0.4799    1.3372 H   0  0  0  0  0  0  0  0  0  0  0  0
    0.0147   -1.0355   -0.6745 C   0  0  0  0  0  0  0  0  0  0  0  0
   -0.4868   -1.1008   -1.6411 H   0  0  0  0  0  0  0  0  0  0  0  0
    0.8772   -0.3786   -0.7967 H   0  0  0  0  0  0  0  0  0  0  0  0
    0.4929   -2.4249   -0.2981 C   0  0  0  0  0  0  0  0  0  0  0  0
    1.5456   -2.5922    0.6216 C   0  0  0  0  0  0  0  0  0  0  0  0
    2.0355   -1.7285    1.0487 H   0  0  0  0  0  0  0  0  0  0  0  0
    1.9561   -3.8846    0.9971 C   0  0  0  0  0  0  0  0  0  0  0  0
    2.7663   -4.0108    1.7015 H   0  0  0  0  0  0  0  0  0  0  0  0
    1.3143   -5.0113    0.4556 C   0  0  0  0  0  0  0  0  0  0  0  0
    1.6313   -6.0042    0.7423 H   0  0  0  0  0  0  0  0  0  0  0  0
    0.2631   -4.8477   -0.4649 C   0  0  0  0  0  0  0  0  0  0  0  0
   -0.2268   -5.7137   -0.8854 H   0  0  0  0  0  0  0  0  0  0  0  0
   -0.1448   -3.5560   -0.8425 C   0  0  0  0  0  0  0  0  0  0  0  0
   -0.9514   -3.4315   -1.5532 H   0  0  0  0  0  0  0  0  0  0  0  0
   -1.2048    1.0808    0.0569 C   0  0  0  0  0  0  0  0  0  0  0  0
   -2.3521    1.4858   -0.1359 O   0  0  0  0  0  0  0  0  0  0  0  0
   -0.1415    1.8939    0.0192 N   0  0  0  0  0  0  0  0  0  0  0  0
    0.7704    1.4777    0.1316 H   0  0  0  0  0  0  0  0  0  0  0  0
   -0.2119    3.3275   -0.2528 C   0  0  0  0  0  0  0  0  0  0  0  0
   -0.9385    3.7952    0.4148 H   0  0  0  0  0  0  0  0  0  0  0  0
    0.7645    3.7884   -0.1009 H   0  0  0  0  0  0  0  0  0  0  0  0
   -0.5310    3.4904   -1.2841 H   0  0  0  0  0  0  0  0  0  0  0  0
  5  6  2  0  0  0  0
  5  7  1  0  0  0  0
  2  3  1  0  0  0  0
  2  4  1  0  0  0  0
  2  5  1  0  0  0  0
  1  2  1  0  0  0  0
 25 26  2  0  0  0  0
 25 27  1  0  0  0  0
 23 24  1  0  0  0  0
 21 22  1  0  0  0  0
 21 23  2  0  0  0  0
 19 20  1  0  0  0  0
 19 21  1  0  0  0  0
 17 18  1  0  0  0  0
 17 19  2  0  0  0  0
 15 16  1  0  0  0  0
 15 17  1  0  0  0  0
 14 15  2  0  0  0  0
 14 23  1  0  0  0  0
 11 12  1  0  0  0  0
 11 13  1  0  0  0  0
 11 14  1  0  0  0  0
  9 10  1  0  0  0  0
  9 11  1  0  0  0  0
  9 25  1  0  0  0  0
  7  8  1  0  0  0  0
  7  9  1  0  0  0  0
 29 30  1  0  0  0  0
 29 31  1  0  0  0  0
 29 32  1  0  0  0  0
 27 28  1  0  0  0  0
 27 29  1  0  0  0  0
M  END
$$$$
default_name
  -OEChem-01062215323D

 32 32  0     1  0  0  0  0  0999 V2000
   -3.8405   -3.7518    1.6252 H   0  0  0  0  0  0  0  0  0  0  0  0
   -3.7965   -2.8768    0.9782 C   0  0  0  0  0  0  0  0  0  0  0  0
   -4.5465   -2.1527    1.2902 H   0  0  0  0  0  0  0  0  0  0  0  0
   -3.9745   -3.1748   -0.0538 H   0  0  0  0  0  0  0  0  0  0  0  0
   -2.4245   -2.2537    1.0882 C   0  0  0  0  0  0  0  0  0  0  0  0
   -1.5805   -2.7478    1.8242 O   0  0  0  0  0  0  0  0  0  0  0  0
   -2.2045   -1.1637    0.3562 N   0  0  0  0  0  0  0  0  0  0  0  0
   -2.9595   -0.7907   -0.2008 H   0  0  0  0  0  0  0  0  0  0  0  0
   -0.9485   -0.4087    0.3482 C   0  0  1  0  0  0  0  0  0  0  0  0
   -0.4930   -0.4799    1.3372 H   0  0  0  0  0  0  0  0  0  0  0  0
    0.0147   -1.0355   -0.6745 C   0  0  0  0  0  0  0  0  0  0  0  0
   -0.4868   -1.1008   -1.6411 H   0  0  0  0  0  0  0  0  0  0  0  0
    0.8772   -0.3786   -0.7967 H   0  0  0  0  0  0  0  0  0  0  0  0
    0.4929   -2.4249   -0.2981 C   0  0  0  0  0  0  0  0  0  0  0  0
    1.5456   -2.5922    0.6216 C   0  0  0  0  0  0  0  0  0  0  0  0
    2.0355   -1.7285    1.0487 H   0  0  0  0  0  0  0  0  0  0  0  0
    1.9561   -3.8846    0.9971 C   0  0  0  0  0  0  0  0  0  0  0  0
    2.7663   -4.0108    1.7015 H   0  0  0  0  0  0  0  0  0  0  0  0
    1.3143   -5.0113    0.4556 C   0  0  0  0  0  0  0  0  0  0  0  0
    1.6313   -6.0042    0.7423 H   0  0  0  0  0  0  0  0  0  0  0  0
    0.2631   -4.8477   -0.4649 C   0  0  0  0  0  0  0  0  0  0  0  0
   -0.2268   -5.7137   -0.8854 H   0  0  0  0  0  0  0  0  0  0  0  0
   -0.1448   -3.5560   -0.8425 C   0  0  0  0  0  0  0  0  0  0  0  0
   -0.9514   -3.4315   -1.5532 H   0  0  0  0  0  0  0  0  0  0  0  0
   -1.2048    1.0808    0.0569 C   0  0  0  0  0  0  0  0  0  0  0  0
   -2.3450    1.5403    0.1366 O   0  0  0  0  0  0  0  0  0  0  0  0
   -0.1509    1.8328   -0.2849 N   0  0  0  0  0  0  0  0  0  0  0  0
    0.7410    1.3720   -0.3830 H   0  0  0  0  0  0  0  0  0  0  0  0
   -0.2250    3.2571   -0.6011 C   0  0  0  0  0  0  0  0  0  0  0  0
   -0.7393    3.7880    0.2027 H   0  0  0  0  0  0  0  0  0  0  0  0
    0.7773    3.6695   -0.7205 H   0  0  0  0  0  0  0  0  0  0  0  0
   -0.7858    3.3991   -1.5270 H   0  0  0  0  0  0  0  0  0  0  0  0
  5  6  2  0  0  0  0
  5  7  1  0  0  0  0
  2  3  1  0  0  0  0
  2  4  1  0  0  0  0
  2  5  1  0  0  0  0
  1  2  1  0  0  0  0
 25 26  2  0  0  0  0
 25 27  1  0  0  0  0
 23 24  1  0  0  0  0
 21 22  1  0  0  0  0
 21 23  2  0  0  0  0
 19 20  1  0  0  0  0
 19 21  1  0  0  0  0
 17 18  1  0  0  0  0
 17 19  2  0  0  0  0
 15 16  1  0  0  0  0
 15 17  1  0  0  0  0
 14 15  2  0  0  0  0
 14 23  1  0  0  0  0
 11 12  1  0  0  0  0
 11 13  1  0  0  0  0
 11 14  1  0  0  0  0
  9 10  1  0  0  0  0
  9 11  1  0  0  0  0
  9 25  1  0  0  0  0
  7  8  1  0  0  0  0
  7  9  1  0  0  0  0
 29 30  1  0  0  0  0
 29 31  1  0  0  0  0
 29 32  1  0  0  0  0
 27 28  1  0  0  0  0
 27 29  1  0  0  0  0
M  END
$$$$
default_name
  -OEChem-01062215323D

 32 32  0     1  0  0  0  0  0999 V2000
   -3.8405   -3.7518    1.6252 H   0  0  0  0  0  0  0  0  0  0  0  0
   -3.7965   -2.8768    0.9782 C   0  0  0  0  0  0  0  0  0  0  0  0
   -4.5465   -2.1527    1.2902 H   0  0  0  0  0  0  0  0  0  0  0  0
   -3.9745   -3.1748   -0.0538 H   0  0  0  0  0  0  0  0  0  0  0  0
   -2.4245   -2.2537    1.0882 C   0  0  0  0  0  0  0  0  0  0  0  0
   -1.5805   -2.7478    1.8242 O   0  0  0  0  0  0  0  0  0  0  0  0
   -2.2045   -1.1637    0.3562 N   0  0  0  0  0  0  0  0  0  0  0  0
   -2.9595   -0.7907   -0.2008 H   0  0  0  0  0  0  0  0  0  0  0  0
   -0.9485   -0.4087    0.3482 C   0  0  1  0  0  0  0  0  0  0  0  0
   -0.4930   -0.4799    1.3372 H   0  0  0  0  0  0  0  0  0  0  0  0
    0.0147   -1.0355   -0.6745 C   0  0  0  0  0  0  0  0  0  0  0  0
   -0.4868   -1.1008   -1.6411 H   0  0  0  0  0  0  0  0  0  0  0  0
    0.8772   -0.3786   -0.7967 H   0  0  0  0  0  0  0  0  0  0  0  0
    0.4929   -2.4249   -0.2981 C   0  0  0  0  0  0  0  0  0  0  0  0
    1.5456   -2.5922    0.6216 C   0  0  0  0  0  0  0  0  0  0  0  0
    2.0355   -1.7285    1.0487 H   0  0  0  0  0  0  0  0  0  0  0  0
    1.9561   -3.8846    0.9971 C   0  0  0  0  0  0  0  0  0  0  0  0
    2.7663   -4.0108    1.7015 H   0  0  0  0  0  0  0  0  0  0  0  0
    1.3143   -5.0113    0.4556 C   0  0  0  0  0  0  0  0  0  0  0  0
    1.6313   -6.0042    0.7423 H   0  0  0  0  0  0  0  0  0  0  0  0
    0.2631   -4.8477   -0.4649 C   0  0  0  0  0  0  0  0  0  0  0  0
   -0.2268   -5.7137   -0.8854 H   0  0  0  0  0  0  0  0  0  0  0  0
   -0.1448   -3.5560   -0.8425 C   0  0  0  0  0  0  0  0  0  0  0  0
   -0.9514   -3.4315   -1.5532 H   0  0  0  0  0  0  0  0  0  0  0  0
   -1.2048    1.0808    0.0569 C   0  0  0  0  0  0  0  0  0  0  0  0
   -2.2672    1.6043    0.3956 O   0  0  0  0  0  0  0  0  0  0  0  0
   -0.2390    1.7612   -0.5736 N   0  0  0  0  0  0  0  0  0  0  0  0
    0.5785    1.2492   -0.8682 H   0  0  0  0  0  0  0  0  0  0  0  0
   -0.3283    3.1748   -0.9312 C   0  0  0  0  0  0  0  0  0  0  0  0
   -0.6003    3.7622   -0.0517 H   0  0  0  0  0  0  0  0  0  0  0  0
    0.6287    3.5272   -1.3170 H   0  0  0  0  0  0  0  0  0  0  0  0
   -1.0973    3.3129   -1.6938 H   0  0  0  0  0  0  0  0  0  0  0  0
  5  6  2  0  0  0  0
  5  7  1  0  0  0  0
  2  3  1  0  0  0  0
  2  4  1  0  0  0  0
  2  5  1  0  0  0  0
  1  2  1  0  0  0  0
 25 26  2  0  0  0  0
 25 27  1  0  0  0  0
 23 24  1  0  0  0  0
 21 22  1  0  0  0  0
 21 23  2  0  0  0  0
 19 20  1  0  0  0  0
 19 21  1  0  0  0  0
 17 18  1  0  0  0  0
 17 19  2  0  0  0  0
 15 16  1  0  0  0  0
 15 17  1  0  0  0  0
 14 15  2  0  0  0  0
 14 23  1  0  0  0  0
 11 12  1  0  0  0  0
 11 13  1  0  0  0  0
 11 14  1  0  0  0  0
  9 10  1  0  0  0  0
  9 11  1  0  0  0  0
  9 25  1  0  0  0  0
  7  8  1  0  0  0  0
  7  9  1  0  0  0  0
 29 30  1  0  0  0  0
 29 31  1  0  0  0  0
 29 32  1  0  0  0  0
 27 28  1  0  0  0  0
 27 29  1  0  0  0  0
M  END
$$$$
default_name
  -OEChem-01062215323D

 32 32  0     1  0  0  0  0  0999 V2000
   -3.8405   -3.7518    1.6252 H   0  0  0  0  0  0  0  0  0  0  0  0
   -3.7965   -2.8768    0.9782 C   0  0  0  0  0  0  0  0  0  0  0  0
   -4.5465   -2.1527    1.2902 H   0  0  0  0  0  0  0  0  0  0  0  0
   -3.9745   -3.1748   -0.0538 H   0  0  0  0  0  0  0  0  0  0  0  0
   -2.4245   -2.2537    1.0882 C   0  0  0  0  0  0  0  0  0  0  0  0
   -1.5805   -2.7478    1.8242 O   0  0  0  0  0  0  0  0  0  0  0  0
   -2.2045   -1.1637    0.3562 N   0  0  0  0  0  0  0  0  0  0  0  0
   -2.9595   -0.7907   -0.2008 H   0  0  0  0  0  0  0  0  0  0  0  0
   -0.9485   -0.4087    0.3482 C   0  0  1  0  0  0  0  0  0  0  0  0
   -0.4930   -0.4799    1.3372 H   0  0  0  0  0  0  0  0  0  0  0  0
    0.0147   -1.0355   -0.6745 C   0  0  0  0  0  0  0  0  0  0  0  0
   -0.4868   -1.1008   -1.6411 H   0  0  0  0  0  0  0  0  0  0  0  0
    0.8772   -0.3786   -0.7967 H   0  0  0  0  0  0  0  0  0  0  0  0
    0.4929   -2.4249   -0.2981 C   0  0  0  0  0  0  0  0  0  0  0  0
    1.5456   -2.5922    0.6216 C   0  0  0  0  0  0  0  0  0  0  0  0
    2.0355   -1.7285    1.0487 H   0  0  0  0  0  0  0  0  0  0  0  0
    1.9561   -3.8846    0.9971 C   0  0  0  0  0  0  0  0  0  0  0  0
    2.7663   -4.0108    1.7015 H   0  0  0  0  0  0  0  0  0  0  0  0
    1.3143   -5.0113    0.4556 C   0  0  0  0  0  0  0  0  0  0  0  0
    1.6313   -6.0042    0.7423 H   0  0  0  0  0  0  0  0  0  0  0  0
    0.2631   -4.8477   -0.4649 C   0  0  0  0  0  0  0  0  0  0  0  0
   -0.2268   -5.7137   -0.8854 H   0  0  0  0  0  0  0  0  0  0  0  0
   -0.1448   -3.5560   -0.8425 C   0  0  0  0  0  0  0  0  0  0  0  0
   -0.9514   -3.4315   -1.5532 H   0  0  0  0  0  0  0  0  0  0  0  0
   -1.2048    1.0808    0.0569 C   0  0  0  0  0  0  0  0  0  0  0  0
   -2.1240    1.6735    0.6236 O   0  0  0  0  0  0  0  0  0  0  0  0
   -0.4001    1.6839   -0.8273 N   0  0  0  0  0  0  0  0  0  0  0  0
    0.2940    1.1176   -1.2909 H   0  0  0  0  0  0  0  0  0  0  0  0
   -0.5149    3.0861   -1.2207 C   0  0  0  0  0  0  0  0  0  0  0  0
   -0.5311    3.7195   -0.3312 H   0  0  0  0  0  0  0  0  0  0  0  0
    0.3287    3.3715   -1.8498 H   0  0  0  0  0  0  0  0  0  0  0  0
   -1.4442    3.2376   -1.7732 H   0  0  0  0  0  0  0  0  0  0  0  0
  5  6  2  0  0  0  0
  5  7  1  0  0  0  0
  2  3  1  0  0  0  0
  2  4  1  0  0  0  0
  2  5  1  0  0  0  0
  1  2  1  0  0  0  0
 25 26  2  0  0  0  0
 25 27  1  0  0  0  0
 23 24  1  0  0  0  0
 21 22  1  0  0  0  0
 21 23  2  0  0  0  0
 19 20  1  0  0  0  0
 19 21  1  0  0  0  0
 17 18  1  0  0  0  0
 17 19  2  0  0  0  0
 15 16  1  0  0  0  0
 15 17  1  0  0  0  0
 14 15  2  0  0  0  0
 14 23  1  0  0  0  0
 11 12  1  0  0  0  0
 11 13  1  0  0  0  0
 11 14  1  0  0  0  0
  9 10  1  0  0  0  0
  9 11  1  0  0  0  0
  9 25  1  0  0  0  0
  7  8  1  0  0  0  0
  7  9  1  0  0  0  0
 29 30  1  0  0  0  0
 29 31  1  0  0  0  0
 29 32  1  0  0  0  0
 27 28  1  0  0  0  0
 27 29  1  0  0  0  0
M  END
$$$$
default_name
  -OEChem-01062215323D

 32 32  0     1  0  0  0  0  0999 V2000
   -3.8405   -3.7518    1.6252 H   0  0  0  0  0  0  0  0  0  0  0  0
   -3.7965   -2.8768    0.9782 C   0  0  0  0  0  0  0  0  0  0  0  0
   -4.5465   -2.1527    1.2902 H   0  0  0  0  0  0  0  0  0  0  0  0
   -3.9745   -3.1748   -0.0538 H   0  0  0  0  0  0  0  0  0  0  0  0
   -2.4245   -2.2537    1.0882 C   0  0  0  0  0  0  0  0  0  0  0  0
   -1.5805   -2.7478    1.8242 O   0  0  0  0  0  0  0  0  0  0  0  0
   -2.2045   -1.1637    0.3562 N   0  0  0  0  0  0  0  0  0  0  0  0
   -2.9595   -0.7907   -0.2008 H   0  0  0  0  0  0  0  0  0  0  0  0
   -0.9485   -0.4087    0.3482 C   0  0  1  0  0  0  0  0  0  0  0  0
   -0.4930   -0.4799    1.3372 H   0  0  0  0  0  0  0  0  0  0  0  0
    0.0147   -1.0355   -0.6745 C   0  0  0  0  0  0  0  0  0  0  0  0
   -0.4868   -1.1008   -1.6411 H   0  0  0  0  0  0  0  0  0  0  0  0
    0.8772   -0.3786   -0.7967 H   0  0  0  0  0  0  0  0  0  0  0  0
    0.4929   -2.4249   -0.2981 C   0  0  0  0  0  0  0  0  0  0  0  0
    1.5456   -2.5922    0.6216 C   0  0  0  0  0  0  0  0  0  0  0  0
    2.0355   -1.7285    1.0487 H   0  0  0  0  0  0  0  0  0  0  0  0
    1.9561   -3.8846    0.9971 C   0  0  0  0  0  0  0  0  0  0  0  0
    2.7663   -4.0108    1.7015 H   0  0  0  0  0  0  0  0  0  0  0  0
    1.3143   -5.0113    0.4556 C   0  0  0  0  0  0  0  0  0  0  0  0
    1.6313   -6.0042    0.7423 H   0  0  0  0  0  0  0  0  0  0  0  0
    0.2631   -4.8477   -0.4649 C   0  0  0  0  0  0  0  0  0  0  0  0
   -0.2268   -5.7137   -0.8854 H   0  0  0  0  0  0  0  0  0  0  0  0
   -0.1448   -3.5560   -0.8425 C   0  0  0  0  0  0  0  0  0  0  0  0
   -0.9514   -3.4315   -1.5532 H   0  0  0  0  0  0  0  0  0  0  0  0
   -1.2048    1.0808    0.0569 C   0  0  0  0  0  0  0  0  0  0  0  0
   -1.9253    1.7432    0.8050 O   0  0  0  0  0  0  0  0  0  0  0  0
   -0.6229    1.6061   -1.0287 N   0  0  0  0  0  0  0  0  0  0  0  0
   -0.0930    0.9862   -1.6222 H   0  0  0  0  0  0  0  0  0  0  0  0
   -0.7719    2.9971   -1.4497 C   0  0  0  0  0  0  0  0  0  0  0  0
   -0.5363    3.6627   -0.6166 H   0  0  0  0  0  0  0  0  0  0  0  0
   -0.1021    3.2127   -2.2826 H   0  0  0  0  0  0  0  0  0  0  0  0
   -1.8028    3.1786   -1.7598 H   0  0  0  0  0  0  0  0  0  0  0  0
  5  6  2  0  0  0  0
  5  7  1  0  0  0  0
  2  3  1  0  0  0  0
  2  4  1  0  0  0  0
  2  5  1  0  0  0  0
  1  2  1  0  0  0  0
 25 26  2  0  0  0  0
 25 27  1  0  0  0  0
 23 24  1  0  0  0  0
 21 22  1  0  0  0  0
 21 23  2  0  0  0  0
 19 20  1  0  0  0  0
 19 21  1  0  0  0  0
 17 18  1  0  0  0  0
 17 19  2  0  0  0  0
 15 16  1  0  0  0  0
 15 17  1  0  0  0  0
 14 15  2  0  0  0  0
 14 23  1  0  0  0  0
 11 12  1  0  0  0  0
 11 13  1  0  0  0  0
 11 14  1  0  0  0  0
  9 10  1  0  0  0  0
  9 11  1  0  0  0  0
  9 25  1  0  0  0  0
  7  8  1  0  0  0  0
  7  9  1  0  0  0  0
 29 30  1  0  0  0  0
 29 31  1  0  0  0  0
 29 32  1  0  0  0  0
 27 28  1  0  0  0  0
 27 29  1  0  0  0  0
M  END
$$$$
default_name
  -OEChem-01062215323D

 32 32  0     1  0  0  0  0  0999 V2000
   -3.8405   -3.7518    1.6252 H   0  0  0  0  0  0  0  0  0  0  0  0
   -3.7965   -2.8768    0.9782 C   0  0  0  0  0  0  0  0  0  0  0  0
   -4.5465   -2.1527    1.2902 H   0  0  0  0  0  0  0  0  0  0  0  0
   -3.9745   -3.1748   -0.0538 H   0  0  0  0  0  0  0  0  0  0  0  0
   -2.4245   -2.2537    1.0882 C   0  0  0  0  0  0  0  0  0  0  0  0
   -1.5805   -2.7478    1.8242 O   0  0  0  0  0  0  0  0  0  0  0  0
   -2.2045   -1.1637    0.3562 N   0  0  0  0  0  0  0  0  0  0  0  0
   -2.9595   -0.7907   -0.2008 H   0  0  0  0  0  0  0  0  0  0  0  0
   -0.9485   -0.4087    0.3482 C   0  0  1  0  0  0  0  0  0  0  0  0
   -0.4930   -0.4799    1.3372 H   0  0  0  0  0  0  0  0  0  0  0  0
    0.0147   -1.0355   -0.6745 C   0  0  0  0  0  0  0  0  0  0  0  0
   -0.4868   -1.1008   -1.6411 H   0  0  0  0  0  0  0  0  0  0  0  0
    0.8772   -0.3786   -0.7967 H   0  0  0  0  0  0  0  0  0  0  0  0
    0.4929   -2.4249   -0.2981 C   0  0  0  0  0  0  0  0  0  0  0  0
    1.5456   -2.5922    0.6216 C   0  0  0  0  0  0  0  0  0  0  0  0
    2.0355   -1.7285    1.0487 H   0  0  0  0  0  0  0  0  0  0  0  0
    1.9561   -3.8846    0.9971 C   0  0  0  0  0  0  0  0  0  0  0  0
    2.7663   -4.0108    1.7015 H   0  0  0  0  0  0  0  0  0  0  0  0
    1.3143   -5.0113    0.4556 C   0  0  0  0  0  0  0  0  0  0  0  0
    1.6313   -6.0042    0.7423 H   0  0  0  0  0  0  0  0  0  0  0  0
    0.2631   -4.8477   -0.4649 C   0  0  0  0  0  0  0  0  0  0  0  0
   -0.2268   -5.7137   -0.8854 H   0  0  0  0  0  0  0  0  0  0  0  0
   -0.1448   -3.5560   -0.8425 C   0  0  0  0  0  0  0  0  0  0  0  0
   -0.9514   -3.4315   -1.5532 H   0  0  0  0  0  0  0  0  0  0  0  0
   -1.2048    1.0808    0.0569 C   0  0  0  0  0  0  0  0  0  0  0  0
   -1.6844    1.8086    0.9274 O   0  0  0  0  0  0  0  0  0  0  0  0
   -0.8924    1.5333   -1.1641 N   0  0  0  0  0  0  0  0  0  0  0  0
   -0.5563    0.8640   -1.8396 H   0  0  0  0  0  0  0  0  0  0  0  0
   -1.0819    2.9139   -1.6027 C   0  0  0  0  0  0  0  0  0  0  0  0
   -0.6156    3.5959   -0.8886 H   0  0  0  0  0  0  0  0  0  0  0  0
   -0.6344    3.0618   -2.5859 H   0  0  0  0  0  0  0  0  0  0  0  0
   -2.1488    3.1396   -1.6544 H   0  0  0  0  0  0  0  0  0  0  0  0
  5  6  2  0  0  0  0
  5  7  1  0  0  0  0
  2  3  1  0  0  0  0
  2  4  1  0  0  0  0
  2  5  1  0  0  0  0
  1  2  1  0  0  0  0
 25 26  2  0  0  0  0
 25 27  1  0  0  0  0
 23 24  1  0  0  0  0
 21 22  1  0  0  0  0
 21 23  2  0  0  0  0
 19 20  1  0  0  0  0
 19 21  1  0  0  0  0
 17 18  1  0  0  0  0
 17 19  2  0  0  0  0
 15 16  1  0  0  0  0
 15 17  1  0  0  0  0
 14 15  2  0  0  0  0
 14 23  1  0  0  0  0
 11 12  1  0  0  0  0
 11 13  1  0  0  0  0
 11 14  1  0  0  0  0
  9 10  1  0  0  0  0
  9 11  1  0  0  0  0
  9 25  1  0  0  0  0
  7  8  1  0  0  0  0
  7  9  1  0  0  0  0
 29 30  1  0  0  0  0
 29 31  1  0  0  0  0
 29 32  1  0  0  0  0
 27 28  1  0  0  0  0
 27 29  1  0  0  0  0
M  END
$$$$
default_name
  -OEChem-01062215323D

 32 32  0     1  0  0  0  0  0999 V2000
   -3.8405   -3.7518    1.6252 H   0  0  0  0  0  0  0  0  0  0  0  0
   -3.7965   -2.8768    0.9782 C   0  0  0  0  0  0  0  0  0  0  0  0
   -4.5465   -2.1527    1.2902 H   0  0  0  0  0  0  0  0  0  0  0  0
   -3.9745   -3.1748   -0.0538 H   0  0  0  0  0  0  0  0  0  0  0  0
   -2.4245   -2.2537    1.0882 C   0  0  0  0  0  0  0  0  0  0  0  0
   -1.5805   -2.7478    1.8242 O   0  0  0  0  0  0  0  0  0  0  0  0
   -2.2045   -1.1637    0.3562 N   0  0  0  0  0  0  0  0  0  0  0  0
   -2.9595   -0.7907   -0.2008 H   0  0  0  0  0  0  0  0  0  0  0  0
   -0.9485   -0.4087    0.3482 C   0  0  1  0  0  0  0  0  0  0  0  0
   -0.4930   -0.4799    1.3372 H   0  0  0  0  0  0  0  0  0  0  0  0
    0.0147   -1.0355   -0.6745 C   0  0  0  0  0  0  0  0  0  0  0  0
   -0.4868   -1.1008   -1.6411 H   0  0  0  0  0  0  0  0  0  0  0  0
    0.8772   -0.3786   -0.7967 H   0  0  0  0  0  0  0  0  0  0  0  0
    0.4929   -2.4249   -0.2981 C   0  0  0  0  0  0  0  0  0  0  0  0
    1.5456   -2.5922    0.6216 C   0  0  0  0  0  0  0  0  0  0  0  0
    2.0355   -1.7285    1.0487 H   0  0  0  0  0  0  0  0  0  0  0  0
    1.9561   -3.8846    0.9971 C   0  0  0  0  0  0  0  0  0  0  0  0
    2.7663   -4.0108    1.7015 H   0  0  0  0  0  0  0  0  0  0  0  0
    1.3143   -5.0113    0.4556 C   0  0  0  0  0  0  0  0  0  0  0  0
    1.6313   -6.0042    0.7423 H   0  0  0  0  0  0  0  0  0  0  0  0
    0.2631   -4.8477   -0.4649 C   0  0  0  0  0  0  0  0  0  0  0  0
   -0.2268   -5.7137   -0.8854 H   0  0  0  0  0  0  0  0  0  0  0  0
   -0.1448   -3.5560   -0.8425 C   0  0  0  0  0  0  0  0  0  0  0  0
   -0.9514   -3.4315   -1.5532 H   0  0  0  0  0  0  0  0  0  0  0  0
   -1.2048    1.0808    0.0569 C   0  0  0  0  0  0  0  0  0  0  0  0
   -1.4179    1.8652    0.9825 O   0  0  0  0  0  0  0  0  0  0  0  0
   -1.1902    1.4703   -1.2242 N   0  0  0  0  0  0  0  0  0  0  0  0
   -1.0643    0.7592   -1.9283 H   0  0  0  0  0  0  0  0  0  0  0  0
   -1.4237    2.8420   -1.6692 C   0  0  0  0  0  0  0  0  0  0  0  0
   -0.7636    3.5235   -1.1286 H   0  0  0  0  0  0  0  0  0  0  0  0
   -1.2319    2.9290   -2.7390 H   0  0  0  0  0  0  0  0  0  0  0  0
   -2.4584    3.1235   -1.4644 H   0  0  0  0  0  0  0  0  0  0  0  0
  5  6  2  0  0  0  0
  5  7  1  0  0  0  0
  2  3  1  0  0  0  0
  2  4  1  0  0  0  0
  2  5  1  0  0  0  0
  1  2  1  0  0  0  0
 25 26  2  0  0  0  0
 25 27  1  0  0  0  0
 23 24  1  0  0  0  0
 21 22  1  0  0  0  0
 21 23  2  0  0  0  0
 19 20  1  0  0  0  0
 19 21  1  0  0  0  0
 17 18  1  0  0  0  0
 17 19  2  0  0  0  0
 15 16  1  0  0  0  0
 15 17  1  0  0  0  0
 14 15  2  0  0  0  0
 14 23  1  0  0  0  0
 11 12  1  0  0  0  0
 11 13  1  0  0  0  0
 11 14  1  0  0  0  0
  9 10  1  0  0  0  0
  9 11  1  0  0  0  0
  9 25  1  0  0  0  0
  7  8  1  0  0  0  0
  7  9  1  0  0  0  0
 29 30  1  0  0  0  0
 29 31  1  0  0  0  0
 29 32  1  0  0  0  0
 27 28  1  0  0  0  0
 27 29  1  0  0  0  0
M  END
$$$$
default_name
  -OEChem-01062215323D

 32 32  0     1  0  0  0  0  0999 V2000
   -3.8405   -3.7518    1.6252 H   0  0  0  0  0  0  0  0  0  0  0  0
   -3.7965   -2.8768    0.9782 C   0  0  0  0  0  0  0  0  0  0  0  0
   -4.5465   -2.1527    1.2902 H   0  0  0  0  0  0  0  0  0  0  0  0
   -3.9745   -3.1748   -0.0538 H   0  0  0  0  0  0  0  0  0  0  0  0
   -2.4245   -2.2537    1.0882 C   0  0  0  0  0  0  0  0  0  0  0  0
   -1.5805   -2.7478    1.8242 O   0  0  0  0  0  0  0  0  0  0  0  0
   -2.2045   -1.1637    0.3562 N   0  0  0  0  0  0  0  0  0  0  0  0
   -2.9595   -0.7907   -0.2008 H   0  0  0  0  0  0  0  0  0  0  0  0
   -0.9485   -0.4087    0.3482 C   0  0  1  0  0  0  0  0  0  0  0  0
   -0.4930   -0.4799    1.3372 H   0  0  0  0  0  0  0  0  0  0  0  0
    0.0147   -1.0355   -0.6745 C   0  0  0  0  0  0  0  0  0  0  0  0
   -0.4868   -1.1008   -1.6411 H   0  0  0  0  0  0  0  0  0  0  0  0
    0.8772   -0.3786   -0.7967 H   0  0  0  0  0  0  0  0  0  0  0  0
    0.4929   -2.4249   -0.2981 C   0  0  0  0  0  0  0  0  0  0  0  0
    1.5456   -2.5922    0.6216 C   0  0  0  0  0  0  0  0  0  0  0  0
    2.0355   -1.7285    1.0487 H   0  0  0  0  0  0  0  0  0  0  0  0
    1.9561   -3.8846    0.9971 C   0  0  0  0  0  0  0  0  0  0  0  0
    2.7663   -4.0108    1.7015 H   0  0  0  0  0  0  0  0  0  0  0  0
    1.3143   -5.0113    0.4556 C   0  0  0  0  0  0  0  0  0  0  0  0
    1.6313   -6.0042    0.7423 H   0  0  0  0  0  0  0  0  0  0  0  0
    0.2631   -4.8477   -0.4649 C   0  0  0  0  0  0  0  0  0  0  0  0
   -0.2268   -5.7137   -0.8854 H   0  0  0  0  0  0  0  0  0  0  0  0
   -0.1448   -3.5560   -0.8425 C   0  0  0  0  0  0  0  0  0  0  0  0
   -0.9514   -3.4315   -1.5532 H   0  0  0  0  0  0  0  0  0  0  0  0
   -1.2048    1.0808    0.0569 C   0  0  0  0  0  0  0  0  0  0  0  0
   -1.1439    1.9092    0.9666 O   0  0  0  0  0  0  0  0  0  0  0  0
   -1.4960    1.4214   -1.2049 N   0  0  0  0  0  0  0  0  0  0  0  0
   -1.5823    0.6791   -1.8823 H   0  0  0  0  0  0  0  0  0  0  0  0
   -1.7741    2.7865   -1.6448 C   0  0  0  0  0  0  0  0  0  0  0  0
   -0.9702    3.4505   -1.3202 H   0  0  0  0  0  0  0  0  0  0  0  0
   -1.8539    2.8235   -2.7316 H   0  0  0  0  0  0  0  0  0  0  0  0
   -2.7107    3.1313   -1.2025 H   0  0  0  0  0  0  0  0  0  0  0  0
  5  6  2  0  0  0  0
  5  7  1  0  0  0  0
  2  3  1  0  0  0  0
  2  4  1  0  0  0  0
  2  5  1  0  0  0  0
  1  2  1  0  0  0  0
 25 26  2  0  0  0  0
 25 27  1  0  0  0  0
 23 24  1  0  0  0  0
 21 22  1  0  0  0  0
 21 23  2  0  0  0  0
 19 20  1  0  0  0  0
 19 21  1  0  0  0  0
 17 18  1  0  0  0  0
 17 19  2  0  0  0  0
 15 16  1  0  0  0  0
 15 17  1  0  0  0  0
 14 15  2  0  0  0  0
 14 23  1  0  0  0  0
 11 12  1  0  0  0  0
 11 13  1  0  0  0  0
 11 14  1  0  0  0  0
  9 10  1  0  0  0  0
  9 11  1  0  0  0  0
  9 25  1  0  0  0  0
  7  8  1  0  0  0  0
  7  9  1  0  0  0  0
 29 30  1  0  0  0  0
 29 31  1  0  0  0  0
 29 32  1  0  0  0  0
 27 28  1  0  0  0  0
 27 29  1  0  0  0  0
M  END
$$$$
default_name
  -OEChem-01062215323D

 32 32  0     1  0  0  0  0  0999 V2000
   -3.8405   -3.7518    1.6252 H   0  0  0  0  0  0  0  0  0  0  0  0
   -3.7965   -2.8768    0.9782 C   0  0  0  0  0  0  0  0  0  0  0  0
   -4.5465   -2.1527    1.2902 H   0  0  0  0  0  0  0  0  0  0  0  0
   -3.9745   -3.1748   -0.0538 H   0  0  0  0  0  0  0  0  0  0  0  0
   -2.4245   -2.2537    1.0882 C   0  0  0  0  0  0  0  0  0  0  0  0
   -1.5805   -2.7478    1.8242 O   0  0  0  0  0  0  0  0  0  0  0  0
   -2.2045   -1.1637    0.3562 N   0  0  0  0  0  0  0  0  0  0  0  0
   -2.9595   -0.7907   -0.2008 H   0  0  0  0  0  0  0  0  0  0  0  0
   -0.9485   -0.4087    0.3482 C   0  0  1  0  0  0  0  0  0  0  0  0
   -0.4930   -0.4799    1.3372 H   0  0  0  0  0  0  0  0  0  0  0  0
    0.0147   -1.0355   -0.6745 C   0  0  0  0  0  0  0  0  0  0  0  0
   -0.4868   -1.1008   -1.6411 H   0  0  0  0  0  0  0  0  0  0  0  0
    0.8772   -0.3786   -0.7967 H   0  0  0  0  0  0  0  0  0  0  0  0
    0.4929   -2.4249   -0.2981 C   0  0  0  0  0  0  0  0  0  0  0  0
    1.5456   -2.5922    0.6216 C   0  0  0  0  0  0  0  0  0  0  0  0
    2.0355   -1.7285    1.0487 H   0  0  0  0  0  0  0  0  0  0  0  0
    1.9561   -3.8846    0.9971 C   0  0  0  0  0  0  0  0  0  0  0  0
    2.7663   -4.0108    1.7015 H   0  0  0  0  0  0  0  0  0  0  0  0
    1.3143   -5.0113    0.4556 C   0  0  0  0  0  0  0  0  0  0  0  0
    1.6313   -6.0042    0.7423 H   0  0  0  0  0  0  0  0  0  0  0  0
    0.2631   -4.8477   -0.4649 C   0  0  0  0  0  0  0  0  0  0  0  0
   -0.2268   -5.7137   -0.8854 H   0  0  0  0  0  0  0  0  0  0  0  0
   -0.1448   -3.5560   -0.8425 C   0  0  0  0  0  0  0  0  0  0  0  0
   -0.9514   -3.4315   -1.5532 H   0  0  0  0  0  0  0  0  0  0  0  0
   -1.2048    1.0808    0.0569 C   0  0  0  0  0  0  0  0  0  0  0  0
   -0.8811    1.9377    0.8807 O   0  0  0  0  0  0  0  0  0  0  0  0
   -1.7889    1.3901   -1.1077 N   0  0  0  0  0  0  0  0  0  0  0  0
   -2.0751    0.6291   -1.7046 H   0  0  0  0  0  0  0  0  0  0  0  0
   -2.1091    2.7511   -1.5311 C   0  0  0  0  0  0  0  0  0  0  0  0
   -1.2213    3.3819   -1.4504 H   0  0  0  0  0  0  0  0  0  0  0  0
   -2.4581    2.7523   -2.5641 H   0  0  0  0  0  0  0  0  0  0  0  0
   -2.8885    3.1625   -0.8867 H   0  0  0  0  0  0  0  0  0  0  0  0
  5  6  2  0  0  0  0
  5  7  1  0  0  0  0
  2  3  1  0  0  0  0
  2  4  1  0  0  0  0
  2  5  1  0  0  0  0
  1  2  1  0  0  0  0
 25 26  2  0  0  0  0
 25 27  1  0  0  0  0
 23 24  1  0  0  0  0
 21 22  1  0  0  0  0
 21 23  2  0  0  0  0
 19 20  1  0  0  0  0
 19 21  1  0  0  0  0
 17 18  1  0  0  0  0
 17 19  2  0  0  0  0
 15 16  1  0  0  0  0
 15 17  1  0  0  0  0
 14 15  2  0  0  0  0
 14 23  1  0  0  0  0
 11 12  1  0  0  0  0
 11 13  1  0  0  0  0
 11 14  1  0  0  0  0
  9 10  1  0  0  0  0
  9 11  1  0  0  0  0
  9 25  1  0  0  0  0
  7  8  1  0  0  0  0
  7  9  1  0  0  0  0
 29 30  1  0  0  0  0
 29 31  1  0  0  0  0
 29 32  1  0  0  0  0
 27 28  1  0  0  0  0
 27 29  1  0  0  0  0
M  END
$$$$
default_name
  -OEChem-01062215323D

 32 32  0     1  0  0  0  0  0999 V2000
   -3.8405   -3.7518    1.6252 H   0  0  0  0  0  0  0  0  0  0  0  0
   -3.7965   -2.8768    0.9782 C   0  0  0  0  0  0  0  0  0  0  0  0
   -4.5465   -2.1527    1.2902 H   0  0  0  0  0  0  0  0  0  0  0  0
   -3.9745   -3.1748   -0.0538 H   0  0  0  0  0  0  0  0  0  0  0  0
   -2.4245   -2.2537    1.0882 C   0  0  0  0  0  0  0  0  0  0  0  0
   -1.5805   -2.7478    1.8242 O   0  0  0  0  0  0  0  0  0  0  0  0
   -2.2045   -1.1637    0.3562 N   0  0  0  0  0  0  0  0  0  0  0  0
   -2.9595   -0.7907   -0.2008 H   0  0  0  0  0  0  0  0  0  0  0  0
   -0.9485   -0.4087    0.3482 C   0  0  1  0  0  0  0  0  0  0  0  0
   -0.4930   -0.4799    1.3372 H   0  0  0  0  0  0  0  0  0  0  0  0
    0.0147   -1.0355   -0.6745 C   0  0  0  0  0  0  0  0  0  0  0  0
   -0.4868   -1.1008   -1.6411 H   0  0  0  0  0  0  0  0  0  0  0  0
    0.8772   -0.3786   -0.7967 H   0  0  0  0  0  0  0  0  0  0  0  0
    0.4929   -2.4249   -0.2981 C   0  0  0  0  0  0  0  0  0  0  0  0
    1.5456   -2.5922    0.6216 C   0  0  0  0  0  0  0  0  0  0  0  0
    2.0355   -1.7285    1.0487 H   0  0  0  0  0  0  0  0  0  0  0  0
    1.9561   -3.8846    0.9971 C   0  0  0  0  0  0  0  0  0  0  0  0
    2.7663   -4.0108    1.7015 H   0  0  0  0  0  0  0  0  0  0  0  0
    1.3143   -5.0113    0.4556 C   0  0  0  0  0  0  0  0  0  0  0  0
    1.6313   -6.0042    0.7423 H   0  0  0  0  0  0  0  0  0  0  0  0
    0.2631   -4.8477   -0.4649 C   0  0  0  0  0  0  0  0  0  0  0  0
   -0.2268   -5.7137   -0.8854 H   0  0  0  0  0  0  0  0  0  0  0  0
   -0.1448   -3.5560   -0.8425 C   0  0  0  0  0  0  0  0  0  0  0  0
   -0.9514   -3.4315   -1.5532 H   0  0  0  0  0  0  0  0  0  0  0  0
   -1.2048    1.0808    0.0569 C   0  0  0  0  0  0  0  0  0  0  0  0
   -0.6474    1.9485    0.7306 O   0  0  0  0  0  0  0  0  0  0  0  0
   -2.0491    1.3783   -0.9390 N   0  0  0  0  0  0  0  0  0  0  0  0
   -2.5090    0.6125   -1.4074 H   0  0  0  0  0  0  0  0  0  0  0  0
   -2.4059    2.7382   -1.3358 C   0  0  0  0  0  0  0  0  0  0  0  0
   -1.4998    3.3222   -1.5102 H   0  0  0  0  0  0  0  0  0  0  0  0
   -3.0032    2.7203   -2.2479 H   0  0  0  0  0  0  0  0  0  0  0  0
   -2.9796    3.2149   -0.5385 H   0  0  0  0  0  0  0  0  0  0  0  0
  5  6  2  0  0  0  0
  5  7  1  0  0  0  0
  2  3  1  0  0  0  0
  2  4  1  0  0  0  0
  2  5  1  0  0  0  0
  1  2  1  0  0  0  0
 25 26  2  0  0  0  0
 25 27  1  0  0  0  0
 23 24  1  0  0  0  0
 21 22  1  0  0  0  0
 21 23  2  0  0  0  0
 19 20  1  0  0  0  0
 19 21  1  0  0  0  0
 17 18  1  0  0  0  0
 17 19  2  0  0  0  0
 15 16  1  0  0  0  0
 15 17  1  0  0  0  0
 14 15  2  0  0  0  0
 14 23  1  0  0  0  0
 11 12  1  0  0  0  0
 11 13  1  0  0  0  0
 11 14  1  0  0  0  0
  9 10  1  0  0  0  0
  9 11  1  0  0  0  0
  9 25  1  0  0  0  0
  7  8  1  0  0  0  0
  7  9  1  0  0  0  0
 29 30  1  0  0  0  0
 29 31  1  0  0  0  0
 29 32  1  0  0  0  0
 27 28  1  0  0  0  0
 27 29  1  0  0  0  0
M  END
$$$$
default_name
  -OEChem-01062215323D

 32 32  0     1  0  0  0  0  0999 V2000
   -3.8405   -3.7518    1.6252 H   0  0  0  0  0  0  0  0  0  0  0  0
   -3.7965   -2.8768    0.9782 C   0  0  0  0  0  0  0  0  0  0  0  0
   -4.5465   -2.1527    1.2902 H   0  0  0  0  0  0  0  0  0  0  0  0
   -3.9745   -3.1748   -0.0538 H   0  0  0  0  0  0  0  0  0  0  0  0
   -2.4245   -2.2537    1.0882 C   0  0  0  0  0  0  0  0  0  0  0  0
   -1.5805   -2.7478    1.8242 O   0  0  0  0  0  0  0  0  0  0  0  0
   -2.2045   -1.1637    0.3562 N   0  0  0  0  0  0  0  0  0  0  0  0
   -2.9595   -0.7907   -0.2008 H   0  0  0  0  0  0  0  0  0  0  0  0
   -0.9485   -0.4087    0.3482 C   0  0  1  0  0  0  0  0  0  0  0  0
   -0.4930   -0.4799    1.3372 H   0  0  0  0  0  0  0  0  0  0  0  0
    0.0147   -1.0355   -0.6745 C   0  0  0  0  0  0  0  0  0  0  0  0
   -0.4868   -1.1008   -1.6411 H   0  0  0  0  0  0  0  0  0  0  0  0
    0.8772   -0.3786   -0.7967 H   0  0  0  0  0  0  0  0  0  0  0  0
    0.4929   -2.4249   -0.2981 C   0  0  0  0  0  0  0  0  0  0  0  0
    1.5456   -2.5922    0.6216 C   0  0  0  0  0  0  0  0  0  0  0  0
    2.0355   -1.7285    1.0487 H   0  0  0  0  0  0  0  0  0  0  0  0
    1.9561   -3.8846    0.9971 C   0  0  0  0  0  0  0  0  0  0  0  0
    2.7663   -4.0108    1.7015 H   0  0  0  0  0  0  0  0  0  0  0  0
    1.3143   -5.0113    0.4556 C   0  0  0  0  0  0  0  0  0  0  0  0
    1.6313   -6.0042    0.7423 H   0  0  0  0  0  0  0  0  0  0  0  0
    0.2631   -4.8477   -0.4649 C   0  0  0  0  0  0  0  0  0  0  0  0
   -0.2268   -5.7137   -0.8854 H   0  0  0  0  0  0  0  0  0  0  0  0
   -0.1448   -3.5560   -0.8425 C   0  0  0  0  0  0  0  0  0  0  0  0
   -0.9514   -3.4315   -1.5532 H   0  0  0  0  0  0  0  0  0  0  0  0
   -1.2048    1.0808    0.0569 C   0  0  0  0  0  0  0  0  0  0  0  0
   -0.4587    1.9411    0.5266 O   0  0  0  0  0  0  0  0  0  0  0  0
   -2.2587    1.3869   -0.7104 N   0  0  0  0  0  0  0  0  0  0  0  0
   -2.8545    0.6306   -1.0110 H   0  0  0  0  0  0  0  0  0  0  0  0
   -2.6444    2.7487   -1.0723 C   0  0  0  0  0  0  0  0  0  0  0  0
   -1.7868    3.2757   -1.4958 H   0  0  0  0  0  0  0  0  0  0  0  0
   -3.4520    2.7298   -1.8045 H   0  0  0  0  0  0  0  0  0  0  0  0
   -2.9778    3.2850   -0.1817 H   0  0  0  0  0  0  0  0  0  0  0  0
  5  6  2  0  0  0  0
  5  7  1  0  0  0  0
  2  3  1  0  0  0  0
  2  4  1  0  0  0  0
  2  5  1  0  0  0  0
  1  2  1  0  0  0  0
 25 26  2  0  0  0  0
 25 27  1  0  0  0  0
 23 24  1  0  0  0  0
 21 22  1  0  0  0  0
 21 23  2  0  0  0  0
 19 20  1  0  0  0  0
 19 21  1  0  0  0  0
 17 18  1  0  0  0  0
 17 19  2  0  0  0  0
 15 16  1  0  0  0  0
 15 17  1  0  0  0  0
 14 15  2  0  0  0  0
 14 23  1  0  0  0  0
 11 12  1  0  0  0  0
 11 13  1  0  0  0  0
 11 14  1  0  0  0  0
  9 10  1  0  0  0  0
  9 11  1  0  0  0  0
  9 25  1  0  0  0  0
  7  8  1  0  0  0  0
  7  9  1  0  0  0  0
 29 30  1  0  0  0  0
 29 31  1  0  0  0  0
 29 32  1  0  0  0  0
 27 28  1  0  0  0  0
 27 29  1  0  0  0  0
M  END
$$$$
default_name
  -OEChem-01062215323D

 32 32  0     1  0  0  0  0  0999 V2000
   -3.8405   -3.7518    1.6252 H   0  0  0  0  0  0  0  0  0  0  0  0
   -3.7965   -2.8768    0.9782 C   0  0  0  0  0  0  0  0  0  0  0  0
   -4.5465   -2.1527    1.2902 H   0  0  0  0  0  0  0  0  0  0  0  0
   -3.9745   -3.1748   -0.0538 H   0  0  0  0  0  0  0  0  0  0  0  0
   -2.4245   -2.2537    1.0882 C   0  0  0  0  0  0  0  0  0  0  0  0
   -1.5805   -2.7478    1.8242 O   0  0  0  0  0  0  0  0  0  0  0  0
   -2.2045   -1.1637    0.3562 N   0  0  0  0  0  0  0  0  0  0  0  0
   -2.9595   -0.7907   -0.2008 H   0  0  0  0  0  0  0  0  0  0  0  0
   -0.9485   -0.4087    0.3482 C   0  0  1  0  0  0  0  0  0  0  0  0
   -0.4930   -0.4799    1.3372 H   0  0  0  0  0  0  0  0  0  0  0  0
    0.0147   -1.0355   -0.6745 C   0  0  0  0  0  0  0  0  0  0  0  0
   -0.4868   -1.1008   -1.6411 H   0  0  0  0  0  0  0  0  0  0  0  0
    0.8772   -0.3786   -0.7967 H   0  0  0  0  0  0  0  0  0  0  0  0
    0.4929   -2.4249   -0.2981 C   0  0  0  0  0  0  0  0  0  0  0  0
    1.5456   -2.5922    0.6216 C   0  0  0  0  0  0  0  0  0  0  0  0
    2.0355   -1.7285    1.0487 H   0  0  0  0  0  0  0  0  0  0  0  0
    1.9561   -3.8846    0.9971 C   0  0  0  0  0  0  0  0  0  0  0  0
    2.7663   -4.0108    1.7015 H   0  0  0  0  0  0  0  0  0  0  0  0
    1.3143   -5.0113    0.4556 C   0  0  0  0  0  0  0  0  0  0  0  0
    1.6313   -6.0042    0.7423 H   0  0  0  0  0  0  0  0  0  0  0  0
    0.2631   -4.8477   -0.4649 C   0  0  0  0  0  0  0  0  0  0  0  0
   -0.2268   -5.7137   -0.8854 H   0  0  0  0  0  0  0  0  0  0  0  0
   -0.1448   -3.5560   -0.8425 C   0  0  0  0  0  0  0  0  0  0  0  0
   -0.9514   -3.4315   -1.5532 H   0  0  0  0  0  0  0  0  0  0  0  0
   -1.2048    1.0808    0.0569 C   0  0  0  0  0  0  0  0  0  0  0  0
   -0.3278    1.9159    0.2827 O   0  0  0  0  0  0  0  0  0  0  0  0
   -2.4035    1.4154   -0.4374 N   0  0  0  0  0  0  0  0  0  0  0  0
   -3.0880    0.6821   -0.5423 H   0  0  0  0  0  0  0  0  0  0  0  0
   -2.8082    2.7819   -0.7584 C   0  0  0  0  0  0  0  0  0  0  0  0
   -2.0626    3.2454   -1.4079 H   0  0  0  0  0  0  0  0  0  0  0  0
   -3.7741    2.7800   -1.2643 H   0  0  0  0  0  0  0  0  0  0  0  0
   -2.8832    3.3680    0.1596 H   0  0  0  0  0  0  0  0  0  0  0  0
  5  6  2  0  0  0  0
  5  7  1  0  0  0  0
  2  3  1  0  0  0  0
  2  4  1  0  0  0  0
  2  5  1  0  0  0  0
  1  2  1  0  0  0  0
 25 26  2  0  0  0  0
 25 27  1  0  0  0  0
 23 24  1  0  0  0  0
 21 22  1  0  0  0  0
 21 23  2  0  0  0  0
 19 20  1  0  0  0  0
 19 21  1  0  0  0  0
 17 18  1  0  0  0  0
 17 19  2  0  0  0  0
 15 16  1  0  0  0  0
 15 17  1  0  0  0  0
 14 15  2  0  0  0  0
 14 23  1  0  0  0  0
 11 12  1  0  0  0  0
 11 13  1  0  0  0  0
 11 14  1  0  0  0  0
  9 10  1  0  0  0  0
  9 11  1  0  0  0  0
  9 25  1  0  0  0  0
  7  8  1  0  0  0  0
  7  9  1  0  0  0  0
 29 30  1  0  0  0  0
 29 31  1  0  0  0  0
 29 32  1  0  0  0  0
 27 28  1  0  0  0  0
 27 29  1  0  0  0  0
M  END
$$$$
default_name
  -OEChem-01062215323D

 32 32  0     1  0  0  0  0  0999 V2000
   -3.8405   -3.7518    1.6252 H   0  0  0  0  0  0  0  0  0  0  0  0
   -3.7965   -2.8768    0.9782 C   0  0  0  0  0  0  0  0  0  0  0  0
   -4.5465   -2.1527    1.2902 H   0  0  0  0  0  0  0  0  0  0  0  0
   -3.9745   -3.1748   -0.0538 H   0  0  0  0  0  0  0  0  0  0  0  0
   -2.4245   -2.2537    1.0882 C   0  0  0  0  0  0  0  0  0  0  0  0
   -1.5805   -2.7478    1.8242 O   0  0  0  0  0  0  0  0  0  0  0  0
   -2.2045   -1.1637    0.3562 N   0  0  0  0  0  0  0  0  0  0  0  0
   -2.9595   -0.7907   -0.2008 H   0  0  0  0  0  0  0  0  0  0  0  0
   -0.9485   -0.4087    0.3482 C   0  0  1  0  0  0  0  0  0  0  0  0
   -0.4930   -0.4799    1.3372 H   0  0  0  0  0  0  0  0  0  0  0  0
    0.0147   -1.0355   -0.6745 C   0  0  0  0  0  0  0  0  0  0  0  0
   -0.4868   -1.1008   -1.6411 H   0  0  0  0  0  0  0  0  0  0  0  0
    0.8772   -0.3786   -0.7967 H   0  0  0  0  0  0  0  0  0  0  0  0
    0.4929   -2.4249   -0.2981 C   0  0  0  0  0  0  0  0  0  0  0  0
    1.5456   -2.5922    0.6216 C   0  0  0  0  0  0  0  0  0  0  0  0
    2.0355   -1.7285    1.0487 H   0  0  0  0  0  0  0  0  0  0  0  0
    1.9561   -3.8846    0.9971 C   0  0  0  0  0  0  0  0  0  0  0  0
    2.7663   -4.0108    1.7015 H   0  0  0  0  0  0  0  0  0  0  0  0
    1.3143   -5.0113    0.4556 C   0  0  0  0  0  0  0  0  0  0  0  0
    1.6313   -6.0042    0.7423 H   0  0  0  0  0  0  0  0  0  0  0  0
    0.2631   -4.8477   -0.4649 C   0  0  0  0  0  0  0  0  0  0  0  0
   -0.2268   -5.7137   -0.8854 H   0  0  0  0  0  0  0  0  0  0  0  0
   -0.1448   -3.5560   -0.8425 C   0  0  0  0  0  0  0  0  0  0  0  0
   -0.9514   -3.4315   -1.5532 H   0  0  0  0  0  0  0  0  0  0  0  0
   -1.2048    1.0808    0.0569 C   0  0  0  0  0  0  0  0  0  0  0  0
   -0.2638    1.8747    0.0154 O   0  0  0  0  0  0  0  0  0  0  0  0
   -2.4736    1.4617   -0.1388 N   0  0  0  0  0  0  0  0  0  0  0  0
   -3.1937    0.7634   -0.0333 H   0  0  0  0  0  0  0  0  0  0  0  0
   -2.8862    2.8355   -0.4157 C   0  0  0  0  0  0  0  0  0  0  0  0
   -2.3085    3.2335   -1.2526 H   0  0  0  0  0  0  0  0  0  0  0  0
   -3.9474    2.8675   -0.6640 H   0  0  0  0  0  0  0  0  0  0  0  0
   -2.7023    3.4582    0.4620 H   0  0  0  0  0  0  0  0  0  0  0  0
  5  6  2  0  0  0  0
  5  7  1  0  0  0  0
  2  3  1  0  0  0  0
  2  4  1  0  0  0  0
  2  5  1  0  0  0  0
  1  2  1  0  0  0  0
 25 26  2  0  0  0  0
 25 27  1  0  0  0  0
 23 24  1  0  0  0  0
 21 22  1  0  0  0  0
 21 23  2  0  0  0  0
 19 20  1  0  0  0  0
 19 21  1  0  0  0  0
 17 18  1  0  0  0  0
 17 19  2  0  0  0  0
 15 16  1  0  0  0  0
 15 17  1  0  0  0  0
 14 15  2  0  0  0  0
 14 23  1  0  0  0  0
 11 12  1  0  0  0  0
 11 13  1  0  0  0  0
 11 14  1  0  0  0  0
  9 10  1  0  0  0  0
  9 11  1  0  0  0  0
  9 25  1  0  0  0  0
  7  8  1  0  0  0  0
  7  9  1  0  0  0  0
 29 30  1  0  0  0  0
 29 31  1  0  0  0  0
 29 32  1  0  0  0  0
 27 28  1  0  0  0  0
 27 29  1  0  0  0  0
M  END
$$$$
default_name
  -OEChem-01062215323D

 32 32  0     1  0  0  0  0  0999 V2000
   -3.8405   -3.7518    1.6252 H   0  0  0  0  0  0  0  0  0  0  0  0
   -3.7965   -2.8768    0.9782 C   0  0  0  0  0  0  0  0  0  0  0  0
   -4.5465   -2.1527    1.2902 H   0  0  0  0  0  0  0  0  0  0  0  0
   -3.9745   -3.1748   -0.0538 H   0  0  0  0  0  0  0  0  0  0  0  0
   -2.4245   -2.2537    1.0882 C   0  0  0  0  0  0  0  0  0  0  0  0
   -1.5805   -2.7478    1.8242 O   0  0  0  0  0  0  0  0  0  0  0  0
   -2.2045   -1.1637    0.3562 N   0  0  0  0  0  0  0  0  0  0  0  0
   -2.9595   -0.7907   -0.2008 H   0  0  0  0  0  0  0  0  0  0  0  0
   -0.9485   -0.4087    0.3482 C   0  0  1  0  0  0  0  0  0  0  0  0
   -0.4930   -0.4799    1.3372 H   0  0  0  0  0  0  0  0  0  0  0  0
    0.0147   -1.0355   -0.6745 C   0  0  0  0  0  0  0  0  0  0  0  0
   -0.4868   -1.1008   -1.6411 H   0  0  0  0  0  0  0  0  0  0  0  0
    0.8772   -0.3786   -0.7967 H   0  0  0  0  0  0  0  0  0  0  0  0
    0.4929   -2.4249   -0.2981 C   0  0  0  0  0  0  0  0  0  0  0  0
    1.5456   -2.5922    0.6216 C   0  0  0  0  0  0  0  0  0  0  0  0
    2.0355   -1.7285    1.0487 H   0  0  0  0  0  0  0  0  0  0  0  0
    1.9561   -3.8846    0.9971 C   0  0  0  0  0  0  0  0  0  0  0  0
    2.7663   -4.0108    1.7015 H   0  0  0  0  0  0  0  0  0  0  0  0
    1.3143   -5.0113    0.4556 C   0  0  0  0  0  0  0  0  0  0  0  0
    1.6313   -6.0042    0.7423 H   0  0  0  0  0  0  0  0  0  0  0  0
    0.2631   -4.8477   -0.4649 C   0  0  0  0  0  0  0  0  0  0  0  0
   -0.2268   -5.7137   -0.8854 H   0  0  0  0  0  0  0  0  0  0  0  0
   -0.1448   -3.5560   -0.8425 C   0  0  0  0  0  0  0  0  0  0  0  0
   -0.9514   -3.4315   -1.5532 H   0  0  0  0  0  0  0  0  0  0  0  0
   -1.2048    1.0808    0.0569 C   0  0  0  0  0  0  0  0  0  0  0  0
   -0.2709    1.8202   -0.2571 O   0  0  0  0  0  0  0  0  0  0  0  0
   -2.4642    1.5228    0.1653 N   0  0  0  0  0  0  0  0  0  0  0  0
   -3.1643    0.8691    0.4814 H   0  0  0  0  0  0  0  0  0  0  0  0
   -2.8731    2.9059   -0.0674 C   0  0  0  0  0  0  0  0  0  0  0  0
   -2.5078    3.2406   -1.0405 H   0  0  0  0  0  0  0  0  0  0  0  0
   -3.9602    2.9865   -0.0445 H   0  0  0  0  0  0  0  0  0  0  0  0
   -2.4474    3.5496    0.7048 H   0  0  0  0  0  0  0  0  0  0  0  0
  5  6  2  0  0  0  0
  5  7  1  0  0  0  0
  2  3  1  0  0  0  0
  2  4  1  0  0  0  0
  2  5  1  0  0  0  0
  1  2  1  0  0  0  0
 25 26  2  0  0  0  0
 25 27  1  0  0  0  0
 23 24  1  0  0  0  0
 21 22  1  0  0  0  0
 21 23  2  0  0  0  0
 19 20  1  0  0  0  0
 19 21  1  0  0  0  0
 17 18  1  0  0  0  0
 17 19  2  0  0  0  0
 15 16  1  0  0  0  0
 15 17  1  0  0  0  0
 14 15  2  0  0  0  0
 14 23  1  0  0  0  0
 11 12  1  0  0  0  0
 11 13  1  0  0  0  0
 11 14  1  0  0  0  0
  9 10  1  0  0  0  0
  9 11  1  0  0  0  0
  9 25  1  0  0  0  0
  7  8  1  0  0  0  0
  7  9  1  0  0  0  0
 29 30  1  0  0  0  0
 29 31  1  0  0  0  0
 29 32  1  0  0  0  0
 27 28  1  0  0  0  0
 27 29  1  0  0  0  0
M  END
$$$$
default_name
  -OEChem-01062215323D

 32 32  0     1  0  0  0  0  0999 V2000
   -3.8405   -3.7518    1.6252 H   0  0  0  0  0  0  0  0  0  0  0  0
   -3.7965   -2.8768    0.9782 C   0  0  0  0  0  0  0  0  0  0  0  0
   -4.5465   -2.1527    1.2902 H   0  0  0  0  0  0  0  0  0  0  0  0
   -3.9745   -3.1748   -0.0538 H   0  0  0  0  0  0  0  0  0  0  0  0
   -2.4245   -2.2537    1.0882 C   0  0  0  0  0  0  0  0  0  0  0  0
   -1.5805   -2.7478    1.8242 O   0  0  0  0  0  0  0  0  0  0  0  0
   -2.2045   -1.1637    0.3562 N   0  0  0  0  0  0  0  0  0  0  0  0
   -2.9595   -0.7907   -0.2008 H   0  0  0  0  0  0  0  0  0  0  0  0
   -0.9485   -0.4087    0.3482 C   0  0  1  0  0  0  0  0  0  0  0  0
   -0.4930   -0.4799    1.3372 H   0  0  0  0  0  0  0  0  0  0  0  0
    0.0147   -1.0355   -0.6745 C   0  0  0  0  0  0  0  0  0  0  0  0
   -0.4868   -1.1008   -1.6411 H   0  0  0  0  0  0  0  0  0  0  0  0
    0.8772   -0.3786   -0.7967 H   0  0  0  0  0  0  0  0  0  0  0  0
    0.4929   -2.4249   -0.2981 C   0  0  0  0  0  0  0  0  0  0  0  0
    1.5456   -2.5922    0.6216 C   0  0  0  0  0  0  0  0  0  0  0  0
    2.0355   -1.7285    1.0487 H   0  0  0  0  0  0  0  0  0  0  0  0
    1.9561   -3.8846    0.9971 C   0  0  0  0  0  0  0  0  0  0  0  0
    2.7663   -4.0108    1.7015 H   0  0  0  0  0  0  0  0  0  0  0  0
    1.3143   -5.0113    0.4556 C   0  0  0  0  0  0  0  0  0  0  0  0
    1.6313   -6.0042    0.7423 H   0  0  0  0  0  0  0  0  0  0  0  0
    0.2631   -4.8477   -0.4649 C   0  0  0  0  0  0  0  0  0  0  0  0
   -0.2268   -5.7137   -0.8854 H   0  0  0  0  0  0  0  0  0  0  0  0
   -0.1448   -3.5560   -0.8425 C   0  0  0  0  0  0  0  0  0  0  0  0
   -0.9514   -3.4315   -1.5532 H   0  0  0  0  0  0  0  0  0  0  0  0
   -1.2048    1.0808    0.0569 C   0  0  0  0  0  0  0  0  0  0  0  0
   -0.3487    1.7562   -0.5162 O   0  0  0  0  0  0  0  0  0  0  0  0
   -2.3760    1.5944    0.4540 N   0  0  0  0  0  0  0  0  0  0  0  0
   -3.0018    0.9919    0.9665 H   0  0  0  0  0  0  0  0  0  0  0  0
   -2.7698    2.9882    0.2627 C   0  0  0  0  0  0  0  0  0  0  0  0
   -2.6467    3.2665   -0.7861 H   0  0  0  0  0  0  0  0  0  0  0  0
   -3.8116    3.1287    0.5520 H   0  0  0  0  0  0  0  0  0  0  0  0
   -2.1360    3.6358    0.8716 H   0  0  0  0  0  0  0  0  0  0  0  0
  5  6  2  0  0  0  0
  5  7  1  0  0  0  0
  2  3  1  0  0  0  0
  2  4  1  0  0  0  0
  2  5  1  0  0  0  0
  1  2  1  0  0  0  0
 25 26  2  0  0  0  0
 25 27  1  0  0  0  0
 23 24  1  0  0  0  0
 21 22  1  0  0  0  0
 21 23  2  0  0  0  0
 19 20  1  0  0  0  0
 19 21  1  0  0  0  0
 17 18  1  0  0  0  0
 17 19  2  0  0  0  0
 15 16  1  0  0  0  0
 15 17  1  0  0  0  0
 14 15  2  0  0  0  0
 14 23  1  0  0  0  0
 11 12  1  0  0  0  0
 11 13  1  0  0  0  0
 11 14  1  0  0  0  0
  9 10  1  0  0  0  0
  9 11  1  0  0  0  0
  9 25  1  0  0  0  0
  7  8  1  0  0  0  0
  7  9  1  0  0  0  0
 29 30  1  0  0  0  0
 29 31  1  0  0  0  0
 29 32  1  0  0  0  0
 27 28  1  0  0  0  0
 27 29  1  0  0  0  0
M  END
$$$$
default_name
  -OEChem-01062215323D

 32 32  0     1  0  0  0  0  0999 V2000
   -3.8405   -3.7518    1.6252 H   0  0  0  0  0  0  0  0  0  0  0  0
   -3.7965   -2.8768    0.9782 C   0  0  0  0  0  0  0  0  0  0  0  0
   -4.5465   -2.1527    1.2902 H   0  0  0  0  0  0  0  0  0  0  0  0
   -3.9745   -3.1748   -0.0538 H   0  0  0  0  0  0  0  0  0  0  0  0
   -2.4245   -2.2537    1.0882 C   0  0  0  0  0  0  0  0  0  0  0  0
   -1.5805   -2.7478    1.8242 O   0  0  0  0  0  0  0  0  0  0  0  0
   -2.2045   -1.1637    0.3562 N   0  0  0  0  0  0  0  0  0  0  0  0
   -2.9595   -0.7907   -0.2008 H   0  0  0  0  0  0  0  0  0  0  0  0
   -0.9485   -0.4087    0.3482 C   0  0  1  0  0  0  0  0  0  0  0  0
   -0.4930   -0.4799    1.3372 H   0  0  0  0  0  0  0  0  0  0  0  0
    0.0147   -1.0355   -0.6745 C   0  0  0  0  0  0  0  0  0  0  0  0
   -0.4868   -1.1008   -1.6411 H   0  0  0  0  0  0  0  0  0  0  0  0
    0.8772   -0.3786   -0.7967 H   0  0  0  0  0  0  0  0  0  0  0  0
    0.4929   -2.4249   -0.2981 C   0  0  0  0  0  0  0  0  0  0  0  0
    1.5456   -2.5922    0.6216 C   0  0  0  0  0  0  0  0  0  0  0  0
    2.0355   -1.7285    1.0487 H   0  0  0  0  0  0  0  0  0  0  0  0
    1.9561   -3.8846    0.9971 C   0  0  0  0  0  0  0  0  0  0  0  0
    2.7663   -4.0108    1.7015 H   0  0  0  0  0  0  0  0  0  0  0  0
    1.3143   -5.0113    0.4556 C   0  0  0  0  0  0  0  0  0  0  0  0
    1.6313   -6.0042    0.7423 H   0  0  0  0  0  0  0  0  0  0  0  0
    0.2631   -4.8477   -0.4649 C   0  0  0  0  0  0  0  0  0  0  0  0
   -0.2268   -5.7137   -0.8854 H   0  0  0  0  0  0  0  0  0  0  0  0
   -0.1448   -3.5560   -0.8425 C   0  0  0  0  0  0  0  0  0  0  0  0
   -0.9514   -3.4315   -1.5532 H   0  0  0  0  0  0  0  0  0  0  0  0
   -1.2048    1.0808    0.0569 C   0  0  0  0  0  0  0  0  0  0  0  0
   -0.4918    1.6869   -0.7442 O   0  0  0  0  0  0  0  0  0  0  0  0
   -2.2150    1.6717    0.7077 N   0  0  0  0  0  0  0  0  0  0  0  0
   -2.7173    1.1235    1.3892 H   0  0  0  0  0  0  0  0  0  0  0  0
   -2.5832    3.0769    0.5521 C   0  0  0  0  0  0  0  0  0  0  0  0
   -2.7160    3.3092   -0.5066 H   0  0  0  0  0  0  0  0  0  0  0  0
   -3.5116    3.2845    1.0848 H   0  0  0  0  0  0  0  0  0  0  0  0
   -1.7891    3.7110    0.9510 H   0  0  0  0  0  0  0  0  0  0  0  0
  5  6  2  0  0  0  0
  5  7  1  0  0  0  0
  2  3  1  0  0  0  0
  2  4  1  0  0  0  0
  2  5  1  0  0  0  0
  1  2  1  0  0  0  0
 25 26  2  0  0  0  0
 25 27  1  0  0  0  0
 23 24  1  0  0  0  0
 21 22  1  0  0  0  0
 21 23  2  0  0  0  0
 19 20  1  0  0  0  0
 19 21  1  0  0  0  0
 17 18  1  0  0  0  0
 17 19  2  0  0  0  0
 15 16  1  0  0  0  0
 15 17  1  0  0  0  0
 14 15  2  0  0  0  0
 14 23  1  0  0  0  0
 11 12  1  0  0  0  0
 11 13  1  0  0  0  0
 11 14  1  0  0  0  0
  9 10  1  0  0  0  0
  9 11  1  0  0  0  0
  9 25  1  0  0  0  0
  7  8  1  0  0  0  0
  7  9  1  0  0  0  0
 29 30  1  0  0  0  0
 29 31  1  0  0  0  0
 29 32  1  0  0  0  0
 27 28  1  0  0  0  0
 27 29  1  0  0  0  0
M  END
$$$$
default_name
  -OEChem-01062215323D

 32 32  0     1  0  0  0  0  0999 V2000
   -3.8405   -3.7518    1.6252 H   0  0  0  0  0  0  0  0  0  0  0  0
   -3.7965   -2.8768    0.9782 C   0  0  0  0  0  0  0  0  0  0  0  0
   -4.5465   -2.1527    1.2902 H   0  0  0  0  0  0  0  0  0  0  0  0
   -3.9745   -3.1748   -0.0538 H   0  0  0  0  0  0  0  0  0  0  0  0
   -2.4245   -2.2537    1.0882 C   0  0  0  0  0  0  0  0  0  0  0  0
   -1.5805   -2.7478    1.8242 O   0  0  0  0  0  0  0  0  0  0  0  0
   -2.2045   -1.1637    0.3562 N   0  0  0  0  0  0  0  0  0  0  0  0
   -2.9595   -0.7907   -0.2008 H   0  0  0  0  0  0  0  0  0  0  0  0
   -0.9485   -0.4087    0.3482 C   0  0  1  0  0  0  0  0  0  0  0  0
   -0.4930   -0.4799    1.3372 H   0  0  0  0  0  0  0  0  0  0  0  0
    0.0147   -1.0355   -0.6745 C   0  0  0  0  0  0  0  0  0  0  0  0
   -0.4868   -1.1008   -1.6411 H   0  0  0  0  0  0  0  0  0  0  0  0
    0.8772   -0.3786   -0.7967 H   0  0  0  0  0  0  0  0  0  0  0  0
    0.4929   -2.4249   -0.2981 C   0  0  0  0  0  0  0  0  0  0  0  0
    1.5456   -2.5922    0.6216 C   0  0  0  0  0  0  0  0  0  0  0  0
    2.0355   -1.7285    1.0487 H   0  0  0  0  0  0  0  0  0  0  0  0
    1.9561   -3.8846    0.9971 C   0  0  0  0  0  0  0  0  0  0  0  0
    2.7663   -4.0108    1.7015 H   0  0  0  0  0  0  0  0  0  0  0  0
    1.3143   -5.0113    0.4556 C   0  0  0  0  0  0  0  0  0  0  0  0
    1.6313   -6.0042    0.7423 H   0  0  0  0  0  0  0  0  0  0  0  0
    0.2631   -4.8477   -0.4649 C   0  0  0  0  0  0  0  0  0  0  0  0
   -0.2268   -5.7137   -0.8854 H   0  0  0  0  0  0  0  0  0  0  0  0
   -0.1448   -3.5560   -0.8425 C   0  0  0  0  0  0  0  0  0  0  0  0
   -0.9514   -3.4315   -1.5532 H   0  0  0  0  0  0  0  0  0  0  0  0
   -1.2048    1.0808    0.0569 C   0  0  0  0  0  0  0  0  0  0  0  0
   -0.6906    1.6173   -0.9256 O   0  0  0  0  0  0  0  0  0  0  0  0
   -1.9921    1.7494    0.9091 N   0  0  0  0  0  0  0  0  0  0  0  0
   -2.3302    1.2549    1.7205 H   0  0  0  0  0  0  0  0  0  0  0  0
   -2.3262    3.1659    0.7811 C   0  0  0  0  0  0  0  0  0  0  0  0
   -2.7108    3.3659   -0.2212 H   0  0  0  0  0  0  0  0  0  0  0  0
   -3.0808    3.4432    1.5176 H   0  0  0  0  0  0  0  0  0  0  0  0
   -1.4305    3.7701    0.9376 H   0  0  0  0  0  0  0  0  0  0  0  0
  5  6  2  0  0  0  0
  5  7  1  0  0  0  0
  2  3  1  0  0  0  0
  2  4  1  0  0  0  0
  2  5  1  0  0  0  0
  1  2  1  0  0  0  0
 25 26  2  0  0  0  0
 25 27  1  0  0  0  0
 23 24  1  0  0  0  0
 21 22  1  0  0  0  0
 21 23  2  0  0  0  0
 19 20  1  0  0  0  0
 19 21  1  0  0  0  0
 17 18  1  0  0  0  0
 17 19  2  0  0  0  0
 15 16  1  0  0  0  0
 15 17  1  0  0  0  0
 14 15  2  0  0  0  0
 14 23  1  0  0  0  0
 11 12  1  0  0  0  0
 11 13  1  0  0  0  0
 11 14  1  0  0  0  0
  9 10  1  0  0  0  0
  9 11  1  0  0  0  0
  9 25  1  0  0  0  0
  7  8  1  0  0  0  0
  7  9  1  0  0  0  0
 29 30  1  0  0  0  0
 29 31  1  0  0  0  0
 29 32  1  0  0  0  0
 27 28  1  0  0  0  0
 27 29  1  0  0  0  0
M  END
$$$$
default_name
  -OEChem-01062215323D

 32 32  0     1  0  0  0  0  0999 V2000
   -3.8405   -3.7518    1.6252 H   0  0  0  0  0  0  0  0  0  0  0  0
   -3.7965   -2.8768    0.9782 C   0  0  0  0  0  0  0  0  0  0  0  0
   -4.5465   -2.1527    1.2902 H   0  0  0  0  0  0  0  0  0  0  0  0
   -3.9745   -3.1748   -0.0538 H   0  0  0  0  0  0  0  0  0  0  0  0
   -2.4245   -2.2537    1.0882 C   0  0  0  0  0  0  0  0  0  0  0  0
   -1.5805   -2.7478    1.8242 O   0  0  0  0  0  0  0  0  0  0  0  0
   -2.2045   -1.1637    0.3562 N   0  0  0  0  0  0  0  0  0  0  0  0
   -2.9595   -0.7907   -0.2008 H   0  0  0  0  0  0  0  0  0  0  0  0
   -0.9485   -0.4087    0.3482 C   0  0  1  0  0  0  0  0  0  0  0  0
   -0.4930   -0.4799    1.3372 H   0  0  0  0  0  0  0  0  0  0  0  0
    0.0147   -1.0355   -0.6745 C   0  0  0  0  0  0  0  0  0  0  0  0
   -0.4868   -1.1008   -1.6411 H   0  0  0  0  0  0  0  0  0  0  0  0
    0.8772   -0.3786   -0.7967 H   0  0  0  0  0  0  0  0  0  0  0  0
    0.4929   -2.4249   -0.2981 C   0  0  0  0  0  0  0  0  0  0  0  0
    1.5456   -2.5922    0.6216 C   0  0  0  0  0  0  0  0  0  0  0  0
    2.0355   -1.7285    1.0487 H   0  0  0  0  0  0  0  0  0  0  0  0
    1.9561   -3.8846    0.9971 C   0  0  0  0  0  0  0  0  0  0  0  0
    2.7663   -4.0108    1.7015 H   0  0  0  0  0  0  0  0  0  0  0  0
    1.3143   -5.0113    0.4556 C   0  0  0  0  0  0  0  0  0  0  0  0
    1.6313   -6.0042    0.7423 H   0  0  0  0  0  0  0  0  0  0  0  0
    0.2631   -4.8477   -0.4649 C   0  0  0  0  0  0  0  0  0  0  0  0
   -0.2268   -5.7137   -0.8854 H   0  0  0  0  0  0  0  0  0  0  0  0
   -0.1448   -3.5560   -0.8425 C   0  0  0  0  0  0  0  0  0  0  0  0
   -0.9514   -3.4315   -1.5532 H   0  0  0  0  0  0  0  0  0  0  0  0
   -1.2048    1.0808    0.0569 C   0  0  0  0  0  0  0  0  0  0  0  0
   -0.9314    1.5519   -1.0480 O   0  0  0  0  0  0  0  0  0  0  0  0
   -1.7226    1.8223    1.0445 N   0  0  0  0  0  0  0  0  0  0  0  0
   -1.8669    1.3771    1.9379 H   0  0  0  0  0  0  0  0  0  0  0  0
   -2.0162    3.2491    0.9341 C   0  0  0  0  0  0  0  0  0  0  0  0
   -2.6315    3.4328    0.0508 H   0  0  0  0  0  0  0  0  0  0  0  0
   -2.5485    3.5941    1.8210 H   0  0  0  0  0  0  0  0  0  0  0  0
   -1.0845    3.8090    0.8323 H   0  0  0  0  0  0  0  0  0  0  0  0
  5  6  2  0  0  0  0
  5  7  1  0  0  0  0
  2  3  1  0  0  0  0
  2  4  1  0  0  0  0
  2  5  1  0  0  0  0
  1  2  1  0  0  0  0
 25 26  2  0  0  0  0
 25 27  1  0  0  0  0
 23 24  1  0  0  0  0
 21 22  1  0  0  0  0
 21 23  2  0  0  0  0
 19 20  1  0  0  0  0
 19 21  1  0  0  0  0
 17 18  1  0  0  0  0
 17 19  2  0  0  0  0
 15 16  1  0  0  0  0
 15 17  1  0  0  0  0
 14 15  2  0  0  0  0
 14 23  1  0  0  0  0
 11 12  1  0  0  0  0
 11 13  1  0  0  0  0
 11 14  1  0  0  0  0
  9 10  1  0  0  0  0
  9 11  1  0  0  0  0
  9 25  1  0  0  0  0
  7  8  1  0  0  0  0
  7  9  1  0  0  0  0
 29 30  1  0  0  0  0
 29 31  1  0  0  0  0
 29 32  1  0  0  0  0
 27 28  1  0  0  0  0
 27 29  1  0  0  0  0
M  END
$$$$
default_name
  -OEChem-01062215323D

 32 32  0     1  0  0  0  0  0999 V2000
   -3.8405   -3.7518    1.6252 H   0  0  0  0  0  0  0  0  0  0  0  0
   -3.7965   -2.8768    0.9782 C   0  0  0  0  0  0  0  0  0  0  0  0
   -4.5465   -2.1527    1.2902 H   0  0  0  0  0  0  0  0  0  0  0  0
   -3.9745   -3.1748   -0.0538 H   0  0  0  0  0  0  0  0  0  0  0  0
   -2.4245   -2.2537    1.0882 C   0  0  0  0  0  0  0  0  0  0  0  0
   -1.5805   -2.7478    1.8242 O   0  0  0  0  0  0  0  0  0  0  0  0
   -2.2045   -1.1637    0.3562 N   0  0  0  0  0  0  0  0  0  0  0  0
   -2.9595   -0.7907   -0.2008 H   0  0  0  0  0  0  0  0  0  0  0  0
   -0.9485   -0.4087    0.3482 C   0  0  1  0  0  0  0  0  0  0  0  0
   -0.4930   -0.4799    1.3372 H   0  0  0  0  0  0  0  0  0  0  0  0
    0.0147   -1.0355   -0.6745 C   0  0  0  0  0  0  0  0  0  0  0  0
   -0.4868   -1.1008   -1.6411 H   0  0  0  0  0  0  0  0  0  0  0  0
    0.8772   -0.3786   -0.7967 H   0  0  0  0  0  0  0  0  0  0  0  0
    0.4929   -2.4249   -0.2981 C   0  0  0  0  0  0  0  0  0  0  0  0
    1.5456   -2.5922    0.6216 C   0  0  0  0  0  0  0  0  0  0  0  0
    2.0355   -1.7285    1.0487 H   0  0  0  0  0  0  0  0  0  0  0  0
    1.9561   -3.8846    0.9971 C   0  0  0  0  0  0  0  0  0  0  0  0
    2.7663   -4.0108    1.7015 H   0  0  0  0  0  0  0  0  0  0  0  0
    1.3143   -5.0113    0.4556 C   0  0  0  0  0  0  0  0  0  0  0  0
    1.6313   -6.0042    0.7423 H   0  0  0  0  0  0  0  0  0  0  0  0
    0.2631   -4.8477   -0.4649 C   0  0  0  0  0  0  0  0  0  0  0  0
   -0.2268   -5.7137   -0.8854 H   0  0  0  0  0  0  0  0  0  0  0  0
   -0.1448   -3.5560   -0.8425 C   0  0  0  0  0  0  0  0  0  0  0  0
   -0.9514   -3.4315   -1.5532 H   0  0  0  0  0  0  0  0  0  0  0  0
   -1.2048    1.0808    0.0569 C   0  0  0  0  0  0  0  0  0  0  0  0
   -1.1979    1.4953   -1.1031 O   0  0  0  0  0  0  0  0  0  0  0  0
   -1.4248    1.8853    1.1046 N   0  0  0  0  0  0  0  0  0  0  0  0
   -1.3590    1.4819    2.0267 H   0  0  0  0  0  0  0  0  0  0  0  0
   -1.6744    3.3210    1.0007 C   0  0  0  0  0  0  0  0  0  0  0  0
   -2.4835    3.5051    0.2908 H   0  0  0  0  0  0  0  0  0  0  0  0
   -1.9510    3.7269    1.9741 H   0  0  0  0  0  0  0  0  0  0  0  0
   -0.7748    3.8251    0.6422 H   0  0  0  0  0  0  0  0  0  0  0  0
  5  6  2  0  0  0  0
  5  7  1  0  0  0  0
  2  3  1  0  0  0  0
  2  4  1  0  0  0  0
  2  5  1  0  0  0  0
  1  2  1  0  0  0  0
 25 26  2  0  0  0  0
 25 27  1  0  0  0  0
 23 24  1  0  0  0  0
 21 22  1  0  0  0  0
 21 23  2  0  0  0  0
 19 20  1  0  0  0  0
 19 21  1  0  0  0  0
 17 18  1  0  0  0  0
 17 19  2  0  0  0  0
 15 16  1  0  0  0  0
 15 17  1  0  0  0  0
 14 15  2  0  0  0  0
 14 23  1  0  0  0  0
 11 12  1  0  0  0  0
 11 13  1  0  0  0  0
 11 14  1  0  0  0  0
  9 10  1  0  0  0  0
  9 11  1  0  0  0  0
  9 25  1  0  0  0  0
  7  8  1  0  0  0  0
  7  9  1  0  0  0  0
 29 30  1  0  0  0  0
 29 31  1  0  0  0  0
 29 32  1  0  0  0  0
 27 28  1  0  0  0  0
 27 29  1  0  0  0  0
M  END
$$$$
default_name
  -OEChem-01062215323D

 32 32  0     1  0  0  0  0  0999 V2000
   -3.8405   -3.7518    1.6252 H   0  0  0  0  0  0  0  0  0  0  0  0
   -3.7965   -2.8768    0.9782 C   0  0  0  0  0  0  0  0  0  0  0  0
   -4.5465   -2.1527    1.2902 H   0  0  0  0  0  0  0  0  0  0  0  0
   -3.9745   -3.1748   -0.0538 H   0  0  0  0  0  0  0  0  0  0  0  0
   -2.4245   -2.2537    1.0882 C   0  0  0  0  0  0  0  0  0  0  0  0
   -1.5805   -2.7478    1.8242 O   0  0  0  0  0  0  0  0  0  0  0  0
   -2.2045   -1.1637    0.3562 N   0  0  0  0  0  0  0  0  0  0  0  0
   -2.9595   -0.7907   -0.2008 H   0  0  0  0  0  0  0  0  0  0  0  0
   -0.9485   -0.4087    0.3482 C   0  0  1  0  0  0  0  0  0  0  0  0
   -0.4930   -0.4799    1.3372 H   0  0  0  0  0  0  0  0  0  0  0  0
    0.0147   -1.0355   -0.6745 C   0  0  0  0  0  0  0  0  0  0  0  0
   -0.4868   -1.1008   -1.6411 H   0  0  0  0  0  0  0  0  0  0  0  0
    0.8772   -0.3786   -0.7967 H   0  0  0  0  0  0  0  0  0  0  0  0
    0.4929   -2.4249   -0.2981 C   0  0  0  0  0  0  0  0  0  0  0  0
    1.5456   -2.5922    0.6216 C   0  0  0  0  0  0  0  0  0  0  0  0
    2.0355   -1.7285    1.0487 H   0  0  0  0  0  0  0  0  0  0  0  0
    1.9561   -3.8846    0.9971 C   0  0  0  0  0  0  0  0  0  0  0  0
    2.7663   -4.0108    1.7015 H   0  0  0  0  0  0  0  0  0  0  0  0
    1.3143   -5.0113    0.4556 C   0  0  0  0  0  0  0  0  0  0  0  0
    1.6313   -6.0042    0.7423 H   0  0  0  0  0  0  0  0  0  0  0  0
    0.2631   -4.8477   -0.4649 C   0  0  0  0  0  0  0  0  0  0  0  0
   -0.2268   -5.7137   -0.8854 H   0  0  0  0  0  0  0  0  0  0  0  0
   -0.1448   -3.5560   -0.8425 C   0  0  0  0  0  0  0  0  0  0  0  0
   -0.9514   -3.4315   -1.5532 H   0  0  0  0  0  0  0  0  0  0  0  0
   -1.2048    1.0808    0.0569 C   0  0  0  0  0  0  0  0  0  0  0  0
   -1.4719    1.4512   -1.0871 O   0  0  0  0  0  0  0  0  0  0  0  0
   -1.1190    1.9341    1.0853 N   0  0  0  0  0  0  0  0  0  0  0  0
   -0.8410    1.5620    1.9806 H   0  0  0  0  0  0  0  0  0  0  0  0
   -1.3240    3.3765    0.9763 C   0  0  0  0  0  0  0  0  0  0  0  0
   -2.2769    3.5781    0.4824 H   0  0  0  0  0  0  0  0  0  0  0  0
   -1.3290    3.8325    1.9667 H   0  0  0  0  0  0  0  0  0  0  0  0
   -0.5225    3.8173    0.3804 H   0  0  0  0  0  0  0  0  0  0  0  0
  5  6  2  0  0  0  0
  5  7  1  0  0  0  0
  2  3  1  0  0  0  0
  2  4  1  0  0  0  0
  2  5  1  0  0  0  0
  1  2  1  0  0  0  0
 25 26  2  0  0  0  0
 25 27  1  0  0  0  0
 23 24  1  0  0  0  0
 21 22  1  0  0  0  0
 21 23  2  0  0  0  0
 19 20  1  0  0  0  0
 19 21  1  0  0  0  0
 17 18  1  0  0  0  0
 17 19  2  0  0  0  0
 15 16  1  0  0  0  0
 15 17  1  0  0  0  0
 14 15  2  0  0  0  0
 14 23  1  0  0  0  0
 11 12  1  0  0  0  0
 11 13  1  0  0  0  0
 11 14  1  0  0  0  0
  9 10  1  0  0  0  0
  9 11  1  0  0  0  0
  9 25  1  0  0  0  0
  7  8  1  0  0  0  0
  7  9  1  0  0  0  0
 29 30  1  0  0  0  0
 29 31  1  0  0  0  0
 29 32  1  0  0  0  0
 27 28  1  0  0  0  0
 27 29  1  0  0  0  0
M  END
$$$$
default_name
  -OEChem-01062215323D

 32 32  0     1  0  0  0  0  0999 V2000
   -3.8405   -3.7518    1.6252 H   0  0  0  0  0  0  0  0  0  0  0  0
   -3.7965   -2.8768    0.9782 C   0  0  0  0  0  0  0  0  0  0  0  0
   -4.5465   -2.1527    1.2902 H   0  0  0  0  0  0  0  0  0  0  0  0
   -3.9745   -3.1748   -0.0538 H   0  0  0  0  0  0  0  0  0  0  0  0
   -2.4245   -2.2537    1.0882 C   0  0  0  0  0  0  0  0  0  0  0  0
   -1.5805   -2.7478    1.8242 O   0  0  0  0  0  0  0  0  0  0  0  0
   -2.2045   -1.1637    0.3562 N   0  0  0  0  0  0  0  0  0  0  0  0
   -2.9595   -0.7907   -0.2008 H   0  0  0  0  0  0  0  0  0  0  0  0
   -0.9485   -0.4087    0.3482 C   0  0  1  0  0  0  0  0  0  0  0  0
   -0.4930   -0.4799    1.3372 H   0  0  0  0  0  0  0  0  0  0  0  0
    0.0147   -1.0355   -0.6745 C   0  0  0  0  0  0  0  0  0  0  0  0
   -0.4868   -1.1008   -1.6411 H   0  0  0  0  0  0  0  0  0  0  0  0
    0.8772   -0.3786   -0.7967 H   0  0  0  0  0  0  0  0  0  0  0  0
    0.4929   -2.4249   -0.2981 C   0  0  0  0  0  0  0  0  0  0  0  0
    1.5456   -2.5922    0.6216 C   0  0  0  0  0  0  0  0  0  0  0  0
    2.0355   -1.7285    1.0487 H   0  0  0  0  0  0  0  0  0  0  0  0
    1.9561   -3.8846    0.9971 C   0  0  0  0  0  0  0  0  0  0  0  0
    2.7663   -4.0108    1.7015 H   0  0  0  0  0  0  0  0  0  0  0  0
    1.3143   -5.0113    0.4556 C   0  0  0  0  0  0  0  0  0  0  0  0
    1.6313   -6.0042    0.7423 H   0  0  0  0  0  0  0  0  0  0  0  0
    0.2631   -4.8477   -0.4649 C   0  0  0  0  0  0  0  0  0  0  0  0
   -0.2268   -5.7137   -0.8854 H   0  0  0  0  0  0  0  0  0  0  0  0
   -0.1448   -3.5560   -0.8425 C   0  0  0  0  0  0  0  0  0  0  0  0
   -0.9514   -3.4315   -1.5532 H   0  0  0  0  0  0  0  0  0  0  0  0
   -1.2048    1.0808    0.0569 C   0  0  0  0  0  0  0  0  0  0  0  0
   -1.7348    1.4228   -1.0012 O   0  0  0  0  0  0  0  0  0  0  0  0
   -0.8261    1.9655    0.9881 N   0  0  0  0  0  0  0  0  0  0  0  0
   -0.3482    1.6120    1.8029 H   0  0  0  0  0  0  0  0  0  0  0  0
   -0.9890    3.4119    0.8626 C   0  0  0  0  0  0  0  0  0  0  0  0
   -2.0258    3.6468    0.6125 H   0  0  0  0  0  0  0  0  0  0  0  0
   -0.7248    3.9037    1.7992 H   0  0  0  0  0  0  0  0  0  0  0  0
   -0.3448    3.7862    0.0646 H   0  0  0  0  0  0  0  0  0  0  0  0
  5  6  2  0  0  0  0
  5  7  1  0  0  0  0
  2  3  1  0  0  0  0
  2  4  1  0  0  0  0
  2  5  1  0  0  0  0
  1  2  1  0  0  0  0
 25 26  2  0  0  0  0
 25 27  1  0  0  0  0
 23 24  1  0  0  0  0
 21 22  1  0  0  0  0
 21 23  2  0  0  0  0
 19 20  1  0  0  0  0
 19 21  1  0  0  0  0
 17 18  1  0  0  0  0
 17 19  2  0  0  0  0
 15 16  1  0  0  0  0
 15 17  1  0  0  0  0
 14 15  2  0  0  0  0
 14 23  1  0  0  0  0
 11 12  1  0  0  0  0
 11 13  1  0  0  0  0
 11 14  1  0  0  0  0
  9 10  1  0  0  0  0
  9 11  1  0  0  0  0
  9 25  1  0  0  0  0
  7  8  1  0  0  0  0
  7  9  1  0  0  0  0
 29 30  1  0  0  0  0
 29 31  1  0  0  0  0
 29 32  1  0  0  0  0
 27 28  1  0  0  0  0
 27 29  1  0  0  0  0
M  END
$$$$
default_name
  -OEChem-01062215323D

 32 32  0     1  0  0  0  0  0999 V2000
   -3.8405   -3.7518    1.6252 H   0  0  0  0  0  0  0  0  0  0  0  0
   -3.7965   -2.8768    0.9782 C   0  0  0  0  0  0  0  0  0  0  0  0
   -4.5465   -2.1527    1.2902 H   0  0  0  0  0  0  0  0  0  0  0  0
   -3.9745   -3.1748   -0.0538 H   0  0  0  0  0  0  0  0  0  0  0  0
   -2.4245   -2.2537    1.0882 C   0  0  0  0  0  0  0  0  0  0  0  0
   -1.5805   -2.7478    1.8242 O   0  0  0  0  0  0  0  0  0  0  0  0
   -2.2045   -1.1637    0.3562 N   0  0  0  0  0  0  0  0  0  0  0  0
   -2.9595   -0.7907   -0.2008 H   0  0  0  0  0  0  0  0  0  0  0  0
   -0.9485   -0.4087    0.3482 C   0  0  1  0  0  0  0  0  0  0  0  0
   -0.4930   -0.4799    1.3372 H   0  0  0  0  0  0  0  0  0  0  0  0
    0.0147   -1.0355   -0.6745 C   0  0  0  0  0  0  0  0  0  0  0  0
   -0.4868   -1.1008   -1.6411 H   0  0  0  0  0  0  0  0  0  0  0  0
    0.8772   -0.3786   -0.7967 H   0  0  0  0  0  0  0  0  0  0  0  0
    0.4929   -2.4249   -0.2981 C   0  0  0  0  0  0  0  0  0  0  0  0
    1.5456   -2.5922    0.6216 C   0  0  0  0  0  0  0  0  0  0  0  0
    2.0355   -1.7285    1.0487 H   0  0  0  0  0  0  0  0  0  0  0  0
    1.9561   -3.8846    0.9971 C   0  0  0  0  0  0  0  0  0  0  0  0
    2.7663   -4.0108    1.7015 H   0  0  0  0  0  0  0  0  0  0  0  0
    1.3143   -5.0113    0.4556 C   0  0  0  0  0  0  0  0  0  0  0  0
    1.6313   -6.0042    0.7423 H   0  0  0  0  0  0  0  0  0  0  0  0
    0.2631   -4.8477   -0.4649 C   0  0  0  0  0  0  0  0  0  0  0  0
   -0.2268   -5.7137   -0.8854 H   0  0  0  0  0  0  0  0  0  0  0  0
   -0.1448   -3.5560   -0.8425 C   0  0  0  0  0  0  0  0  0  0  0  0
   -0.9514   -3.4315   -1.5532 H   0  0  0  0  0  0  0  0  0  0  0  0
   -1.2048    1.0808    0.0569 C   0  0  0  0  0  0  0  0  0  0  0  0
   -1.9685    1.4119   -0.8511 O   0  0  0  0  0  0  0  0  0  0  0  0
   -0.5660    1.9773    0.8194 N   0  0  0  0  0  0  0  0  0  0  0  0
    0.0857    1.6286    1.5057 H   0  0  0  0  0  0  0  0  0  0  0  0
   -0.6922    3.4248    0.6673 C   0  0  0  0  0  0  0  0  0  0  0  0
   -1.7472    3.7064    0.6724 H   0  0  0  0  0  0  0  0  0  0  0  0
   -0.1798    3.9356    1.4830 H   0  0  0  0  0  0  0  0  0  0  0  0
   -0.2537    3.7337   -0.2836 H   0  0  0  0  0  0  0  0  0  0  0  0
  5  6  2  0  0  0  0
  5  7  1  0  0  0  0
  2  3  1  0  0  0  0
  2  4  1  0  0  0  0
  2  5  1  0  0  0  0
  1  2  1  0  0  0  0
 25 26  2  0  0  0  0
 25 27  1  0  0  0  0
 23 24  1  0  0  0  0
 21 22  1  0  0  0  0
 21 23  2  0  0  0  0
 19 20  1  0  0  0  0
 19 21  1  0  0  0  0
 17 18  1  0  0  0  0
 17 19  2  0  0  0  0
 15 16  1  0  0  0  0
 15 17  1  0  0  0  0
 14 15  2  0  0  0  0
 14 23  1  0  0  0  0
 11 12  1  0  0  0  0
 11 13  1  0  0  0  0
 11 14  1  0  0  0  0
  9 10  1  0  0  0  0
  9 11  1  0  0  0  0
  9 25  1  0  0  0  0
  7  8  1  0  0  0  0
  7  9  1  0  0  0  0
 29 30  1  0  0  0  0
 29 31  1  0  0  0  0
 29 32  1  0  0  0  0
 27 28  1  0  0  0  0
 27 29  1  0  0  0  0
M  END
$$$$
default_name
  -OEChem-01062215323D

 32 32  0     1  0  0  0  0  0999 V2000
   -3.8405   -3.7518    1.6252 H   0  0  0  0  0  0  0  0  0  0  0  0
   -3.7965   -2.8768    0.9782 C   0  0  0  0  0  0  0  0  0  0  0  0
   -4.5465   -2.1527    1.2902 H   0  0  0  0  0  0  0  0  0  0  0  0
   -3.9745   -3.1748   -0.0538 H   0  0  0  0  0  0  0  0  0  0  0  0
   -2.4245   -2.2537    1.0882 C   0  0  0  0  0  0  0  0  0  0  0  0
   -1.5805   -2.7478    1.8242 O   0  0  0  0  0  0  0  0  0  0  0  0
   -2.2045   -1.1637    0.3562 N   0  0  0  0  0  0  0  0  0  0  0  0
   -2.9595   -0.7907   -0.2008 H   0  0  0  0  0  0  0  0  0  0  0  0
   -0.9485   -0.4087    0.3482 C   0  0  1  0  0  0  0  0  0  0  0  0
   -0.4930   -0.4799    1.3372 H   0  0  0  0  0  0  0  0  0  0  0  0
    0.0147   -1.0355   -0.6745 C   0  0  0  0  0  0  0  0  0  0  0  0
   -0.4868   -1.1008   -1.6411 H   0  0  0  0  0  0  0  0  0  0  0  0
    0.8772   -0.3786   -0.7967 H   0  0  0  0  0  0  0  0  0  0  0  0
    0.4929   -2.4249   -0.2981 C   0  0  0  0  0  0  0  0  0  0  0  0
    1.5456   -2.5922    0.6216 C   0  0  0  0  0  0  0  0  0  0  0  0
    2.0355   -1.7285    1.0487 H   0  0  0  0  0  0  0  0  0  0  0  0
    1.9561   -3.8846    0.9971 C   0  0  0  0  0  0  0  0  0  0  0  0
    2.7663   -4.0108    1.7015 H   0  0  0  0  0  0  0  0  0  0  0  0
    1.3143   -5.0113    0.4556 C   0  0  0  0  0  0  0  0  0  0  0  0
    1.6313   -6.0042    0.7423 H   0  0  0  0  0  0  0  0  0  0  0  0
    0.2631   -4.8477   -0.4649 C   0  0  0  0  0  0  0  0  0  0  0  0
   -0.2268   -5.7137   -0.8854 H   0  0  0  0  0  0  0  0  0  0  0  0
   -0.1448   -3.5560   -0.8425 C   0  0  0  0  0  0  0  0  0  0  0  0
   -0.9514   -3.4315   -1.5532 H   0  0  0  0  0  0  0  0  0  0  0  0
   -1.2048    1.0808    0.0569 C   0  0  0  0  0  0  0  0  0  0  0  0
   -2.1572    1.4193   -0.6472 O   0  0  0  0  0  0  0  0  0  0  0  0
   -0.3564    1.9687    0.5908 N   0  0  0  0  0  0  0  0  0  0  0  0
    0.4312    1.6105    1.1093 H   0  0  0  0  0  0  0  0  0  0  0  0
   -0.4537    3.4143    0.4037 C   0  0  0  0  0  0  0  0  0  0  0  0
   -1.4603    3.7530    0.6579 H   0  0  0  0  0  0  0  0  0  0  0  0
    0.2691    3.9262    1.0396 H   0  0  0  0  0  0  0  0  0  0  0  0
   -0.2555    3.6637   -0.6405 H   0  0  0  0  0  0  0  0  0  0  0  0
  5  6  2  0  0  0  0
  5  7  1  0  0  0  0
  2  3  1  0  0  0  0
  2  4  1  0  0  0  0
  2  5  1  0  0  0  0
  1  2  1  0  0  0  0
 25 26  2  0  0  0  0
 25 27  1  0  0  0  0
 23 24  1  0  0  0  0
 21 22  1  0  0  0  0
 21 23  2  0  0  0  0
 19 20  1  0  0  0  0
 19 21  1  0  0  0  0
 17 18  1  0  0  0  0
 17 19  2  0  0  0  0
 15 16  1  0  0  0  0
 15 17  1  0  0  0  0
 14 15  2  0  0  0  0
 14 23  1  0  0  0  0
 11 12  1  0  0  0  0
 11 13  1  0  0  0  0
 11 14  1  0  0  0  0
  9 10  1  0  0  0  0
  9 11  1  0  0  0  0
  9 25  1  0  0  0  0
  7  8  1  0  0  0  0
  7  9  1  0  0  0  0
 29 30  1  0  0  0  0
 29 31  1  0  0  0  0
 29 32  1  0  0  0  0
 27 28  1  0  0  0  0
 27 29  1  0  0  0  0
M  END
$$$$
default_name
  -OEChem-01062215323D

 32 32  0     1  0  0  0  0  0999 V2000
   -3.8405   -3.7518    1.6252 H   0  0  0  0  0  0  0  0  0  0  0  0
   -3.7965   -2.8768    0.9782 C   0  0  0  0  0  0  0  0  0  0  0  0
   -4.5465   -2.1527    1.2902 H   0  0  0  0  0  0  0  0  0  0  0  0
   -3.9745   -3.1748   -0.0538 H   0  0  0  0  0  0  0  0  0  0  0  0
   -2.4245   -2.2537    1.0882 C   0  0  0  0  0  0  0  0  0  0  0  0
   -1.5805   -2.7478    1.8242 O   0  0  0  0  0  0  0  0  0  0  0  0
   -2.2045   -1.1637    0.3562 N   0  0  0  0  0  0  0  0  0  0  0  0
   -2.9595   -0.7907   -0.2008 H   0  0  0  0  0  0  0  0  0  0  0  0
   -0.9485   -0.4087    0.3482 C   0  0  1  0  0  0  0  0  0  0  0  0
   -0.4930   -0.4799    1.3372 H   0  0  0  0  0  0  0  0  0  0  0  0
    0.0147   -1.0355   -0.6745 C   0  0  0  0  0  0  0  0  0  0  0  0
   -0.4868   -1.1008   -1.6411 H   0  0  0  0  0  0  0  0  0  0  0  0
    0.8772   -0.3786   -0.7967 H   0  0  0  0  0  0  0  0  0  0  0  0
    0.4929   -2.4249   -0.2981 C   0  0  0  0  0  0  0  0  0  0  0  0
    1.5456   -2.5922    0.6216 C   0  0  0  0  0  0  0  0  0  0  0  0
    2.0355   -1.7285    1.0487 H   0  0  0  0  0  0  0  0  0  0  0  0
    1.9561   -3.8846    0.9971 C   0  0  0  0  0  0  0  0  0  0  0  0
    2.7663   -4.0108    1.7015 H   0  0  0  0  0  0  0  0  0  0  0  0
    1.3143   -5.0113    0.4556 C   0  0  0  0  0  0  0  0  0  0  0  0
    1.6313   -6.0042    0.7423 H   0  0  0  0  0  0  0  0  0  0  0  0
    0.2631   -4.8477   -0.4649 C   0  0  0  0  0  0  0  0  0  0  0  0
   -0.2268   -5.7137   -0.8854 H   0  0  0  0  0  0  0  0  0  0  0  0
   -0.1448   -3.5560   -0.8425 C   0  0  0  0  0  0  0  0  0  0  0  0
   -0.9514   -3.4315   -1.5532 H   0  0  0  0  0  0  0  0  0  0  0  0
   -1.2048    1.0808    0.0569 C   0  0  0  0  0  0  0  0  0  0  0  0
   -2.2880    1.4445   -0.4032 O   0  0  0  0  0  0  0  0  0  0  0  0
   -0.2116    1.9402    0.3178 N   0  0  0  0  0  0  0  0  0  0  0  0
    0.6647    1.5590    0.6406 H   0  0  0  0  0  0  0  0  0  0  0  0
   -0.2899    3.3811    0.0899 C   0  0  0  0  0  0  0  0  0  0  0  0
   -1.1844    3.7833    0.5701 H   0  0  0  0  0  0  0  0  0  0  0  0
    0.5912    3.8760    0.4994 H   0  0  0  0  0  0  0  0  0  0  0  0
   -0.3501    3.5807   -0.9817 H   0  0  0  0  0  0  0  0  0  0  0  0
  5  6  2  0  0  0  0
  5  7  1  0  0  0  0
  2  3  1  0  0  0  0
  2  4  1  0  0  0  0
  2  5  1  0  0  0  0
  1  2  1  0  0  0  0
 25 26  2  0  0  0  0
 25 27  1  0  0  0  0
 23 24  1  0  0  0  0
 21 22  1  0  0  0  0
 21 23  2  0  0  0  0
 19 20  1  0  0  0  0
 19 21  1  0  0  0  0
 17 18  1  0  0  0  0
 17 19  2  0  0  0  0
 15 16  1  0  0  0  0
 15 17  1  0  0  0  0
 14 15  2  0  0  0  0
 14 23  1  0  0  0  0
 11 12  1  0  0  0  0
 11 13  1  0  0  0  0
 11 14  1  0  0  0  0
  9 10  1  0  0  0  0
  9 11  1  0  0  0  0
  9 25  1  0  0  0  0
  7  8  1  0  0  0  0
  7  9  1  0  0  0  0
 29 30  1  0  0  0  0
 29 31  1  0  0  0  0
 29 32  1  0  0  0  0
 27 28  1  0  0  0  0
 27 29  1  0  0  0  0
M  END
$$$$
default_name
  -OEChem-01062215323D

 32 32  0     1  0  0  0  0  0999 V2000
   -3.8405   -3.7518    1.6252 H   0  0  0  0  0  0  0  0  0  0  0  0
   -3.7965   -2.8768    0.9782 C   0  0  0  0  0  0  0  0  0  0  0  0
   -4.5465   -2.1527    1.2902 H   0  0  0  0  0  0  0  0  0  0  0  0
   -3.9745   -3.1748   -0.0538 H   0  0  0  0  0  0  0  0  0  0  0  0
   -2.4245   -2.2537    1.0882 C   0  0  0  0  0  0  0  0  0  0  0  0
   -1.5805   -2.7478    1.8242 O   0  0  0  0  0  0  0  0  0  0  0  0
   -2.2045   -1.1637    0.3562 N   0  0  0  0  0  0  0  0  0  0  0  0
   -2.9595   -0.7907   -0.2008 H   0  0  0  0  0  0  0  0  0  0  0  0
   -0.9485   -0.4087    0.3482 C   0  0  1  0  0  0  0  0  0  0  0  0
   -0.3666   -0.6914    1.2269 H   0  0  0  0  0  0  0  0  0  0  0  0
   -0.1405   -0.7797   -0.9072 C   0  0  0  0  0  0  0  0  0  0  0  0
   -0.7673   -0.6357   -1.7884 H   0  0  0  0  0  0  0  0  0  0  0  0
    0.7087   -0.1004   -0.9948 H   0  0  0  0  0  0  0  0  0  0  0  0
    0.3606   -2.2113   -0.9156 C   0  0  0  0  0  0  0  0  0  0  0  0
    1.5235   -2.5642   -0.2048 C   0  0  0  0  0  0  0  0  0  0  0  0
    2.0800   -1.8103    0.3339 H   0  0  0  0  0  0  0  0  0  0  0  0
    1.9591   -3.9020   -0.1835 C   0  0  0  0  0  0  0  0  0  0  0  0
    2.8536   -4.1703    0.3608 H   0  0  0  0  0  0  0  0  0  0  0  0
    1.2323   -4.8890   -0.8707 C   0  0  0  0  0  0  0  0  0  0  0  0
    1.5683   -5.9164   -0.8562 H   0  0  0  0  0  0  0  0  0  0  0  0
    0.0708   -4.5396   -1.5832 C   0  0  0  0  0  0  0  0  0  0  0  0
   -0.4849   -5.2973   -2.1159 H   0  0  0  0  0  0  0  0  0  0  0  0
   -0.3624   -3.2020   -1.6070 C   0  0  0  0  0  0  0  0  0  0  0  0
   -1.2544   -2.9339   -2.1583 H   0  0  0  0  0  0  0  0  0  0  0  0
   -1.2168    1.1047    0.4313 C   0  0  0  0  0  0  0  0  0  0  0  0
   -2.3727    1.5267    0.4880 O   0  0  0  0  0  0  0  0  0  0  0  0
   -0.1547    1.9202    0.4332 N   0  0  0  0  0  0  0  0  0  0  0  0
    0.7570    1.5020    0.3278 H   0  0  0  0  0  0  0  0  0  0  0  0
   -0.2371    3.3774    0.4977 C   0  0  0  0  0  0  0  0  0  0  0  0
   -0.8605    3.6753    1.3433 H   0  0  0  0  0  0  0  0  0  0  0  0
    0.7583    3.8064    0.6163 H   0  0  0  0  0  0  0  0  0  0  0  0
   -0.6880    3.7607   -0.4197 H   0  0  0  0  0  0  0  0  0  0  0  0
  5  6  2  0  0  0  0
  5  7  1  0  0  0  0
  2  3  1  0  0  0  0
  2  4  1  0  0  0  0
  2  5  1  0  0  0  0
  1  2  1  0  0  0  0
 25 26  2  0  0  0  0
 25 27  1  0  0  0  0
 23 24  1  0  0  0  0
 21 22  1  0  0  0  0
 21 23  2  0  0  0  0
 19 20  1  0  0  0  0
 19 21  1  0  0  0  0
 17 18  1  0  0  0  0
 17 19  2  0  0  0  0
 15 16  1  0  0  0  0
 15 17  1  0  0  0  0
 14 15  2  0  0  0  0
 14 23  1  0  0  0  0
 11 12  1  0  0  0  0
 11 13  1  0  0  0  0
 11 14  1  0  0  0  0
  9 10  1  0  0  0  0
  9 11  1  0  0  0  0
  9 25  1  0  0  0  0
  7  8  1  0  0  0  0
  7  9  1  0  0  0  0
 29 30  1  0  0  0  0
 29 31  1  0  0  0  0
 29 32  1  0  0  0  0
 27 28  1  0  0  0  0
 27 29  1  0  0  0  0
M  END
$$$$
default_name
  -OEChem-01062215323D

 32 32  0     1  0  0  0  0  0999 V2000
   -3.8405   -3.7518    1.6252 H   0  0  0  0  0  0  0  0  0  0  0  0
   -3.7965   -2.8768    0.9782 C   0  0  0  0  0  0  0  0  0  0  0  0
   -4.5465   -2.1527    1.2902 H   0  0  0  0  0  0  0  0  0  0  0  0
   -3.9745   -3.1748   -0.0538 H   0  0  0  0  0  0  0  0  0  0  0  0
   -2.4245   -2.2537    1.0882 C   0  0  0  0  0  0  0  0  0  0  0  0
   -1.5805   -2.7478    1.8242 O   0  0  0  0  0  0  0  0  0  0  0  0
   -2.2045   -1.1637    0.3562 N   0  0  0  0  0  0  0  0  0  0  0  0
   -2.9595   -0.7907   -0.2008 H   0  0  0  0  0  0  0  0  0  0  0  0
   -0.9485   -0.4087    0.3482 C   0  0  1  0  0  0  0  0  0  0  0  0
   -0.3666   -0.6914    1.2269 H   0  0  0  0  0  0  0  0  0  0  0  0
   -0.1405   -0.7797   -0.9072 C   0  0  0  0  0  0  0  0  0  0  0  0
   -0.7673   -0.6357   -1.7884 H   0  0  0  0  0  0  0  0  0  0  0  0
    0.7087   -0.1004   -0.9948 H   0  0  0  0  0  0  0  0  0  0  0  0
    0.3606   -2.2113   -0.9156 C   0  0  0  0  0  0  0  0  0  0  0  0
    1.5235   -2.5642   -0.2048 C   0  0  0  0  0  0  0  0  0  0  0  0
    2.0800   -1.8103    0.3339 H   0  0  0  0  0  0  0  0  0  0  0  0
    1.9591   -3.9020   -0.1835 C   0  0  0  0  0  0  0  0  0  0  0  0
    2.8536   -4.1703    0.3608 H   0  0  0  0  0  0  0  0  0  0  0  0
    1.2323   -4.8890   -0.8707 C   0  0  0  0  0  0  0  0  0  0  0  0
    1.5683   -5.9164   -0.8562 H   0  0  0  0  0  0  0  0  0  0  0  0
    0.0708   -4.5396   -1.5832 C   0  0  0  0  0  0  0  0  0  0  0  0
   -0.4849   -5.2973   -2.1159 H   0  0  0  0  0  0  0  0  0  0  0  0
   -0.3624   -3.2020   -1.6070 C   0  0  0  0  0  0  0  0  0  0  0  0
   -1.2544   -2.9339   -2.1583 H   0  0  0  0  0  0  0  0  0  0  0  0
   -1.2168    1.1047    0.4313 C   0  0  0  0  0  0  0  0  0  0  0  0
   -2.3285    1.5194    0.7624 O   0  0  0  0  0  0  0  0  0  0  0  0
   -0.2055    1.9281    0.1272 N   0  0  0  0  0  0  0  0  0  0  0  0
    0.6576    1.5128   -0.1888 H   0  0  0  0  0  0  0  0  0  0  0  0
   -0.2976    3.3859    0.1474 C   0  0  0  0  0  0  0  0  0  0  0  0
   -0.6915    3.7181    1.1103 H   0  0  0  0  0  0  0  0  0  0  0  0
    0.6865    3.8281   -0.0102 H   0  0  0  0  0  0  0  0  0  0  0  0
   -0.9744    3.7221   -0.6405 H   0  0  0  0  0  0  0  0  0  0  0  0
  5  6  2  0  0  0  0
  5  7  1  0  0  0  0
  2  3  1  0  0  0  0
  2  4  1  0  0  0  0
  2  5  1  0  0  0  0
  1  2  1  0  0  0  0
 25 26  2  0  0  0  0
 25 27  1  0  0  0  0
 23 24  1  0  0  0  0
 21 22  1  0  0  0  0
 21 23  2  0  0  0  0
 19 20  1  0  0  0  0
 19 21  1  0  0  0  0
 17 18  1  0  0  0  0
 17 19  2  0  0  0  0
 15 16  1  0  0  0  0
 15 17  1  0  0  0  0
 14 15  2  0  0  0  0
 14 23  1  0  0  0  0
 11 12  1  0  0  0  0
 11 13  1  0  0  0  0
 11 14  1  0  0  0  0
  9 10  1  0  0  0  0
  9 11  1  0  0  0  0
  9 25  1  0  0  0  0
  7  8  1  0  0  0  0
  7  9  1  0  0  0  0
 29 30  1  0  0  0  0
 29 31  1  0  0  0  0
 29 32  1  0  0  0  0
 27 28  1  0  0  0  0
 27 29  1  0  0  0  0
M  END
$$$$
default_name
  -OEChem-01062215323D

 32 32  0     1  0  0  0  0  0999 V2000
   -3.8405   -3.7518    1.6252 H   0  0  0  0  0  0  0  0  0  0  0  0
   -3.7965   -2.8768    0.9782 C   0  0  0  0  0  0  0  0  0  0  0  0
   -4.5465   -2.1527    1.2902 H   0  0  0  0  0  0  0  0  0  0  0  0
   -3.9745   -3.1748   -0.0538 H   0  0  0  0  0  0  0  0  0  0  0  0
   -2.4245   -2.2537    1.0882 C   0  0  0  0  0  0  0  0  0  0  0  0
   -1.5805   -2.7478    1.8242 O   0  0  0  0  0  0  0  0  0  0  0  0
   -2.2045   -1.1637    0.3562 N   0  0  0  0  0  0  0  0  0  0  0  0
   -2.9595   -0.7907   -0.2008 H   0  0  0  0  0  0  0  0  0  0  0  0
   -0.9485   -0.4087    0.3482 C   0  0  1  0  0  0  0  0  0  0  0  0
   -0.3666   -0.6914    1.2269 H   0  0  0  0  0  0  0  0  0  0  0  0
   -0.1405   -0.7797   -0.9072 C   0  0  0  0  0  0  0  0  0  0  0  0
   -0.7673   -0.6357   -1.7884 H   0  0  0  0  0  0  0  0  0  0  0  0
    0.7087   -0.1004   -0.9948 H   0  0  0  0  0  0  0  0  0  0  0  0
    0.3606   -2.2113   -0.9156 C   0  0  0  0  0  0  0  0  0  0  0  0
    1.5235   -2.5642   -0.2048 C   0  0  0  0  0  0  0  0  0  0  0  0
    2.0800   -1.8103    0.3339 H   0  0  0  0  0  0  0  0  0  0  0  0
    1.9591   -3.9020   -0.1835 C   0  0  0  0  0  0  0  0  0  0  0  0
    2.8536   -4.1703    0.3608 H   0  0  0  0  0  0  0  0  0  0  0  0
    1.2323   -4.8890   -0.8707 C   0  0  0  0  0  0  0  0  0  0  0  0
    1.5683   -5.9164   -0.8562 H   0  0  0  0  0  0  0  0  0  0  0  0
    0.0708   -4.5396   -1.5832 C   0  0  0  0  0  0  0  0  0  0  0  0
   -0.4849   -5.2973   -2.1159 H   0  0  0  0  0  0  0  0  0  0  0  0
   -0.3624   -3.2020   -1.6070 C   0  0  0  0  0  0  0  0  0  0  0  0
   -1.2544   -2.9339   -2.1583 H   0  0  0  0  0  0  0  0  0  0  0  0
   -1.2168    1.1047    0.4313 C   0  0  0  0  0  0  0  0  0  0  0  0
   -2.2158    1.5254    1.0164 O   0  0  0  0  0  0  0  0  0  0  0  0
   -0.3325    1.9211   -0.1558 N   0  0  0  0  0  0  0  0  0  0  0  0
    0.4300    1.4985   -0.6630 H   0  0  0  0  0  0  0  0  0  0  0  0
   -0.4454    3.3775   -0.1759 C   0  0  0  0  0  0  0  0  0  0  0  0
   -0.5881    3.7513    0.8402 H   0  0  0  0  0  0  0  0  0  0  0  0
    0.4574    3.8198   -0.5981 H   0  0  0  0  0  0  0  0  0  0  0  0
   -1.3067    3.6708   -0.7792 H   0  0  0  0  0  0  0  0  0  0  0  0
  5  6  2  0  0  0  0
  5  7  1  0  0  0  0
  2  3  1  0  0  0  0
  2  4  1  0  0  0  0
  2  5  1  0  0  0  0
  1  2  1  0  0  0  0
 25 26  2  0  0  0  0
 25 27  1  0  0  0  0
 23 24  1  0  0  0  0
 21 22  1  0  0  0  0
 21 23  2  0  0  0  0
 19 20  1  0  0  0  0
 19 21  1  0  0  0  0
 17 18  1  0  0  0  0
 17 19  2  0  0  0  0
 15 16  1  0  0  0  0
 15 17  1  0  0  0  0
 14 15  2  0  0  0  0
 14 23  1  0  0  0  0
 11 12  1  0  0  0  0
 11 13  1  0  0  0  0
 11 14  1  0  0  0  0
  9 10  1  0  0  0  0
  9 11  1  0  0  0  0
  9 25  1  0  0  0  0
  7  8  1  0  0  0  0
  7  9  1  0  0  0  0
 29 30  1  0  0  0  0
 29 31  1  0  0  0  0
 29 32  1  0  0  0  0
 27 28  1  0  0  0  0
 27 29  1  0  0  0  0
M  END
$$$$
default_name
  -OEChem-01062215323D

 32 32  0     1  0  0  0  0  0999 V2000
   -3.8405   -3.7518    1.6252 H   0  0  0  0  0  0  0  0  0  0  0  0
   -3.7965   -2.8768    0.9782 C   0  0  0  0  0  0  0  0  0  0  0  0
   -4.5465   -2.1527    1.2902 H   0  0  0  0  0  0  0  0  0  0  0  0
   -3.9745   -3.1748   -0.0538 H   0  0  0  0  0  0  0  0  0  0  0  0
   -2.4245   -2.2537    1.0882 C   0  0  0  0  0  0  0  0  0  0  0  0
   -1.5805   -2.7478    1.8242 O   0  0  0  0  0  0  0  0  0  0  0  0
   -2.2045   -1.1637    0.3562 N   0  0  0  0  0  0  0  0  0  0  0  0
   -2.9595   -0.7907   -0.2008 H   0  0  0  0  0  0  0  0  0  0  0  0
   -0.9485   -0.4087    0.3482 C   0  0  1  0  0  0  0  0  0  0  0  0
   -0.3666   -0.6914    1.2269 H   0  0  0  0  0  0  0  0  0  0  0  0
   -0.1405   -0.7797   -0.9072 C   0  0  0  0  0  0  0  0  0  0  0  0
   -0.7673   -0.6357   -1.7884 H   0  0  0  0  0  0  0  0  0  0  0  0
    0.7087   -0.1004   -0.9948 H   0  0  0  0  0  0  0  0  0  0  0  0
    0.3606   -2.2113   -0.9156 C   0  0  0  0  0  0  0  0  0  0  0  0
    1.5235   -2.5642   -0.2048 C   0  0  0  0  0  0  0  0  0  0  0  0
    2.0800   -1.8103    0.3339 H   0  0  0  0  0  0  0  0  0  0  0  0
    1.9591   -3.9020   -0.1835 C   0  0  0  0  0  0  0  0  0  0  0  0
    2.8536   -4.1703    0.3608 H   0  0  0  0  0  0  0  0  0  0  0  0
    1.2323   -4.8890   -0.8707 C   0  0  0  0  0  0  0  0  0  0  0  0
    1.5683   -5.9164   -0.8562 H   0  0  0  0  0  0  0  0  0  0  0  0
    0.0708   -4.5396   -1.5832 C   0  0  0  0  0  0  0  0  0  0  0  0
   -0.4849   -5.2973   -2.1159 H   0  0  0  0  0  0  0  0  0  0  0  0
   -0.3624   -3.2020   -1.6070 C   0  0  0  0  0  0  0  0  0  0  0  0
   -1.2544   -2.9339   -2.1583 H   0  0  0  0  0  0  0  0  0  0  0  0
   -1.2168    1.1047    0.4313 C   0  0  0  0  0  0  0  0  0  0  0  0
   -2.0425    1.5443    1.2329 O   0  0  0  0  0  0  0  0  0  0  0  0
   -0.5271    1.8998   -0.3965 N   0  0  0  0  0  0  0  0  0  0  0  0
    0.0896    1.4601   -1.0625 H   0  0  0  0  0  0  0  0  0  0  0  0
   -0.6702    3.3527   -0.4502 C   0  0  0  0  0  0  0  0  0  0  0  0
   -0.5574    3.7726    0.5516 H   0  0  0  0  0  0  0  0  0  0  0  0
    0.0866    3.7820   -1.1072 H   0  0  0  0  0  0  0  0  0  0  0  0
   -1.6622    3.6104   -0.8262 H   0  0  0  0  0  0  0  0  0  0  0  0
  5  6  2  0  0  0  0
  5  7  1  0  0  0  0
  2  3  1  0  0  0  0
  2  4  1  0  0  0  0
  2  5  1  0  0  0  0
  1  2  1  0  0  0  0
 25 26  2  0  0  0  0
 25 27  1  0  0  0  0
 23 24  1  0  0  0  0
 21 22  1  0  0  0  0
 21 23  2  0  0  0  0
 19 20  1  0  0  0  0
 19 21  1  0  0  0  0
 17 18  1  0  0  0  0
 17 19  2  0  0  0  0
 15 16  1  0  0  0  0
 15 17  1  0  0  0  0
 14 15  2  0  0  0  0
 14 23  1  0  0  0  0
 11 12  1  0  0  0  0
 11 13  1  0  0  0  0
 11 14  1  0  0  0  0
  9 10  1  0  0  0  0
  9 11  1  0  0  0  0
  9 25  1  0  0  0  0
  7  8  1  0  0  0  0
  7  9  1  0  0  0  0
 29 30  1  0  0  0  0
 29 31  1  0  0  0  0
 29 32  1  0  0  0  0
 27 28  1  0  0  0  0
 27 29  1  0  0  0  0
M  END
$$$$
default_name
  -OEChem-01062215323D

 32 32  0     1  0  0  0  0  0999 V2000
   -3.8405   -3.7518    1.6252 H   0  0  0  0  0  0  0  0  0  0  0  0
   -3.7965   -2.8768    0.9782 C   0  0  0  0  0  0  0  0  0  0  0  0
   -4.5465   -2.1527    1.2902 H   0  0  0  0  0  0  0  0  0  0  0  0
   -3.9745   -3.1748   -0.0538 H   0  0  0  0  0  0  0  0  0  0  0  0
   -2.4245   -2.2537    1.0882 C   0  0  0  0  0  0  0  0  0  0  0  0
   -1.5805   -2.7478    1.8242 O   0  0  0  0  0  0  0  0  0  0  0  0
   -2.2045   -1.1637    0.3562 N   0  0  0  0  0  0  0  0  0  0  0  0
   -2.9595   -0.7907   -0.2008 H   0  0  0  0  0  0  0  0  0  0  0  0
   -0.9485   -0.4087    0.3482 C   0  0  1  0  0  0  0  0  0  0  0  0
   -0.3666   -0.6914    1.2269 H   0  0  0  0  0  0  0  0  0  0  0  0
   -0.1405   -0.7797   -0.9072 C   0  0  0  0  0  0  0  0  0  0  0  0
   -0.7673   -0.6357   -1.7884 H   0  0  0  0  0  0  0  0  0  0  0  0
    0.7087   -0.1004   -0.9948 H   0  0  0  0  0  0  0  0  0  0  0  0
    0.3606   -2.2113   -0.9156 C   0  0  0  0  0  0  0  0  0  0  0  0
    1.5235   -2.5642   -0.2048 C   0  0  0  0  0  0  0  0  0  0  0  0
    2.0800   -1.8103    0.3339 H   0  0  0  0  0  0  0  0  0  0  0  0
    1.9591   -3.9020   -0.1835 C   0  0  0  0  0  0  0  0  0  0  0  0
    2.8536   -4.1703    0.3608 H   0  0  0  0  0  0  0  0  0  0  0  0
    1.2323   -4.8890   -0.8707 C   0  0  0  0  0  0  0  0  0  0  0  0
    1.5683   -5.9164   -0.8562 H   0  0  0  0  0  0  0  0  0  0  0  0
    0.0708   -4.5396   -1.5832 C   0  0  0  0  0  0  0  0  0  0  0  0
   -0.4849   -5.2973   -2.1159 H   0  0  0  0  0  0  0  0  0  0  0  0
   -0.3624   -3.2020   -1.6070 C   0  0  0  0  0  0  0  0  0  0  0  0
   -1.2544   -2.9339   -2.1583 H   0  0  0  0  0  0  0  0  0  0  0  0
   -1.2168    1.1047    0.4313 C   0  0  0  0  0  0  0  0  0  0  0  0
   -1.8202    1.5747    1.3970 O   0  0  0  0  0  0  0  0  0  0  0  0
   -0.7761    1.8657   -0.5785 N   0  0  0  0  0  0  0  0  0  0  0  0
   -0.3402    1.4002   -1.3600 H   0  0  0  0  0  0  0  0  0  0  0  0
   -0.9569    3.3133   -0.6568 C   0  0  0  0  0  0  0  0  0  0  0  0
   -0.6015    3.7806    0.2640 H   0  0  0  0  0  0  0  0  0  0  0  0
   -0.4005    3.7174   -1.5029 H   0  0  0  0  0  0  0  0  0  0  0  0
   -2.0168    3.5449   -0.7785 H   0  0  0  0  0  0  0  0  0  0  0  0
  5  6  2  0  0  0  0
  5  7  1  0  0  0  0
  2  3  1  0  0  0  0
  2  4  1  0  0  0  0
  2  5  1  0  0  0  0
  1  2  1  0  0  0  0
 25 26  2  0  0  0  0
 25 27  1  0  0  0  0
 23 24  1  0  0  0  0
 21 22  1  0  0  0  0
 21 23  2  0  0  0  0
 19 20  1  0  0  0  0
 19 21  1  0  0  0  0
 17 18  1  0  0  0  0
 17 19  2  0  0  0  0
 15 16  1  0  0  0  0
 15 17  1  0  0  0  0
 14 15  2  0  0  0  0
 14 23  1  0  0  0  0
 11 12  1  0  0  0  0
 11 13  1  0  0  0  0
 11 14  1  0  0  0  0
  9 10  1  0  0  0  0
  9 11  1  0  0  0  0
  9 25  1  0  0  0  0
  7  8  1  0  0  0  0
  7  9  1  0  0  0  0
 29 30  1  0  0  0  0
 29 31  1  0  0  0  0
 29 32  1  0  0  0  0
 27 28  1  0  0  0  0
 27 29  1  0  0  0  0
M  END
$$$$
default_name
  -OEChem-01062215323D

 32 32  0     1  0  0  0  0  0999 V2000
   -3.8405   -3.7518    1.6252 H   0  0  0  0  0  0  0  0  0  0  0  0
   -3.7965   -2.8768    0.9782 C   0  0  0  0  0  0  0  0  0  0  0  0
   -4.5465   -2.1527    1.2902 H   0  0  0  0  0  0  0  0  0  0  0  0
   -3.9745   -3.1748   -0.0538 H   0  0  0  0  0  0  0  0  0  0  0  0
   -2.4245   -2.2537    1.0882 C   0  0  0  0  0  0  0  0  0  0  0  0
   -1.5805   -2.7478    1.8242 O   0  0  0  0  0  0  0  0  0  0  0  0
   -2.2045   -1.1637    0.3562 N   0  0  0  0  0  0  0  0  0  0  0  0
   -2.9595   -0.7907   -0.2008 H   0  0  0  0  0  0  0  0  0  0  0  0
   -0.9485   -0.4087    0.3482 C   0  0  1  0  0  0  0  0  0  0  0  0
   -0.3666   -0.6914    1.2269 H   0  0  0  0  0  0  0  0  0  0  0  0
   -0.1405   -0.7797   -0.9072 C   0  0  0  0  0  0  0  0  0  0  0  0
   -0.7673   -0.6357   -1.7884 H   0  0  0  0  0  0  0  0  0  0  0  0
    0.7087   -0.1004   -0.9948 H   0  0  0  0  0  0  0  0  0  0  0  0
    0.3606   -2.2113   -0.9156 C   0  0  0  0  0  0  0  0  0  0  0  0
    1.5235   -2.5642   -0.2048 C   0  0  0  0  0  0  0  0  0  0  0  0
    2.0800   -1.8103    0.3339 H   0  0  0  0  0  0  0  0  0  0  0  0
    1.9591   -3.9020   -0.1835 C   0  0  0  0  0  0  0  0  0  0  0  0
    2.8536   -4.1703    0.3608 H   0  0  0  0  0  0  0  0  0  0  0  0
    1.2323   -4.8890   -0.8707 C   0  0  0  0  0  0  0  0  0  0  0  0
    1.5683   -5.9164   -0.8562 H   0  0  0  0  0  0  0  0  0  0  0  0
    0.0708   -4.5396   -1.5832 C   0  0  0  0  0  0  0  0  0  0  0  0
   -0.4849   -5.2973   -2.1159 H   0  0  0  0  0  0  0  0  0  0  0  0
   -0.3624   -3.2020   -1.6070 C   0  0  0  0  0  0  0  0  0  0  0  0
   -1.2544   -2.9339   -2.1583 H   0  0  0  0  0  0  0  0  0  0  0  0
   -1.2168    1.1047    0.4313 C   0  0  0  0  0  0  0  0  0  0  0  0
   -1.5641    1.6145    1.4976 O   0  0  0  0  0  0  0  0  0  0  0  0
   -1.0624    1.8210   -0.6894 N   0  0  0  0  0  0  0  0  0  0  0  0
   -0.8303    1.3230   -1.5352 H   0  0  0  0  0  0  0  0  0  0  0  0
   -1.2858    3.2618   -0.7817 C   0  0  0  0  0  0  0  0  0  0  0  0
   -0.7174    3.7747   -0.0030 H   0  0  0  0  0  0  0  0  0  0  0  0
   -0.9709    3.6303   -1.7583 H   0  0  0  0  0  0  0  0  0  0  0  0
   -2.3462    3.4789   -0.6392 H   0  0  0  0  0  0  0  0  0  0  0  0
  5  6  2  0  0  0  0
  5  7  1  0  0  0  0
  2  3  1  0  0  0  0
  2  4  1  0  0  0  0
  2  5  1  0  0  0  0
  1  2  1  0  0  0  0
 25 26  2  0  0  0  0
 25 27  1  0  0  0  0
 23 24  1  0  0  0  0
 21 22  1  0  0  0  0
 21 23  2  0  0  0  0
 19 20  1  0  0  0  0
 19 21  1  0  0  0  0
 17 18  1  0  0  0  0
 17 19  2  0  0  0  0
 15 16  1  0  0  0  0
 15 17  1  0  0  0  0
 14 15  2  0  0  0  0
 14 23  1  0  0  0  0
 11 12  1  0  0  0  0
 11 13  1  0  0  0  0
 11 14  1  0  0  0  0
  9 10  1  0  0  0  0
  9 11  1  0  0  0  0
  9 25  1  0  0  0  0
  7  8  1  0  0  0  0
  7  9  1  0  0  0  0
 29 30  1  0  0  0  0
 29 31  1  0  0  0  0
 29 32  1  0  0  0  0
 27 28  1  0  0  0  0
 27 29  1  0  0  0  0
M  END
$$$$
default_name
  -OEChem-01062215323D

 32 32  0     1  0  0  0  0  0999 V2000
   -3.8405   -3.7518    1.6252 H   0  0  0  0  0  0  0  0  0  0  0  0
   -3.7965   -2.8768    0.9782 C   0  0  0  0  0  0  0  0  0  0  0  0
   -4.5465   -2.1527    1.2902 H   0  0  0  0  0  0  0  0  0  0  0  0
   -3.9745   -3.1748   -0.0538 H   0  0  0  0  0  0  0  0  0  0  0  0
   -2.4245   -2.2537    1.0882 C   0  0  0  0  0  0  0  0  0  0  0  0
   -1.5805   -2.7478    1.8242 O   0  0  0  0  0  0  0  0  0  0  0  0
   -2.2045   -1.1637    0.3562 N   0  0  0  0  0  0  0  0  0  0  0  0
   -2.9595   -0.7907   -0.2008 H   0  0  0  0  0  0  0  0  0  0  0  0
   -0.9485   -0.4087    0.3482 C   0  0  1  0  0  0  0  0  0  0  0  0
   -0.3666   -0.6914    1.2269 H   0  0  0  0  0  0  0  0  0  0  0  0
   -0.1405   -0.7797   -0.9072 C   0  0  0  0  0  0  0  0  0  0  0  0
   -0.7673   -0.6357   -1.7884 H   0  0  0  0  0  0  0  0  0  0  0  0
    0.7087   -0.1004   -0.9948 H   0  0  0  0  0  0  0  0  0  0  0  0
    0.3606   -2.2113   -0.9156 C   0  0  0  0  0  0  0  0  0  0  0  0
    1.5235   -2.5642   -0.2048 C   0  0  0  0  0  0  0  0  0  0  0  0
    2.0800   -1.8103    0.3339 H   0  0  0  0  0  0  0  0  0  0  0  0
    1.9591   -3.9020   -0.1835 C   0  0  0  0  0  0  0  0  0  0  0  0
    2.8536   -4.1703    0.3608 H   0  0  0  0  0  0  0  0  0  0  0  0
    1.2323   -4.8890   -0.8707 C   0  0  0  0  0  0  0  0  0  0  0  0
    1.5683   -5.9164   -0.8562 H   0  0  0  0  0  0  0  0  0  0  0  0
    0.0708   -4.5396   -1.5832 C   0  0  0  0  0  0  0  0  0  0  0  0
   -0.4849   -5.2973   -2.1159 H   0  0  0  0  0  0  0  0  0  0  0  0
   -0.3624   -3.2020   -1.6070 C   0  0  0  0  0  0  0  0  0  0  0  0
   -1.2544   -2.9339   -2.1583 H   0  0  0  0  0  0  0  0  0  0  0  0
   -1.2168    1.1047    0.4313 C   0  0  0  0  0  0  0  0  0  0  0  0
   -1.2918    1.6611    1.5278 O   0  0  0  0  0  0  0  0  0  0  0  0
   -1.3665    1.7689   -0.7217 N   0  0  0  0  0  0  0  0  0  0  0  0
   -1.3472    1.2336   -1.5763 H   0  0  0  0  0  0  0  0  0  0  0  0
   -1.6346    3.2019   -0.8163 C   0  0  0  0  0  0  0  0  0  0  0  0
   -0.8972    3.7554   -0.2310 H   0  0  0  0  0  0  0  0  0  0  0  0
   -1.5856    3.5267   -1.8559 H   0  0  0  0  0  0  0  0  0  0  0  0
   -2.6280    3.4168   -0.4178 H   0  0  0  0  0  0  0  0  0  0  0  0
  5  6  2  0  0  0  0
  5  7  1  0  0  0  0
  2  3  1  0  0  0  0
  2  4  1  0  0  0  0
  2  5  1  0  0  0  0
  1  2  1  0  0  0  0
 25 26  2  0  0  0  0
 25 27  1  0  0  0  0
 23 24  1  0  0  0  0
 21 22  1  0  0  0  0
 21 23  2  0  0  0  0
 19 20  1  0  0  0  0
 19 21  1  0  0  0  0
 17 18  1  0  0  0  0
 17 19  2  0  0  0  0
 15 16  1  0  0  0  0
 15 17  1  0  0  0  0
 14 15  2  0  0  0  0
 14 23  1  0  0  0  0
 11 12  1  0  0  0  0
 11 13  1  0  0  0  0
 11 14  1  0  0  0  0
  9 10  1  0  0  0  0
  9 11  1  0  0  0  0
  9 25  1  0  0  0  0
  7  8  1  0  0  0  0
  7  9  1  0  0  0  0
 29 30  1  0  0  0  0
 29 31  1  0  0  0  0
 29 32  1  0  0  0  0
 27 28  1  0  0  0  0
 27 29  1  0  0  0  0
M  END
$$$$
default_name
  -OEChem-01062215323D

 32 32  0     1  0  0  0  0  0999 V2000
   -3.8405   -3.7518    1.6252 H   0  0  0  0  0  0  0  0  0  0  0  0
   -3.7965   -2.8768    0.9782 C   0  0  0  0  0  0  0  0  0  0  0  0
   -4.5465   -2.1527    1.2902 H   0  0  0  0  0  0  0  0  0  0  0  0
   -3.9745   -3.1748   -0.0538 H   0  0  0  0  0  0  0  0  0  0  0  0
   -2.4245   -2.2537    1.0882 C   0  0  0  0  0  0  0  0  0  0  0  0
   -1.5805   -2.7478    1.8242 O   0  0  0  0  0  0  0  0  0  0  0  0
   -2.2045   -1.1637    0.3562 N   0  0  0  0  0  0  0  0  0  0  0  0
   -2.9595   -0.7907   -0.2008 H   0  0  0  0  0  0  0  0  0  0  0  0
   -0.9485   -0.4087    0.3482 C   0  0  1  0  0  0  0  0  0  0  0  0
   -0.3666   -0.6914    1.2269 H   0  0  0  0  0  0  0  0  0  0  0  0
   -0.1405   -0.7797   -0.9072 C   0  0  0  0  0  0  0  0  0  0  0  0
   -0.7673   -0.6357   -1.7884 H   0  0  0  0  0  0  0  0  0  0  0  0
    0.7087   -0.1004   -0.9948 H   0  0  0  0  0  0  0  0  0  0  0  0
    0.3606   -2.2113   -0.9156 C   0  0  0  0  0  0  0  0  0  0  0  0
    1.5235   -2.5642   -0.2048 C   0  0  0  0  0  0  0  0  0  0  0  0
    2.0800   -1.8103    0.3339 H   0  0  0  0  0  0  0  0  0  0  0  0
    1.9591   -3.9020   -0.1835 C   0  0  0  0  0  0  0  0  0  0  0  0
    2.8536   -4.1703    0.3608 H   0  0  0  0  0  0  0  0  0  0  0  0
    1.2323   -4.8890   -0.8707 C   0  0  0  0  0  0  0  0  0  0  0  0
    1.5683   -5.9164   -0.8562 H   0  0  0  0  0  0  0  0  0  0  0  0
    0.0708   -4.5396   -1.5832 C   0  0  0  0  0  0  0  0  0  0  0  0
   -0.4849   -5.2973   -2.1159 H   0  0  0  0  0  0  0  0  0  0  0  0
   -0.3624   -3.2020   -1.6070 C   0  0  0  0  0  0  0  0  0  0  0  0
   -1.2544   -2.9339   -2.1583 H   0  0  0  0  0  0  0  0  0  0  0  0
   -1.2168    1.1047    0.4313 C   0  0  0  0  0  0  0  0  0  0  0  0
   -1.0217    1.7113    1.4856 O   0  0  0  0  0  0  0  0  0  0  0  0
   -1.6678    1.7128   -0.6731 N   0  0  0  0  0  0  0  0  0  0  0  0
   -1.8557    1.1382   -1.4805 H   0  0  0  0  0  0  0  0  0  0  0  0
   -1.9794    3.1376   -0.7582 C   0  0  0  0  0  0  0  0  0  0  0  0
   -1.1287    3.7239   -0.4047 H   0  0  0  0  0  0  0  0  0  0  0  0
   -2.2027    3.4137   -1.7891 H   0  0  0  0  0  0  0  0  0  0  0  0
   -2.8431    3.3628   -0.1295 H   0  0  0  0  0  0  0  0  0  0  0  0
  5  6  2  0  0  0  0
  5  7  1  0  0  0  0
  2  3  1  0  0  0  0
  2  4  1  0  0  0  0
  2  5  1  0  0  0  0
  1  2  1  0  0  0  0
 25 26  2  0  0  0  0
 25 27  1  0  0  0  0
 23 24  1  0  0  0  0
 21 22  1  0  0  0  0
 21 23  2  0  0  0  0
 19 20  1  0  0  0  0
 19 21  1  0  0  0  0
 17 18  1  0  0  0  0
 17 19  2  0  0  0  0
 15 16  1  0  0  0  0
 15 17  1  0  0  0  0
 14 15  2  0  0  0  0
 14 23  1  0  0  0  0
 11 12  1  0  0  0  0
 11 13  1  0  0  0  0
 11 14  1  0  0  0  0
  9 10  1  0  0  0  0
  9 11  1  0  0  0  0
  9 25  1  0  0  0  0
  7  8  1  0  0  0  0
  7  9  1  0  0  0  0
 29 30  1  0  0  0  0
 29 31  1  0  0  0  0
 29 32  1  0  0  0  0
 27 28  1  0  0  0  0
 27 29  1  0  0  0  0
M  END
$$$$
default_name
  -OEChem-01062215323D

 32 32  0     1  0  0  0  0  0999 V2000
   -3.8405   -3.7518    1.6252 H   0  0  0  0  0  0  0  0  0  0  0  0
   -3.7965   -2.8768    0.9782 C   0  0  0  0  0  0  0  0  0  0  0  0
   -4.5465   -2.1527    1.2902 H   0  0  0  0  0  0  0  0  0  0  0  0
   -3.9745   -3.1748   -0.0538 H   0  0  0  0  0  0  0  0  0  0  0  0
   -2.4245   -2.2537    1.0882 C   0  0  0  0  0  0  0  0  0  0  0  0
   -1.5805   -2.7478    1.8242 O   0  0  0  0  0  0  0  0  0  0  0  0
   -2.2045   -1.1637    0.3562 N   0  0  0  0  0  0  0  0  0  0  0  0
   -2.9595   -0.7907   -0.2008 H   0  0  0  0  0  0  0  0  0  0  0  0
   -0.9485   -0.4087    0.3482 C   0  0  1  0  0  0  0  0  0  0  0  0
   -0.3666   -0.6914    1.2269 H   0  0  0  0  0  0  0  0  0  0  0  0
   -0.1405   -0.7797   -0.9072 C   0  0  0  0  0  0  0  0  0  0  0  0
   -0.7673   -0.6357   -1.7884 H   0  0  0  0  0  0  0  0  0  0  0  0
    0.7087   -0.1004   -0.9948 H   0  0  0  0  0  0  0  0  0  0  0  0
    0.3606   -2.2113   -0.9156 C   0  0  0  0  0  0  0  0  0  0  0  0
    1.5235   -2.5642   -0.2048 C   0  0  0  0  0  0  0  0  0  0  0  0
    2.0800   -1.8103    0.3339 H   0  0  0  0  0  0  0  0  0  0  0  0
    1.9591   -3.9020   -0.1835 C   0  0  0  0  0  0  0  0  0  0  0  0
    2.8536   -4.1703    0.3608 H   0  0  0  0  0  0  0  0  0  0  0  0
    1.2323   -4.8890   -0.8707 C   0  0  0  0  0  0  0  0  0  0  0  0
    1.5683   -5.9164   -0.8562 H   0  0  0  0  0  0  0  0  0  0  0  0
    0.0708   -4.5396   -1.5832 C   0  0  0  0  0  0  0  0  0  0  0  0
   -0.4849   -5.2973   -2.1159 H   0  0  0  0  0  0  0  0  0  0  0  0
   -0.3624   -3.2020   -1.6070 C   0  0  0  0  0  0  0  0  0  0  0  0
   -1.2544   -2.9339   -2.1583 H   0  0  0  0  0  0  0  0  0  0  0  0
   -1.2168    1.1047    0.4313 C   0  0  0  0  0  0  0  0  0  0  0  0
   -0.7722    1.7617    1.3738 O   0  0  0  0  0  0  0  0  0  0  0  0
   -1.9456    1.6567   -0.5470 N   0  0  0  0  0  0  0  0  0  0  0  0
   -2.3212    1.0433   -1.2542 H   0  0  0  0  0  0  0  0  0  0  0  0
   -2.2969    3.0733   -0.6115 C   0  0  0  0  0  0  0  0  0  0  0  0
   -1.3960    3.6824   -0.5122 H   0  0  0  0  0  0  0  0  0  0  0  0
   -2.7803    3.2989   -1.5624 H   0  0  0  0  0  0  0  0  0  0  0  0
   -2.9766    3.3207    0.2062 H   0  0  0  0  0  0  0  0  0  0  0  0
  5  6  2  0  0  0  0
  5  7  1  0  0  0  0
  2  3  1  0  0  0  0
  2  4  1  0  0  0  0
  2  5  1  0  0  0  0
  1  2  1  0  0  0  0
 25 26  2  0  0  0  0
 25 27  1  0  0  0  0
 23 24  1  0  0  0  0
 21 22  1  0  0  0  0
 21 23  2  0  0  0  0
 19 20  1  0  0  0  0
 19 21  1  0  0  0  0
 17 18  1  0  0  0  0
 17 19  2  0  0  0  0
 15 16  1  0  0  0  0
 15 17  1  0  0  0  0
 14 15  2  0  0  0  0
 14 23  1  0  0  0  0
 11 12  1  0  0  0  0
 11 13  1  0  0  0  0
 11 14  1  0  0  0  0
  9 10  1  0  0  0  0
  9 11  1  0  0  0  0
  9 25  1  0  0  0  0
  7  8  1  0  0  0  0
  7  9  1  0  0  0  0
 29 30  1  0  0  0  0
 29 31  1  0  0  0  0
 29 32  1  0  0  0  0
 27 28  1  0  0  0  0
 27 29  1  0  0  0  0
M  END
$$$$
default_name
  -OEChem-01062215323D

 32 32  0     1  0  0  0  0  0999 V2000
   -3.8405   -3.7518    1.6252 H   0  0  0  0  0  0  0  0  0  0  0  0
   -3.7965   -2.8768    0.9782 C   0  0  0  0  0  0  0  0  0  0  0  0
   -4.5465   -2.1527    1.2902 H   0  0  0  0  0  0  0  0  0  0  0  0
   -3.9745   -3.1748   -0.0538 H   0  0  0  0  0  0  0  0  0  0  0  0
   -2.4245   -2.2537    1.0882 C   0  0  0  0  0  0  0  0  0  0  0  0
   -1.5805   -2.7478    1.8242 O   0  0  0  0  0  0  0  0  0  0  0  0
   -2.2045   -1.1637    0.3562 N   0  0  0  0  0  0  0  0  0  0  0  0
   -2.9595   -0.7907   -0.2008 H   0  0  0  0  0  0  0  0  0  0  0  0
   -0.9485   -0.4087    0.3482 C   0  0  1  0  0  0  0  0  0  0  0  0
   -0.3666   -0.6914    1.2269 H   0  0  0  0  0  0  0  0  0  0  0  0
   -0.1405   -0.7797   -0.9072 C   0  0  0  0  0  0  0  0  0  0  0  0
   -0.7673   -0.6357   -1.7884 H   0  0  0  0  0  0  0  0  0  0  0  0
    0.7087   -0.1004   -0.9948 H   0  0  0  0  0  0  0  0  0  0  0  0
    0.3606   -2.2113   -0.9156 C   0  0  0  0  0  0  0  0  0  0  0  0
    1.5235   -2.5642   -0.2048 C   0  0  0  0  0  0  0  0  0  0  0  0
    2.0800   -1.8103    0.3339 H   0  0  0  0  0  0  0  0  0  0  0  0
    1.9591   -3.9020   -0.1835 C   0  0  0  0  0  0  0  0  0  0  0  0
    2.8536   -4.1703    0.3608 H   0  0  0  0  0  0  0  0  0  0  0  0
    1.2323   -4.8890   -0.8707 C   0  0  0  0  0  0  0  0  0  0  0  0
    1.5683   -5.9164   -0.8562 H   0  0  0  0  0  0  0  0  0  0  0  0
    0.0708   -4.5396   -1.5832 C   0  0  0  0  0  0  0  0  0  0  0  0
   -0.4849   -5.2973   -2.1159 H   0  0  0  0  0  0  0  0  0  0  0  0
   -0.3624   -3.2020   -1.6070 C   0  0  0  0  0  0  0  0  0  0  0  0
   -1.2544   -2.9339   -2.1583 H   0  0  0  0  0  0  0  0  0  0  0  0
   -1.2168    1.1047    0.4313 C   0  0  0  0  0  0  0  0  0  0  0  0
   -0.5604    1.8088    1.2000 O   0  0  0  0  0  0  0  0  0  0  0  0
   -2.1811    1.6042   -0.3520 N   0  0  0  0  0  0  0  0  0  0  0  0
   -2.7118    0.9553   -0.9128 H   0  0  0  0  0  0  0  0  0  0  0  0
   -2.5652    3.0133   -0.3861 C   0  0  0  0  0  0  0  0  0  0  0  0
   -1.6810    3.6337   -0.5461 H   0  0  0  0  0  0  0  0  0  0  0  0
   -3.2788    3.1901   -1.1913 H   0  0  0  0  0  0  0  0  0  0  0  0
   -3.0196    3.2933    0.5663 H   0  0  0  0  0  0  0  0  0  0  0  0
  5  6  2  0  0  0  0
  5  7  1  0  0  0  0
  2  3  1  0  0  0  0
  2  4  1  0  0  0  0
  2  5  1  0  0  0  0
  1  2  1  0  0  0  0
 25 26  2  0  0  0  0
 25 27  1  0  0  0  0
 23 24  1  0  0  0  0
 21 22  1  0  0  0  0
 21 23  2  0  0  0  0
 19 20  1  0  0  0  0
 19 21  1  0  0  0  0
 17 18  1  0  0  0  0
 17 19  2  0  0  0  0
 15 16  1  0  0  0  0
 15 17  1  0  0  0  0
 14 15  2  0  0  0  0
 14 23  1  0  0  0  0
 11 12  1  0  0  0  0
 11 13  1  0  0  0  0
 11 14  1  0  0  0  0
  9 10  1  0  0  0  0
  9 11  1  0  0  0  0
  9 25  1  0  0  0  0
  7  8  1  0  0  0  0
  7  9  1  0  0  0  0
 29 30  1  0  0  0  0
 29 31  1  0  0  0  0
 29 32  1  0  0  0  0
 27 28  1  0  0  0  0
 27 29  1  0  0  0  0
M  END
$$$$
default_name
  -OEChem-01062215323D

 32 32  0     1  0  0  0  0  0999 V2000
   -3.8405   -3.7518    1.6252 H   0  0  0  0  0  0  0  0  0  0  0  0
   -3.7965   -2.8768    0.9782 C   0  0  0  0  0  0  0  0  0  0  0  0
   -4.5465   -2.1527    1.2902 H   0  0  0  0  0  0  0  0  0  0  0  0
   -3.9745   -3.1748   -0.0538 H   0  0  0  0  0  0  0  0  0  0  0  0
   -2.4245   -2.2537    1.0882 C   0  0  0  0  0  0  0  0  0  0  0  0
   -1.5805   -2.7478    1.8242 O   0  0  0  0  0  0  0  0  0  0  0  0
   -2.2045   -1.1637    0.3562 N   0  0  0  0  0  0  0  0  0  0  0  0
   -2.9595   -0.7907   -0.2008 H   0  0  0  0  0  0  0  0  0  0  0  0
   -0.9485   -0.4087    0.3482 C   0  0  1  0  0  0  0  0  0  0  0  0
   -0.3666   -0.6914    1.2269 H   0  0  0  0  0  0  0  0  0  0  0  0
   -0.1405   -0.7797   -0.9072 C   0  0  0  0  0  0  0  0  0  0  0  0
   -0.7673   -0.6357   -1.7884 H   0  0  0  0  0  0  0  0  0  0  0  0
    0.7087   -0.1004   -0.9948 H   0  0  0  0  0  0  0  0  0  0  0  0
    0.3606   -2.2113   -0.9156 C   0  0  0  0  0  0  0  0  0  0  0  0
    1.5235   -2.5642   -0.2048 C   0  0  0  0  0  0  0  0  0  0  0  0
    2.0800   -1.8103    0.3339 H   0  0  0  0  0  0  0  0  0  0  0  0
    1.9591   -3.9020   -0.1835 C   0  0  0  0  0  0  0  0  0  0  0  0
    2.8536   -4.1703    0.3608 H   0  0  0  0  0  0  0  0  0  0  0  0
    1.2323   -4.8890   -0.8707 C   0  0  0  0  0  0  0  0  0  0  0  0
    1.5683   -5.9164   -0.8562 H   0  0  0  0  0  0  0  0  0  0  0  0
    0.0708   -4.5396   -1.5832 C   0  0  0  0  0  0  0  0  0  0  0  0
   -0.4849   -5.2973   -2.1159 H   0  0  0  0  0  0  0  0  0  0  0  0
   -0.3624   -3.2020   -1.6070 C   0  0  0  0  0  0  0  0  0  0  0  0
   -1.2544   -2.9339   -2.1583 H   0  0  0  0  0  0  0  0  0  0  0  0
   -1.2168    1.1047    0.4313 C   0  0  0  0  0  0  0  0  0  0  0  0
   -0.4007    1.8494    0.9762 O   0  0  0  0  0  0  0  0  0  0  0  0
   -2.3583    1.5590   -0.1012 N   0  0  0  0  0  0  0  0  0  0  0  0
   -3.0011    0.8802   -0.4798 H   0  0  0  0  0  0  0  0  0  0  0  0
   -2.7663    2.9618   -0.0974 C   0  0  0  0  0  0  0  0  0  0  0  0
   -1.9642    3.5812   -0.5041 H   0  0  0  0  0  0  0  0  0  0  0  0
   -3.6644    3.0948   -0.7011 H   0  0  0  0  0  0  0  0  0  0  0  0
   -2.9692    3.2824    0.9263 H   0  0  0  0  0  0  0  0  0  0  0  0
  5  6  2  0  0  0  0
  5  7  1  0  0  0  0
  2  3  1  0  0  0  0
  2  4  1  0  0  0  0
  2  5  1  0  0  0  0
  1  2  1  0  0  0  0
 25 26  2  0  0  0  0
 25 27  1  0  0  0  0
 23 24  1  0  0  0  0
 21 22  1  0  0  0  0
 21 23  2  0  0  0  0
 19 20  1  0  0  0  0
 19 21  1  0  0  0  0
 17 18  1  0  0  0  0
 17 19  2  0  0  0  0
 15 16  1  0  0  0  0
 15 17  1  0  0  0  0
 14 15  2  0  0  0  0
 14 23  1  0  0  0  0
 11 12  1  0  0  0  0
 11 13  1  0  0  0  0
 11 14  1  0  0  0  0
  9 10  1  0  0  0  0
  9 11  1  0  0  0  0
  9 25  1  0  0  0  0
  7  8  1  0  0  0  0
  7  9  1  0  0  0  0
 29 30  1  0  0  0  0
 29 31  1  0  0  0  0
 29 32  1  0  0  0  0
 27 28  1  0  0  0  0
 27 29  1  0  0  0  0
M  END
$$$$
default_name
  -OEChem-01062215323D

 32 32  0     1  0  0  0  0  0999 V2000
   -3.8405   -3.7518    1.6252 H   0  0  0  0  0  0  0  0  0  0  0  0
   -3.7965   -2.8768    0.9782 C   0  0  0  0  0  0  0  0  0  0  0  0
   -4.5465   -2.1527    1.2902 H   0  0  0  0  0  0  0  0  0  0  0  0
   -3.9745   -3.1748   -0.0538 H   0  0  0  0  0  0  0  0  0  0  0  0
   -2.4245   -2.2537    1.0882 C   0  0  0  0  0  0  0  0  0  0  0  0
   -1.5805   -2.7478    1.8242 O   0  0  0  0  0  0  0  0  0  0  0  0
   -2.2045   -1.1637    0.3562 N   0  0  0  0  0  0  0  0  0  0  0  0
   -2.9595   -0.7907   -0.2008 H   0  0  0  0  0  0  0  0  0  0  0  0
   -0.9485   -0.4087    0.3482 C   0  0  1  0  0  0  0  0  0  0  0  0
   -0.3666   -0.6914    1.2269 H   0  0  0  0  0  0  0  0  0  0  0  0
   -0.1405   -0.7797   -0.9072 C   0  0  0  0  0  0  0  0  0  0  0  0
   -0.7673   -0.6357   -1.7884 H   0  0  0  0  0  0  0  0  0  0  0  0
    0.7087   -0.1004   -0.9948 H   0  0  0  0  0  0  0  0  0  0  0  0
    0.3606   -2.2113   -0.9156 C   0  0  0  0  0  0  0  0  0  0  0  0
    1.5235   -2.5642   -0.2048 C   0  0  0  0  0  0  0  0  0  0  0  0
    2.0800   -1.8103    0.3339 H   0  0  0  0  0  0  0  0  0  0  0  0
    1.9591   -3.9020   -0.1835 C   0  0  0  0  0  0  0  0  0  0  0  0
    2.8536   -4.1703    0.3608 H   0  0  0  0  0  0  0  0  0  0  0  0
    1.2323   -4.8890   -0.8707 C   0  0  0  0  0  0  0  0  0  0  0  0
    1.5683   -5.9164   -0.8562 H   0  0  0  0  0  0  0  0  0  0  0  0
    0.0708   -4.5396   -1.5832 C   0  0  0  0  0  0  0  0  0  0  0  0
   -0.4849   -5.2973   -2.1159 H   0  0  0  0  0  0  0  0  0  0  0  0
   -0.3624   -3.2020   -1.6070 C   0  0  0  0  0  0  0  0  0  0  0  0
   -1.2544   -2.9339   -2.1583 H   0  0  0  0  0  0  0  0  0  0  0  0
   -1.2168    1.1047    0.4313 C   0  0  0  0  0  0  0  0  0  0  0  0
   -0.3039    1.8807    0.7175 O   0  0  0  0  0  0  0  0  0  0  0  0
   -2.4649    1.5242    0.1880 N   0  0  0  0  0  0  0  0  0  0  0  0
   -3.1693    0.8232    0.0156 H   0  0  0  0  0  0  0  0  0  0  0  0
   -2.8863    2.9223    0.2350 C   0  0  0  0  0  0  0  0  0  0  0  0
   -2.2263    3.5285   -0.3891 H   0  0  0  0  0  0  0  0  0  0  0  0
   -3.9108    3.0195   -0.1251 H   0  0  0  0  0  0  0  0  0  0  0  0
   -2.8286    3.2889    1.2617 H   0  0  0  0  0  0  0  0  0  0  0  0
  5  6  2  0  0  0  0
  5  7  1  0  0  0  0
  2  3  1  0  0  0  0
  2  4  1  0  0  0  0
  2  5  1  0  0  0  0
  1  2  1  0  0  0  0
 25 26  2  0  0  0  0
 25 27  1  0  0  0  0
 23 24  1  0  0  0  0
 21 22  1  0  0  0  0
 21 23  2  0  0  0  0
 19 20  1  0  0  0  0
 19 21  1  0  0  0  0
 17 18  1  0  0  0  0
 17 19  2  0  0  0  0
 15 16  1  0  0  0  0
 15 17  1  0  0  0  0
 14 15  2  0  0  0  0
 14 23  1  0  0  0  0
 11 12  1  0  0  0  0
 11 13  1  0  0  0  0
 11 14  1  0  0  0  0
  9 10  1  0  0  0  0
  9 11  1  0  0  0  0
  9 25  1  0  0  0  0
  7  8  1  0  0  0  0
  7  9  1  0  0  0  0
 29 30  1  0  0  0  0
 29 31  1  0  0  0  0
 29 32  1  0  0  0  0
 27 28  1  0  0  0  0
 27 29  1  0  0  0  0
M  END
$$$$
default_name
  -OEChem-01062215323D

 32 32  0     1  0  0  0  0  0999 V2000
   -3.8405   -3.7518    1.6252 H   0  0  0  0  0  0  0  0  0  0  0  0
   -3.7965   -2.8768    0.9782 C   0  0  0  0  0  0  0  0  0  0  0  0
   -4.5465   -2.1527    1.2902 H   0  0  0  0  0  0  0  0  0  0  0  0
   -3.9745   -3.1748   -0.0538 H   0  0  0  0  0  0  0  0  0  0  0  0
   -2.4245   -2.2537    1.0882 C   0  0  0  0  0  0  0  0  0  0  0  0
   -1.5805   -2.7478    1.8242 O   0  0  0  0  0  0  0  0  0  0  0  0
   -2.2045   -1.1637    0.3562 N   0  0  0  0  0  0  0  0  0  0  0  0
   -2.9595   -0.7907   -0.2008 H   0  0  0  0  0  0  0  0  0  0  0  0
   -0.9485   -0.4087    0.3482 C   0  0  1  0  0  0  0  0  0  0  0  0
   -0.3666   -0.6914    1.2269 H   0  0  0  0  0  0  0  0  0  0  0  0
   -0.1405   -0.7797   -0.9072 C   0  0  0  0  0  0  0  0  0  0  0  0
   -0.7673   -0.6357   -1.7884 H   0  0  0  0  0  0  0  0  0  0  0  0
    0.7087   -0.1004   -0.9948 H   0  0  0  0  0  0  0  0  0  0  0  0
    0.3606   -2.2113   -0.9156 C   0  0  0  0  0  0  0  0  0  0  0  0
    1.5235   -2.5642   -0.2048 C   0  0  0  0  0  0  0  0  0  0  0  0
    2.0800   -1.8103    0.3339 H   0  0  0  0  0  0  0  0  0  0  0  0
    1.9591   -3.9020   -0.1835 C   0  0  0  0  0  0  0  0  0  0  0  0
    2.8536   -4.1703    0.3608 H   0  0  0  0  0  0  0  0  0  0  0  0
    1.2323   -4.8890   -0.8707 C   0  0  0  0  0  0  0  0  0  0  0  0
    1.5683   -5.9164   -0.8562 H   0  0  0  0  0  0  0  0  0  0  0  0
    0.0708   -4.5396   -1.5832 C   0  0  0  0  0  0  0  0  0  0  0  0
   -0.4849   -5.2973   -2.1159 H   0  0  0  0  0  0  0  0  0  0  0  0
   -0.3624   -3.2020   -1.6070 C   0  0  0  0  0  0  0  0  0  0  0  0
   -1.2544   -2.9339   -2.1583 H   0  0  0  0  0  0  0  0  0  0  0  0
   -1.2168    1.1047    0.4313 C   0  0  0  0  0  0  0  0  0  0  0  0
   -0.2767    1.9007    0.4416 O   0  0  0  0  0  0  0  0  0  0  0  0
   -2.4938    1.5022    0.4962 N   0  0  0  0  0  0  0  0  0  0  0  0
   -3.2049    0.7881    0.5394 H   0  0  0  0  0  0  0  0  0  0  0  0
   -2.9170    2.8974    0.5884 C   0  0  0  0  0  0  0  0  0  0  0  0
   -2.4495    3.4790   -0.2089 H   0  0  0  0  0  0  0  0  0  0  0  0
   -4.0012    2.9693    0.4973 H   0  0  0  0  0  0  0  0  0  0  0  0
   -2.6076    3.3123    1.5496 H   0  0  0  0  0  0  0  0  0  0  0  0
  5  6  2  0  0  0  0
  5  7  1  0  0  0  0
  2  3  1  0  0  0  0
  2  4  1  0  0  0  0
  2  5  1  0  0  0  0
  1  2  1  0  0  0  0
 25 26  2  0  0  0  0
 25 27  1  0  0  0  0
 23 24  1  0  0  0  0
 21 22  1  0  0  0  0
 21 23  2  0  0  0  0
 19 20  1  0  0  0  0
 19 21  1  0  0  0  0
 17 18  1  0  0  0  0
 17 19  2  0  0  0  0
 15 16  1  0  0  0  0
 15 17  1  0  0  0  0
 14 15  2  0  0  0  0
 14 23  1  0  0  0  0
 11 12  1  0  0  0  0
 11 13  1  0  0  0  0
 11 14  1  0  0  0  0
  9 10  1  0  0  0  0
  9 11  1  0  0  0  0
  9 25  1  0  0  0  0
  7  8  1  0  0  0  0
  7  9  1  0  0  0  0
 29 30  1  0  0  0  0
 29 31  1  0  0  0  0
 29 32  1  0  0  0  0
 27 28  1  0  0  0  0
 27 29  1  0  0  0  0
M  END
$$$$
default_name
  -OEChem-01062215323D

 32 32  0     1  0  0  0  0  0999 V2000
   -3.8405   -3.7518    1.6252 H   0  0  0  0  0  0  0  0  0  0  0  0
   -3.7965   -2.8768    0.9782 C   0  0  0  0  0  0  0  0  0  0  0  0
   -4.5465   -2.1527    1.2902 H   0  0  0  0  0  0  0  0  0  0  0  0
   -3.9745   -3.1748   -0.0538 H   0  0  0  0  0  0  0  0  0  0  0  0
   -2.4245   -2.2537    1.0882 C   0  0  0  0  0  0  0  0  0  0  0  0
   -1.5805   -2.7478    1.8242 O   0  0  0  0  0  0  0  0  0  0  0  0
   -2.2045   -1.1637    0.3562 N   0  0  0  0  0  0  0  0  0  0  0  0
   -2.9595   -0.7907   -0.2008 H   0  0  0  0  0  0  0  0  0  0  0  0
   -0.9485   -0.4087    0.3482 C   0  0  1  0  0  0  0  0  0  0  0  0
   -0.3666   -0.6914    1.2269 H   0  0  0  0  0  0  0  0  0  0  0  0
   -0.1405   -0.7797   -0.9072 C   0  0  0  0  0  0  0  0  0  0  0  0
   -0.7673   -0.6357   -1.7884 H   0  0  0  0  0  0  0  0  0  0  0  0
    0.7087   -0.1004   -0.9948 H   0  0  0  0  0  0  0  0  0  0  0  0
    0.3606   -2.2113   -0.9156 C   0  0  0  0  0  0  0  0  0  0  0  0
    1.5235   -2.5642   -0.2048 C   0  0  0  0  0  0  0  0  0  0  0  0
    2.0800   -1.8103    0.3339 H   0  0  0  0  0  0  0  0  0  0  0  0
    1.9591   -3.9020   -0.1835 C   0  0  0  0  0  0  0  0  0  0  0  0
    2.8536   -4.1703    0.3608 H   0  0  0  0  0  0  0  0  0  0  0  0
    1.2323   -4.8890   -0.8707 C   0  0  0  0  0  0  0  0  0  0  0  0
    1.5683   -5.9164   -0.8562 H   0  0  0  0  0  0  0  0  0  0  0  0
    0.0708   -4.5396   -1.5832 C   0  0  0  0  0  0  0  0  0  0  0  0
   -0.4849   -5.2973   -2.1159 H   0  0  0  0  0  0  0  0  0  0  0  0
   -0.3624   -3.2020   -1.6070 C   0  0  0  0  0  0  0  0  0  0  0  0
   -1.2544   -2.9339   -2.1583 H   0  0  0  0  0  0  0  0  0  0  0  0
   -1.2168    1.1047    0.4313 C   0  0  0  0  0  0  0  0  0  0  0  0
   -0.3210    1.9080    0.1673 O   0  0  0  0  0  0  0  0  0  0  0  0
   -2.4430    1.4944    0.8021 N   0  0  0  0  0  0  0  0  0  0  0  0
   -3.1054    0.7773    1.0560 H   0  0  0  0  0  0  0  0  0  0  0  0
   -2.8565    2.8889    0.9386 C   0  0  0  0  0  0  0  0  0  0  0  0
   -2.6186    3.4362    0.0241 H   0  0  0  0  0  0  0  0  0  0  0  0
   -3.9294    2.9476    1.1238 H   0  0  0  0  0  0  0  0  0  0  0  0
   -2.3212    3.3509    1.7704 H   0  0  0  0  0  0  0  0  0  0  0  0
  5  6  2  0  0  0  0
  5  7  1  0  0  0  0
  2  3  1  0  0  0  0
  2  4  1  0  0  0  0
  2  5  1  0  0  0  0
  1  2  1  0  0  0  0
 25 26  2  0  0  0  0
 25 27  1  0  0  0  0
 23 24  1  0  0  0  0
 21 22  1  0  0  0  0
 21 23  2  0  0  0  0
 19 20  1  0  0  0  0
 19 21  1  0  0  0  0
 17 18  1  0  0  0  0
 17 19  2  0  0  0  0
 15 16  1  0  0  0  0
 15 17  1  0  0  0  0
 14 15  2  0  0  0  0
 14 23  1  0  0  0  0
 11 12  1  0  0  0  0
 11 13  1  0  0  0  0
 11 14  1  0  0  0  0
  9 10  1  0  0  0  0
  9 11  1  0  0  0  0
  9 25  1  0  0  0  0
  7  8  1  0  0  0  0
  7  9  1  0  0  0  0
 29 30  1  0  0  0  0
 29 31  1  0  0  0  0
 29 32  1  0  0  0  0
 27 28  1  0  0  0  0
 27 29  1  0  0  0  0
M  END
$$$$
default_name
  -OEChem-01062215323D

 32 32  0     1  0  0  0  0  0999 V2000
   -3.8405   -3.7518    1.6252 H   0  0  0  0  0  0  0  0  0  0  0  0
   -3.7965   -2.8768    0.9782 C   0  0  0  0  0  0  0  0  0  0  0  0
   -4.5465   -2.1527    1.2902 H   0  0  0  0  0  0  0  0  0  0  0  0
   -3.9745   -3.1748   -0.0538 H   0  0  0  0  0  0  0  0  0  0  0  0
   -2.4245   -2.2537    1.0882 C   0  0  0  0  0  0  0  0  0  0  0  0
   -1.5805   -2.7478    1.8242 O   0  0  0  0  0  0  0  0  0  0  0  0
   -2.2045   -1.1637    0.3562 N   0  0  0  0  0  0  0  0  0  0  0  0
   -2.9595   -0.7907   -0.2008 H   0  0  0  0  0  0  0  0  0  0  0  0
   -0.9485   -0.4087    0.3482 C   0  0  1  0  0  0  0  0  0  0  0  0
   -0.3666   -0.6914    1.2269 H   0  0  0  0  0  0  0  0  0  0  0  0
   -0.1405   -0.7797   -0.9072 C   0  0  0  0  0  0  0  0  0  0  0  0
   -0.7673   -0.6357   -1.7884 H   0  0  0  0  0  0  0  0  0  0  0  0
    0.7087   -0.1004   -0.9948 H   0  0  0  0  0  0  0  0  0  0  0  0
    0.3606   -2.2113   -0.9156 C   0  0  0  0  0  0  0  0  0  0  0  0
    1.5235   -2.5642   -0.2048 C   0  0  0  0  0  0  0  0  0  0  0  0
    2.0800   -1.8103    0.3339 H   0  0  0  0  0  0  0  0  0  0  0  0
    1.9591   -3.9020   -0.1835 C   0  0  0  0  0  0  0  0  0  0  0  0
    2.8536   -4.1703    0.3608 H   0  0  0  0  0  0  0  0  0  0  0  0
    1.2323   -4.8890   -0.8707 C   0  0  0  0  0  0  0  0  0  0  0  0
    1.5683   -5.9164   -0.8562 H   0  0  0  0  0  0  0  0  0  0  0  0
    0.0708   -4.5396   -1.5832 C   0  0  0  0  0  0  0  0  0  0  0  0
   -0.4849   -5.2973   -2.1159 H   0  0  0  0  0  0  0  0  0  0  0  0
   -0.3624   -3.2020   -1.6070 C   0  0  0  0  0  0  0  0  0  0  0  0
   -1.2544   -2.9339   -2.1583 H   0  0  0  0  0  0  0  0  0  0  0  0
   -1.2168    1.1047    0.4313 C   0  0  0  0  0  0  0  0  0  0  0  0
   -0.4336    1.9020   -0.0868 O   0  0  0  0  0  0  0  0  0  0  0  0
   -2.3160    1.5013    1.0851 N   0  0  0  0  0  0  0  0  0  0  0  0
   -2.8778    0.7916    1.5301 H   0  0  0  0  0  0  0  0  0  0  0  0
   -2.7088    2.8973    1.2619 C   0  0  0  0  0  0  0  0  0  0  0  0
   -2.7220    3.4031    0.2942 H   0  0  0  0  0  0  0  0  0  0  0  0
   -3.7003    2.9559    1.7117 H   0  0  0  0  0  0  0  0  0  0  0  0
   -1.9889    3.4022    1.9091 H   0  0  0  0  0  0  0  0  0  0  0  0
  5  6  2  0  0  0  0
  5  7  1  0  0  0  0
  2  3  1  0  0  0  0
  2  4  1  0  0  0  0
  2  5  1  0  0  0  0
  1  2  1  0  0  0  0
 25 26  2  0  0  0  0
 25 27  1  0  0  0  0
 23 24  1  0  0  0  0
 21 22  1  0  0  0  0
 21 23  2  0  0  0  0
 19 20  1  0  0  0  0
 19 21  1  0  0  0  0
 17 18  1  0  0  0  0
 17 19  2  0  0  0  0
 15 16  1  0  0  0  0
 15 17  1  0  0  0  0
 14 15  2  0  0  0  0
 14 23  1  0  0  0  0
 11 12  1  0  0  0  0
 11 13  1  0  0  0  0
 11 14  1  0  0  0  0
  9 10  1  0  0  0  0
  9 11  1  0  0  0  0
  9 25  1  0  0  0  0
  7  8  1  0  0  0  0
  7  9  1  0  0  0  0
 29 30  1  0  0  0  0
 29 31  1  0  0  0  0
 29 32  1  0  0  0  0
 27 28  1  0  0  0  0
 27 29  1  0  0  0  0
M  END
$$$$
default_name
  -OEChem-01062215323D

 32 32  0     1  0  0  0  0  0999 V2000
   -3.8405   -3.7518    1.6252 H   0  0  0  0  0  0  0  0  0  0  0  0
   -3.7965   -2.8768    0.9782 C   0  0  0  0  0  0  0  0  0  0  0  0
   -4.5465   -2.1527    1.2902 H   0  0  0  0  0  0  0  0  0  0  0  0
   -3.9745   -3.1748   -0.0538 H   0  0  0  0  0  0  0  0  0  0  0  0
   -2.4245   -2.2537    1.0882 C   0  0  0  0  0  0  0  0  0  0  0  0
   -1.5805   -2.7478    1.8242 O   0  0  0  0  0  0  0  0  0  0  0  0
   -2.2045   -1.1637    0.3562 N   0  0  0  0  0  0  0  0  0  0  0  0
   -2.9595   -0.7907   -0.2008 H   0  0  0  0  0  0  0  0  0  0  0  0
   -0.9485   -0.4087    0.3482 C   0  0  1  0  0  0  0  0  0  0  0  0
   -0.3666   -0.6914    1.2269 H   0  0  0  0  0  0  0  0  0  0  0  0
   -0.1405   -0.7797   -0.9072 C   0  0  0  0  0  0  0  0  0  0  0  0
   -0.7673   -0.6357   -1.7884 H   0  0  0  0  0  0  0  0  0  0  0  0
    0.7087   -0.1004   -0.9948 H   0  0  0  0  0  0  0  0  0  0  0  0
    0.3606   -2.2113   -0.9156 C   0  0  0  0  0  0  0  0  0  0  0  0
    1.5235   -2.5642   -0.2048 C   0  0  0  0  0  0  0  0  0  0  0  0
    2.0800   -1.8103    0.3339 H   0  0  0  0  0  0  0  0  0  0  0  0
    1.9591   -3.9020   -0.1835 C   0  0  0  0  0  0  0  0  0  0  0  0
    2.8536   -4.1703    0.3608 H   0  0  0  0  0  0  0  0  0  0  0  0
    1.2323   -4.8890   -0.8707 C   0  0  0  0  0  0  0  0  0  0  0  0
    1.5683   -5.9164   -0.8562 H   0  0  0  0  0  0  0  0  0  0  0  0
    0.0708   -4.5396   -1.5832 C   0  0  0  0  0  0  0  0  0  0  0  0
   -0.4849   -5.2973   -2.1159 H   0  0  0  0  0  0  0  0  0  0  0  0
   -0.3624   -3.2020   -1.6070 C   0  0  0  0  0  0  0  0  0  0  0  0
   -1.2544   -2.9339   -2.1583 H   0  0  0  0  0  0  0  0  0  0  0  0
   -1.2168    1.1047    0.4313 C   0  0  0  0  0  0  0  0  0  0  0  0
   -0.6070    1.8831   -0.3032 O   0  0  0  0  0  0  0  0  0  0  0  0
   -2.1214    1.5226    1.3258 N   0  0  0  0  0  0  0  0  0  0  0  0
   -2.5375    0.8300    1.9296 H   0  0  0  0  0  0  0  0  0  0  0  0
   -2.4839    2.9221    1.5363 C   0  0  0  0  0  0  0  0  0  0  0  0
   -2.7526    3.3818    0.5828 H   0  0  0  0  0  0  0  0  0  0  0  0
   -3.3296    2.9936    2.2208 H   0  0  0  0  0  0  0  0  0  0  0  0
   -1.6334    3.4626    1.9562 H   0  0  0  0  0  0  0  0  0  0  0  0
  5  6  2  0  0  0  0
  5  7  1  0  0  0  0
  2  3  1  0  0  0  0
  2  4  1  0  0  0  0
  2  5  1  0  0  0  0
  1  2  1  0  0  0  0
 25 26  2  0  0  0  0
 25 27  1  0  0  0  0
 23 24  1  0  0  0  0
 21 22  1  0  0  0  0
 21 23  2  0  0  0  0
 19 20  1  0  0  0  0
 19 21  1  0  0  0  0
 17 18  1  0  0  0  0
 17 19  2  0  0  0  0
 15 16  1  0  0  0  0
 15 17  1  0  0  0  0
 14 15  2  0  0  0  0
 14 23  1  0  0  0  0
 11 12  1  0  0  0  0
 11 13  1  0  0  0  0
 11 14  1  0  0  0  0
  9 10  1  0  0  0  0
  9 11  1  0  0  0  0
  9 25  1  0  0  0  0
  7  8  1  0  0  0  0
  7  9  1  0  0  0  0
 29 30  1  0  0  0  0
 29 31  1  0  0  0  0
 29 32  1  0  0  0  0
 27 28  1  0  0  0  0
 27 29  1  0  0  0  0
M  END
$$$$
default_name
  -OEChem-01062215323D

 32 32  0     1  0  0  0  0  0999 V2000
   -3.8405   -3.7518    1.6252 H   0  0  0  0  0  0  0  0  0  0  0  0
   -3.7965   -2.8768    0.9782 C   0  0  0  0  0  0  0  0  0  0  0  0
   -4.5465   -2.1527    1.2902 H   0  0  0  0  0  0  0  0  0  0  0  0
   -3.9745   -3.1748   -0.0538 H   0  0  0  0  0  0  0  0  0  0  0  0
   -2.4245   -2.2537    1.0882 C   0  0  0  0  0  0  0  0  0  0  0  0
   -1.5805   -2.7478    1.8242 O   0  0  0  0  0  0  0  0  0  0  0  0
   -2.2045   -1.1637    0.3562 N   0  0  0  0  0  0  0  0  0  0  0  0
   -2.9595   -0.7907   -0.2008 H   0  0  0  0  0  0  0  0  0  0  0  0
   -0.9485   -0.4087    0.3482 C   0  0  1  0  0  0  0  0  0  0  0  0
   -0.3666   -0.6914    1.2269 H   0  0  0  0  0  0  0  0  0  0  0  0
   -0.1405   -0.7797   -0.9072 C   0  0  0  0  0  0  0  0  0  0  0  0
   -0.7673   -0.6357   -1.7884 H   0  0  0  0  0  0  0  0  0  0  0  0
    0.7087   -0.1004   -0.9948 H   0  0  0  0  0  0  0  0  0  0  0  0
    0.3606   -2.2113   -0.9156 C   0  0  0  0  0  0  0  0  0  0  0  0
    1.5235   -2.5642   -0.2048 C   0  0  0  0  0  0  0  0  0  0  0  0
    2.0800   -1.8103    0.3339 H   0  0  0  0  0  0  0  0  0  0  0  0
    1.9591   -3.9020   -0.1835 C   0  0  0  0  0  0  0  0  0  0  0  0
    2.8536   -4.1703    0.3608 H   0  0  0  0  0  0  0  0  0  0  0  0
    1.2323   -4.8890   -0.8707 C   0  0  0  0  0  0  0  0  0  0  0  0
    1.5683   -5.9164   -0.8562 H   0  0  0  0  0  0  0  0  0  0  0  0
    0.0708   -4.5396   -1.5832 C   0  0  0  0  0  0  0  0  0  0  0  0
   -0.4849   -5.2973   -2.1159 H   0  0  0  0  0  0  0  0  0  0  0  0
   -0.3624   -3.2020   -1.6070 C   0  0  0  0  0  0  0  0  0  0  0  0
   -1.2544   -2.9339   -2.1583 H   0  0  0  0  0  0  0  0  0  0  0  0
   -1.2168    1.1047    0.4313 C   0  0  0  0  0  0  0  0  0  0  0  0
   -0.8292    1.8527   -0.4674 O   0  0  0  0  0  0  0  0  0  0  0  0
   -1.8725    1.5567    1.5078 N   0  0  0  0  0  0  0  0  0  0  0  0
   -2.1076    0.8899    2.2271 H   0  0  0  0  0  0  0  0  0  0  0  0
   -2.1972    2.9615    1.7429 C   0  0  0  0  0  0  0  0  0  0  0  0
   -2.7085    3.3738    0.8704 H   0  0  0  0  0  0  0  0  0  0  0  0
   -2.8424    3.0582    2.6165 H   0  0  0  0  0  0  0  0  0  0  0  0
   -1.2788    3.5281    1.9084 H   0  0  0  0  0  0  0  0  0  0  0  0
  5  6  2  0  0  0  0
  5  7  1  0  0  0  0
  2  3  1  0  0  0  0
  2  4  1  0  0  0  0
  2  5  1  0  0  0  0
  1  2  1  0  0  0  0
 25 26  2  0  0  0  0
 25 27  1  0  0  0  0
 23 24  1  0  0  0  0
 21 22  1  0  0  0  0
 21 23  2  0  0  0  0
 19 20  1  0  0  0  0
 19 21  1  0  0  0  0
 17 18  1  0  0  0  0
 17 19  2  0  0  0  0
 15 16  1  0  0  0  0
 15 17  1  0  0  0  0
 14 15  2  0  0  0  0
 14 23  1  0  0  0  0
 11 12  1  0  0  0  0
 11 13  1  0  0  0  0
 11 14  1  0  0  0  0
  9 10  1  0  0  0  0
  9 11  1  0  0  0  0
  9 25  1  0  0  0  0
  7  8  1  0  0  0  0
  7  9  1  0  0  0  0
 29 30  1  0  0  0  0
 29 31  1  0  0  0  0
 29 32  1  0  0  0  0
 27 28  1  0  0  0  0
 27 29  1  0  0  0  0
M  END
$$$$
default_name
  -OEChem-01062215323D

 32 32  0     1  0  0  0  0  0999 V2000
   -3.8405   -3.7518    1.6252 H   0  0  0  0  0  0  0  0  0  0  0  0
   -3.7965   -2.8768    0.9782 C   0  0  0  0  0  0  0  0  0  0  0  0
   -4.5465   -2.1527    1.2902 H   0  0  0  0  0  0  0  0  0  0  0  0
   -3.9745   -3.1748   -0.0538 H   0  0  0  0  0  0  0  0  0  0  0  0
   -2.4245   -2.2537    1.0882 C   0  0  0  0  0  0  0  0  0  0  0  0
   -1.5805   -2.7478    1.8242 O   0  0  0  0  0  0  0  0  0  0  0  0
   -2.2045   -1.1637    0.3562 N   0  0  0  0  0  0  0  0  0  0  0  0
   -2.9595   -0.7907   -0.2008 H   0  0  0  0  0  0  0  0  0  0  0  0
   -0.9485   -0.4087    0.3482 C   0  0  1  0  0  0  0  0  0  0  0  0
   -0.3666   -0.6914    1.2269 H   0  0  0  0  0  0  0  0  0  0  0  0
   -0.1405   -0.7797   -0.9072 C   0  0  0  0  0  0  0  0  0  0  0  0
   -0.7673   -0.6357   -1.7884 H   0  0  0  0  0  0  0  0  0  0  0  0
    0.7087   -0.1004   -0.9948 H   0  0  0  0  0  0  0  0  0  0  0  0
    0.3606   -2.2113   -0.9156 C   0  0  0  0  0  0  0  0  0  0  0  0
    1.5235   -2.5642   -0.2048 C   0  0  0  0  0  0  0  0  0  0  0  0
    2.0800   -1.8103    0.3339 H   0  0  0  0  0  0  0  0  0  0  0  0
    1.9591   -3.9020   -0.1835 C   0  0  0  0  0  0  0  0  0  0  0  0
    2.8536   -4.1703    0.3608 H   0  0  0  0  0  0  0  0  0  0  0  0
    1.2323   -4.8890   -0.8707 C   0  0  0  0  0  0  0  0  0  0  0  0
    1.5683   -5.9164   -0.8562 H   0  0  0  0  0  0  0  0  0  0  0  0
    0.0708   -4.5396   -1.5832 C   0  0  0  0  0  0  0  0  0  0  0  0
   -0.4849   -5.2973   -2.1159 H   0  0  0  0  0  0  0  0  0  0  0  0
   -0.3624   -3.2020   -1.6070 C   0  0  0  0  0  0  0  0  0  0  0  0
   -1.2544   -2.9339   -2.1583 H   0  0  0  0  0  0  0  0  0  0  0  0
   -1.2168    1.1047    0.4313 C   0  0  0  0  0  0  0  0  0  0  0  0
   -1.0853    1.8129   -0.5680 O   0  0  0  0  0  0  0  0  0  0  0  0
   -1.5862    1.6014    1.6188 N   0  0  0  0  0  0  0  0  0  0  0  0
   -1.6175    0.9671    2.4024 H   0  0  0  0  0  0  0  0  0  0  0  0
   -1.8683    3.0130    1.8678 C   0  0  0  0  0  0  0  0  0  0  0  0
   -2.5926    3.3796    1.1374 H   0  0  0  0  0  0  0  0  0  0  0  0
   -2.2720    3.1453    2.8719 H   0  0  0  0  0  0  0  0  0  0  0  0
   -0.9494    3.5941    1.7691 H   0  0  0  0  0  0  0  0  0  0  0  0
  5  6  2  0  0  0  0
  5  7  1  0  0  0  0
  2  3  1  0  0  0  0
  2  4  1  0  0  0  0
  2  5  1  0  0  0  0
  1  2  1  0  0  0  0
 25 26  2  0  0  0  0
 25 27  1  0  0  0  0
 23 24  1  0  0  0  0
 21 22  1  0  0  0  0
 21 23  2  0  0  0  0
 19 20  1  0  0  0  0
 19 21  1  0  0  0  0
 17 18  1  0  0  0  0
 17 19  2  0  0  0  0
 15 16  1  0  0  0  0
 15 17  1  0  0  0  0
 14 15  2  0  0  0  0
 14 23  1  0  0  0  0
 11 12  1  0  0  0  0
 11 13  1  0  0  0  0
 11 14  1  0  0  0  0
  9 10  1  0  0  0  0
  9 11  1  0  0  0  0
  9 25  1  0  0  0  0
  7  8  1  0  0  0  0
  7  9  1  0  0  0  0
 29 30  1  0  0  0  0
 29 31  1  0  0  0  0
 29 32  1  0  0  0  0
 27 28  1  0  0  0  0
 27 29  1  0  0  0  0
M  END
$$$$
default_name
  -OEChem-01062215323D

 32 32  0     1  0  0  0  0  0999 V2000
   -3.8405   -3.7518    1.6252 H   0  0  0  0  0  0  0  0  0  0  0  0
   -3.7965   -2.8768    0.9782 C   0  0  0  0  0  0  0  0  0  0  0  0
   -4.5465   -2.1527    1.2902 H   0  0  0  0  0  0  0  0  0  0  0  0
   -3.9745   -3.1748   -0.0538 H   0  0  0  0  0  0  0  0  0  0  0  0
   -2.4245   -2.2537    1.0882 C   0  0  0  0  0  0  0  0  0  0  0  0
   -1.5805   -2.7478    1.8242 O   0  0  0  0  0  0  0  0  0  0  0  0
   -2.2045   -1.1637    0.3562 N   0  0  0  0  0  0  0  0  0  0  0  0
   -2.9595   -0.7907   -0.2008 H   0  0  0  0  0  0  0  0  0  0  0  0
   -0.9485   -0.4087    0.3482 C   0  0  1  0  0  0  0  0  0  0  0  0
   -0.3666   -0.6914    1.2269 H   0  0  0  0  0  0  0  0  0  0  0  0
   -0.1405   -0.7797   -0.9072 C   0  0  0  0  0  0  0  0  0  0  0  0
   -0.7673   -0.6357   -1.7884 H   0  0  0  0  0  0  0  0  0  0  0  0
    0.7087   -0.1004   -0.9948 H   0  0  0  0  0  0  0  0  0  0  0  0
    0.3606   -2.2113   -0.9156 C   0  0  0  0  0  0  0  0  0  0  0  0
    1.5235   -2.5642   -0.2048 C   0  0  0  0  0  0  0  0  0  0  0  0
    2.0800   -1.8103    0.3339 H   0  0  0  0  0  0  0  0  0  0  0  0
    1.9591   -3.9020   -0.1835 C   0  0  0  0  0  0  0  0  0  0  0  0
    2.8536   -4.1703    0.3608 H   0  0  0  0  0  0  0  0  0  0  0  0
    1.2323   -4.8890   -0.8707 C   0  0  0  0  0  0  0  0  0  0  0  0
    1.5683   -5.9164   -0.8562 H   0  0  0  0  0  0  0  0  0  0  0  0
    0.0708   -4.5396   -1.5832 C   0  0  0  0  0  0  0  0  0  0  0  0
   -0.4849   -5.2973   -2.1159 H   0  0  0  0  0  0  0  0  0  0  0  0
   -0.3624   -3.2020   -1.6070 C   0  0  0  0  0  0  0  0  0  0  0  0
   -1.2544   -2.9339   -2.1583 H   0  0  0  0  0  0  0  0  0  0  0  0
   -1.2168    1.1047    0.4313 C   0  0  0  0  0  0  0  0  0  0  0  0
   -1.3576    1.7663   -0.5982 O   0  0  0  0  0  0  0  0  0  0  0  0
   -1.2820    1.6535    1.6510 N   0  0  0  0  0  0  0  0  0  0  0  0
   -1.1006    1.0565    2.4435 H   0  0  0  0  0  0  0  0  0  0  0  0
   -1.5195    3.0729    1.9024 C   0  0  0  0  0  0  0  0  0  0  0  0
   -2.4128    3.3990    1.3655 H   0  0  0  0  0  0  0  0  0  0  0  0
   -1.6573    3.2489    2.9695 H   0  0  0  0  0  0  0  0  0  0  0  0
   -0.6676    3.6563    1.5478 H   0  0  0  0  0  0  0  0  0  0  0  0
  5  6  2  0  0  0  0
  5  7  1  0  0  0  0
  2  3  1  0  0  0  0
  2  4  1  0  0  0  0
  2  5  1  0  0  0  0
  1  2  1  0  0  0  0
 25 26  2  0  0  0  0
 25 27  1  0  0  0  0
 23 24  1  0  0  0  0
 21 22  1  0  0  0  0
 21 23  2  0  0  0  0
 19 20  1  0  0  0  0
 19 21  1  0  0  0  0
 17 18  1  0  0  0  0
 17 19  2  0  0  0  0
 15 16  1  0  0  0  0
 15 17  1  0  0  0  0
 14 15  2  0  0  0  0
 14 23  1  0  0  0  0
 11 12  1  0  0  0  0
 11 13  1  0  0  0  0
 11 14  1  0  0  0  0
  9 10  1  0  0  0  0
  9 11  1  0  0  0  0
  9 25  1  0  0  0  0
  7  8  1  0  0  0  0
  7  9  1  0  0  0  0
 29 30  1  0  0  0  0
 29 31  1  0  0  0  0
 29 32  1  0  0  0  0
 27 28  1  0  0  0  0
 27 29  1  0  0  0  0
M  END
$$$$
default_name
  -OEChem-01062215323D

 32 32  0     1  0  0  0  0  0999 V2000
   -3.8405   -3.7518    1.6252 H   0  0  0  0  0  0  0  0  0  0  0  0
   -3.7965   -2.8768    0.9782 C   0  0  0  0  0  0  0  0  0  0  0  0
   -4.5465   -2.1527    1.2902 H   0  0  0  0  0  0  0  0  0  0  0  0
   -3.9745   -3.1748   -0.0538 H   0  0  0  0  0  0  0  0  0  0  0  0
   -2.4245   -2.2537    1.0882 C   0  0  0  0  0  0  0  0  0  0  0  0
   -1.5805   -2.7478    1.8242 O   0  0  0  0  0  0  0  0  0  0  0  0
   -2.2045   -1.1637    0.3562 N   0  0  0  0  0  0  0  0  0  0  0  0
   -2.9595   -0.7907   -0.2008 H   0  0  0  0  0  0  0  0  0  0  0  0
   -0.9485   -0.4087    0.3482 C   0  0  1  0  0  0  0  0  0  0  0  0
   -0.3666   -0.6914    1.2269 H   0  0  0  0  0  0  0  0  0  0  0  0
   -0.1405   -0.7797   -0.9072 C   0  0  0  0  0  0  0  0  0  0  0  0
   -0.7673   -0.6357   -1.7884 H   0  0  0  0  0  0  0  0  0  0  0  0
    0.7087   -0.1004   -0.9948 H   0  0  0  0  0  0  0  0  0  0  0  0
    0.3606   -2.2113   -0.9156 C   0  0  0  0  0  0  0  0  0  0  0  0
    1.5235   -2.5642   -0.2048 C   0  0  0  0  0  0  0  0  0  0  0  0
    2.0800   -1.8103    0.3339 H   0  0  0  0  0  0  0  0  0  0  0  0
    1.9591   -3.9020   -0.1835 C   0  0  0  0  0  0  0  0  0  0  0  0
    2.8536   -4.1703    0.3608 H   0  0  0  0  0  0  0  0  0  0  0  0
    1.2323   -4.8890   -0.8707 C   0  0  0  0  0  0  0  0  0  0  0  0
    1.5683   -5.9164   -0.8562 H   0  0  0  0  0  0  0  0  0  0  0  0
    0.0708   -4.5396   -1.5832 C   0  0  0  0  0  0  0  0  0  0  0  0
   -0.4849   -5.2973   -2.1159 H   0  0  0  0  0  0  0  0  0  0  0  0
   -0.3624   -3.2020   -1.6070 C   0  0  0  0  0  0  0  0  0  0  0  0
   -1.2544   -2.9339   -2.1583 H   0  0  0  0  0  0  0  0  0  0  0  0
   -1.2168    1.1047    0.4313 C   0  0  0  0  0  0  0  0  0  0  0  0
   -1.6278    1.7161   -0.5559 O   0  0  0  0  0  0  0  0  0  0  0  0
   -0.9808    1.7096    1.6025 N   0  0  0  0  0  0  0  0  0  0  0  0
   -0.5921    1.1519    2.3476 H   0  0  0  0  0  0  0  0  0  0  0  0
   -1.1747    3.1372    1.8443 C   0  0  0  0  0  0  0  0  0  0  0  0
   -2.1814    3.4305    1.5391 H   0  0  0  0  0  0  0  0  0  0  0  0
   -1.0402    3.3619    2.9027 H   0  0  0  0  0  0  0  0  0  0  0  0
   -0.4525    3.7102    1.2594 H   0  0  0  0  0  0  0  0  0  0  0  0
  5  6  2  0  0  0  0
  5  7  1  0  0  0  0
  2  3  1  0  0  0  0
  2  4  1  0  0  0  0
  2  5  1  0  0  0  0
  1  2  1  0  0  0  0
 25 26  2  0  0  0  0
 25 27  1  0  0  0  0
 23 24  1  0  0  0  0
 21 22  1  0  0  0  0
 21 23  2  0  0  0  0
 19 20  1  0  0  0  0
 19 21  1  0  0  0  0
 17 18  1  0  0  0  0
 17 19  2  0  0  0  0
 15 16  1  0  0  0  0
 15 17  1  0  0  0  0
 14 15  2  0  0  0  0
 14 23  1  0  0  0  0
 11 12  1  0  0  0  0
 11 13  1  0  0  0  0
 11 14  1  0  0  0  0
  9 10  1  0  0  0  0
  9 11  1  0  0  0  0
  9 25  1  0  0  0  0
  7  8  1  0  0  0  0
  7  9  1  0  0  0  0
 29 30  1  0  0  0  0
 29 31  1  0  0  0  0
 29 32  1  0  0  0  0
 27 28  1  0  0  0  0
 27 29  1  0  0  0  0
M  END
$$$$
default_name
  -OEChem-01062215323D

 32 32  0     1  0  0  0  0  0999 V2000
   -3.8405   -3.7518    1.6252 H   0  0  0  0  0  0  0  0  0  0  0  0
   -3.7965   -2.8768    0.9782 C   0  0  0  0  0  0  0  0  0  0  0  0
   -4.5465   -2.1527    1.2902 H   0  0  0  0  0  0  0  0  0  0  0  0
   -3.9745   -3.1748   -0.0538 H   0  0  0  0  0  0  0  0  0  0  0  0
   -2.4245   -2.2537    1.0882 C   0  0  0  0  0  0  0  0  0  0  0  0
   -1.5805   -2.7478    1.8242 O   0  0  0  0  0  0  0  0  0  0  0  0
   -2.2045   -1.1637    0.3562 N   0  0  0  0  0  0  0  0  0  0  0  0
   -2.9595   -0.7907   -0.2008 H   0  0  0  0  0  0  0  0  0  0  0  0
   -0.9485   -0.4087    0.3482 C   0  0  1  0  0  0  0  0  0  0  0  0
   -0.3666   -0.6914    1.2269 H   0  0  0  0  0  0  0  0  0  0  0  0
   -0.1405   -0.7797   -0.9072 C   0  0  0  0  0  0  0  0  0  0  0  0
   -0.7673   -0.6357   -1.7884 H   0  0  0  0  0  0  0  0  0  0  0  0
    0.7087   -0.1004   -0.9948 H   0  0  0  0  0  0  0  0  0  0  0  0
    0.3606   -2.2113   -0.9156 C   0  0  0  0  0  0  0  0  0  0  0  0
    1.5235   -2.5642   -0.2048 C   0  0  0  0  0  0  0  0  0  0  0  0
    2.0800   -1.8103    0.3339 H   0  0  0  0  0  0  0  0  0  0  0  0
    1.9591   -3.9020   -0.1835 C   0  0  0  0  0  0  0  0  0  0  0  0
    2.8536   -4.1703    0.3608 H   0  0  0  0  0  0  0  0  0  0  0  0
    1.2323   -4.8890   -0.8707 C   0  0  0  0  0  0  0  0  0  0  0  0
    1.5683   -5.9164   -0.8562 H   0  0  0  0  0  0  0  0  0  0  0  0
    0.0708   -4.5396   -1.5832 C   0  0  0  0  0  0  0  0  0  0  0  0
   -0.4849   -5.2973   -2.1159 H   0  0  0  0  0  0  0  0  0  0  0  0
   -0.3624   -3.2020   -1.6070 C   0  0  0  0  0  0  0  0  0  0  0  0
   -1.2544   -2.9339   -2.1583 H   0  0  0  0  0  0  0  0  0  0  0  0
   -1.2168    1.1047    0.4313 C   0  0  0  0  0  0  0  0  0  0  0  0
   -1.8772    1.6657   -0.4442 O   0  0  0  0  0  0  0  0  0  0  0  0
   -0.7029    1.7658    1.4764 N   0  0  0  0  0  0  0  0  0  0  0  0
   -0.1267    1.2468    2.1213 H   0  0  0  0  0  0  0  0  0  0  0  0
   -0.8573    3.2015    1.6976 C   0  0  0  0  0  0  0  0  0  0  0  0
   -1.9141    3.4719    1.6466 H   0  0  0  0  0  0  0  0  0  0  0  0
   -0.4627    3.4768    2.6760 H   0  0  0  0  0  0  0  0  0  0  0  0
   -0.3190    3.7523    0.9238 H   0  0  0  0  0  0  0  0  0  0  0  0
  5  6  2  0  0  0  0
  5  7  1  0  0  0  0
  2  3  1  0  0  0  0
  2  4  1  0  0  0  0
  2  5  1  0  0  0  0
  1  2  1  0  0  0  0
 25 26  2  0  0  0  0
 25 27  1  0  0  0  0
 23 24  1  0  0  0  0
 21 22  1  0  0  0  0
 21 23  2  0  0  0  0
 19 20  1  0  0  0  0
 19 21  1  0  0  0  0
 17 18  1  0  0  0  0
 17 19  2  0  0  0  0
 15 16  1  0  0  0  0
 15 17  1  0  0  0  0
 14 15  2  0  0  0  0
 14 23  1  0  0  0  0
 11 12  1  0  0  0  0
 11 13  1  0  0  0  0
 11 14  1  0  0  0  0
  9 10  1  0  0  0  0
  9 11  1  0  0  0  0
  9 25  1  0  0  0  0
  7  8  1  0  0  0  0
  7  9  1  0  0  0  0
 29 30  1  0  0  0  0
 29 31  1  0  0  0  0
 29 32  1  0  0  0  0
 27 28  1  0  0  0  0
 27 29  1  0  0  0  0
M  END
$$$$
default_name
  -OEChem-01062215323D

 32 32  0     1  0  0  0  0  0999 V2000
   -3.8405   -3.7518    1.6252 H   0  0  0  0  0  0  0  0  0  0  0  0
   -3.7965   -2.8768    0.9782 C   0  0  0  0  0  0  0  0  0  0  0  0
   -4.5465   -2.1527    1.2902 H   0  0  0  0  0  0  0  0  0  0  0  0
   -3.9745   -3.1748   -0.0538 H   0  0  0  0  0  0  0  0  0  0  0  0
   -2.4245   -2.2537    1.0882 C   0  0  0  0  0  0  0  0  0  0  0  0
   -1.5805   -2.7478    1.8242 O   0  0  0  0  0  0  0  0  0  0  0  0
   -2.2045   -1.1637    0.3562 N   0  0  0  0  0  0  0  0  0  0  0  0
   -2.9595   -0.7907   -0.2008 H   0  0  0  0  0  0  0  0  0  0  0  0
   -0.9485   -0.4087    0.3482 C   0  0  1  0  0  0  0  0  0  0  0  0
   -0.3666   -0.6914    1.2269 H   0  0  0  0  0  0  0  0  0  0  0  0
   -0.1405   -0.7797   -0.9072 C   0  0  0  0  0  0  0  0  0  0  0  0
   -0.7673   -0.6357   -1.7884 H   0  0  0  0  0  0  0  0  0  0  0  0
    0.7087   -0.1004   -0.9948 H   0  0  0  0  0  0  0  0  0  0  0  0
    0.3606   -2.2113   -0.9156 C   0  0  0  0  0  0  0  0  0  0  0  0
    1.5235   -2.5642   -0.2048 C   0  0  0  0  0  0  0  0  0  0  0  0
    2.0800   -1.8103    0.3339 H   0  0  0  0  0  0  0  0  0  0  0  0
    1.9591   -3.9020   -0.1835 C   0  0  0  0  0  0  0  0  0  0  0  0
    2.8536   -4.1703    0.3608 H   0  0  0  0  0  0  0  0  0  0  0  0
    1.2323   -4.8890   -0.8707 C   0  0  0  0  0  0  0  0  0  0  0  0
    1.5683   -5.9164   -0.8562 H   0  0  0  0  0  0  0  0  0  0  0  0
    0.0708   -4.5396   -1.5832 C   0  0  0  0  0  0  0  0  0  0  0  0
   -0.4849   -5.2973   -2.1159 H   0  0  0  0  0  0  0  0  0  0  0  0
   -0.3624   -3.2020   -1.6070 C   0  0  0  0  0  0  0  0  0  0  0  0
   -1.2544   -2.9339   -2.1583 H   0  0  0  0  0  0  0  0  0  0  0  0
   -1.2168    1.1047    0.4313 C   0  0  0  0  0  0  0  0  0  0  0  0
   -2.0890    1.6186   -0.2704 O   0  0  0  0  0  0  0  0  0  0  0  0
   -0.4674    1.8182    1.2813 N   0  0  0  0  0  0  0  0  0  0  0  0
    0.2640    1.3348    1.7800 H   0  0  0  0  0  0  0  0  0  0  0  0
   -0.5889    3.2615    1.4722 C   0  0  0  0  0  0  0  0  0  0  0  0
   -1.6291    3.5206    1.6805 H   0  0  0  0  0  0  0  0  0  0  0  0
    0.0359    3.5855    2.3049 H   0  0  0  0  0  0  0  0  0  0  0  0
   -0.2760    3.7797    0.5637 H   0  0  0  0  0  0  0  0  0  0  0  0
  5  6  2  0  0  0  0
  5  7  1  0  0  0  0
  2  3  1  0  0  0  0
  2  4  1  0  0  0  0
  2  5  1  0  0  0  0
  1  2  1  0  0  0  0
 25 26  2  0  0  0  0
 25 27  1  0  0  0  0
 23 24  1  0  0  0  0
 21 22  1  0  0  0  0
 21 23  2  0  0  0  0
 19 20  1  0  0  0  0
 19 21  1  0  0  0  0
 17 18  1  0  0  0  0
 17 19  2  0  0  0  0
 15 16  1  0  0  0  0
 15 17  1  0  0  0  0
 14 15  2  0  0  0  0
 14 23  1  0  0  0  0
 11 12  1  0  0  0  0
 11 13  1  0  0  0  0
 11 14  1  0  0  0  0
  9 10  1  0  0  0  0
  9 11  1  0  0  0  0
  9 25  1  0  0  0  0
  7  8  1  0  0  0  0
  7  9  1  0  0  0  0
 29 30  1  0  0  0  0
 29 31  1  0  0  0  0
 29 32  1  0  0  0  0
 27 28  1  0  0  0  0
 27 29  1  0  0  0  0
M  END
$$$$
default_name
  -OEChem-01062215323D

 32 32  0     1  0  0  0  0  0999 V2000
   -3.8405   -3.7518    1.6252 H   0  0  0  0  0  0  0  0  0  0  0  0
   -3.7965   -2.8768    0.9782 C   0  0  0  0  0  0  0  0  0  0  0  0
   -4.5465   -2.1527    1.2902 H   0  0  0  0  0  0  0  0  0  0  0  0
   -3.9745   -3.1748   -0.0538 H   0  0  0  0  0  0  0  0  0  0  0  0
   -2.4245   -2.2537    1.0882 C   0  0  0  0  0  0  0  0  0  0  0  0
   -1.5805   -2.7478    1.8242 O   0  0  0  0  0  0  0  0  0  0  0  0
   -2.2045   -1.1637    0.3562 N   0  0  0  0  0  0  0  0  0  0  0  0
   -2.9595   -0.7907   -0.2008 H   0  0  0  0  0  0  0  0  0  0  0  0
   -0.9485   -0.4087    0.3482 C   0  0  1  0  0  0  0  0  0  0  0  0
   -0.3666   -0.6914    1.2269 H   0  0  0  0  0  0  0  0  0  0  0  0
   -0.1405   -0.7797   -0.9072 C   0  0  0  0  0  0  0  0  0  0  0  0
   -0.7673   -0.6357   -1.7884 H   0  0  0  0  0  0  0  0  0  0  0  0
    0.7087   -0.1004   -0.9948 H   0  0  0  0  0  0  0  0  0  0  0  0
    0.3606   -2.2113   -0.9156 C   0  0  0  0  0  0  0  0  0  0  0  0
    1.5235   -2.5642   -0.2048 C   0  0  0  0  0  0  0  0  0  0  0  0
    2.0800   -1.8103    0.3339 H   0  0  0  0  0  0  0  0  0  0  0  0
    1.9591   -3.9020   -0.1835 C   0  0  0  0  0  0  0  0  0  0  0  0
    2.8536   -4.1703    0.3608 H   0  0  0  0  0  0  0  0  0  0  0  0
    1.2323   -4.8890   -0.8707 C   0  0  0  0  0  0  0  0  0  0  0  0
    1.5683   -5.9164   -0.8562 H   0  0  0  0  0  0  0  0  0  0  0  0
    0.0708   -4.5396   -1.5832 C   0  0  0  0  0  0  0  0  0  0  0  0
   -0.4849   -5.2973   -2.1159 H   0  0  0  0  0  0  0  0  0  0  0  0
   -0.3624   -3.2020   -1.6070 C   0  0  0  0  0  0  0  0  0  0  0  0
   -1.2544   -2.9339   -2.1583 H   0  0  0  0  0  0  0  0  0  0  0  0
   -1.2168    1.1047    0.4313 C   0  0  0  0  0  0  0  0  0  0  0  0
   -2.2488    1.5780   -0.0466 O   0  0  0  0  0  0  0  0  0  0  0  0
   -0.2903    1.8634    1.0306 N   0  0  0  0  0  0  0  0  0  0  0  0
    0.5533    1.4099    1.3469 H   0  0  0  0  0  0  0  0  0  0  0  0
   -0.3878    3.3130    1.1834 C   0  0  0  0  0  0  0  0  0  0  0  0
   -1.3459    3.5731    1.6385 H   0  0  0  0  0  0  0  0  0  0  0  0
    0.4215    3.6808    1.8147 H   0  0  0  0  0  0  0  0  0  0  0  0
   -0.3264    3.7906    0.2036 H   0  0  0  0  0  0  0  0  0  0  0  0
  5  6  2  0  0  0  0
  5  7  1  0  0  0  0
  2  3  1  0  0  0  0
  2  4  1  0  0  0  0
  2  5  1  0  0  0  0
  1  2  1  0  0  0  0
 25 26  2  0  0  0  0
 25 27  1  0  0  0  0
 23 24  1  0  0  0  0
 21 22  1  0  0  0  0
 21 23  2  0  0  0  0
 19 20  1  0  0  0  0
 19 21  1  0  0  0  0
 17 18  1  0  0  0  0
 17 19  2  0  0  0  0
 15 16  1  0  0  0  0
 15 17  1  0  0  0  0
 14 15  2  0  0  0  0
 14 23  1  0  0  0  0
 11 12  1  0  0  0  0
 11 13  1  0  0  0  0
 11 14  1  0  0  0  0
  9 10  1  0  0  0  0
  9 11  1  0  0  0  0
  9 25  1  0  0  0  0
  7  8  1  0  0  0  0
  7  9  1  0  0  0  0
 29 30  1  0  0  0  0
 29 31  1  0  0  0  0
 29 32  1  0  0  0  0
 27 28  1  0  0  0  0
 27 29  1  0  0  0  0
M  END
$$$$
default_name
  -OEChem-01062215323D

 32 32  0     1  0  0  0  0  0999 V2000
   -3.8405   -3.7518    1.6252 H   0  0  0  0  0  0  0  0  0  0  0  0
   -3.7965   -2.8768    0.9782 C   0  0  0  0  0  0  0  0  0  0  0  0
   -4.5465   -2.1527    1.2902 H   0  0  0  0  0  0  0  0  0  0  0  0
   -3.9745   -3.1748   -0.0538 H   0  0  0  0  0  0  0  0  0  0  0  0
   -2.4245   -2.2537    1.0882 C   0  0  0  0  0  0  0  0  0  0  0  0
   -1.5805   -2.7478    1.8242 O   0  0  0  0  0  0  0  0  0  0  0  0
   -2.2045   -1.1637    0.3562 N   0  0  0  0  0  0  0  0  0  0  0  0
   -2.9595   -0.7907   -0.2008 H   0  0  0  0  0  0  0  0  0  0  0  0
   -0.9485   -0.4087    0.3482 C   0  0  1  0  0  0  0  0  0  0  0  0
   -0.3666   -0.6914    1.2269 H   0  0  0  0  0  0  0  0  0  0  0  0
   -0.1405   -0.7797   -0.9072 C   0  0  0  0  0  0  0  0  0  0  0  0
   -0.7673   -0.6357   -1.7884 H   0  0  0  0  0  0  0  0  0  0  0  0
    0.7087   -0.1004   -0.9948 H   0  0  0  0  0  0  0  0  0  0  0  0
    0.3606   -2.2113   -0.9156 C   0  0  0  0  0  0  0  0  0  0  0  0
    1.5235   -2.5642   -0.2048 C   0  0  0  0  0  0  0  0  0  0  0  0
    2.0800   -1.8103    0.3339 H   0  0  0  0  0  0  0  0  0  0  0  0
    1.9591   -3.9020   -0.1835 C   0  0  0  0  0  0  0  0  0  0  0  0
    2.8536   -4.1703    0.3608 H   0  0  0  0  0  0  0  0  0  0  0  0
    1.2323   -4.8890   -0.8707 C   0  0  0  0  0  0  0  0  0  0  0  0
    1.5683   -5.9164   -0.8562 H   0  0  0  0  0  0  0  0  0  0  0  0
    0.0708   -4.5396   -1.5832 C   0  0  0  0  0  0  0  0  0  0  0  0
   -0.4849   -5.2973   -2.1159 H   0  0  0  0  0  0  0  0  0  0  0  0
   -0.3624   -3.2020   -1.6070 C   0  0  0  0  0  0  0  0  0  0  0  0
   -1.2544   -2.9339   -2.1583 H   0  0  0  0  0  0  0  0  0  0  0  0
   -1.2168    1.1047    0.4313 C   0  0  0  0  0  0  0  0  0  0  0  0
   -2.3455    1.5466    0.2121 O   0  0  0  0  0  0  0  0  0  0  0  0
   -0.1836    1.8982    0.7413 N   0  0  0  0  0  0  0  0  0  0  0  0
    0.7214    1.4669    0.8516 H   0  0  0  0  0  0  0  0  0  0  0  0
   -0.2679    3.3525    0.8511 C   0  0  0  0  0  0  0  0  0  0  0  0
   -1.0837    3.6259    1.5235 H   0  0  0  0  0  0  0  0  0  0  0  0
    0.6679    3.7561    1.2387 H   0  0  0  0  0  0  0  0  0  0  0  0
   -0.4670    3.7841   -0.1318 H   0  0  0  0  0  0  0  0  0  0  0  0
  5  6  2  0  0  0  0
  5  7  1  0  0  0  0
  2  3  1  0  0  0  0
  2  4  1  0  0  0  0
  2  5  1  0  0  0  0
  1  2  1  0  0  0  0
 25 26  2  0  0  0  0
 25 27  1  0  0  0  0
 23 24  1  0  0  0  0
 21 22  1  0  0  0  0
 21 23  2  0  0  0  0
 19 20  1  0  0  0  0
 19 21  1  0  0  0  0
 17 18  1  0  0  0  0
 17 19  2  0  0  0  0
 15 16  1  0  0  0  0
 15 17  1  0  0  0  0
 14 15  2  0  0  0  0
 14 23  1  0  0  0  0
 11 12  1  0  0  0  0
 11 13  1  0  0  0  0
 11 14  1  0  0  0  0
  9 10  1  0  0  0  0
  9 11  1  0  0  0  0
  9 25  1  0  0  0  0
  7  8  1  0  0  0  0
  7  9  1  0  0  0  0
 29 30  1  0  0  0  0
 29 31  1  0  0  0  0
 29 32  1  0  0  0  0
 27 28  1  0  0  0  0
 27 29  1  0  0  0  0
M  END
$$$$
default_name
  -OEChem-01062215323D

 32 32  0     1  0  0  0  0  0999 V2000
   -3.8405   -3.7518    1.6252 H   0  0  0  0  0  0  0  0  0  0  0  0
   -3.7965   -2.8768    0.9782 C   0  0  0  0  0  0  0  0  0  0  0  0
   -4.5465   -2.1527    1.2902 H   0  0  0  0  0  0  0  0  0  0  0  0
   -3.9745   -3.1748   -0.0538 H   0  0  0  0  0  0  0  0  0  0  0  0
   -2.4245   -2.2537    1.0882 C   0  0  0  0  0  0  0  0  0  0  0  0
   -1.5805   -2.7478    1.8242 O   0  0  0  0  0  0  0  0  0  0  0  0
   -2.2045   -1.1637    0.3562 N   0  0  0  0  0  0  0  0  0  0  0  0
   -2.9595   -0.7907   -0.2008 H   0  0  0  0  0  0  0  0  0  0  0  0
   -0.9485   -0.4087    0.3482 C   0  0  1  0  0  0  0  0  0  0  0  0
   -0.2595   -0.8714    1.0566 H   0  0  0  0  0  0  0  0  0  0  0  0
   -0.3211   -0.4808   -1.0545 C   0  0  0  0  0  0  0  0  0  0  0  0
   -1.0572   -0.1534   -1.7901 H   0  0  0  0  0  0  0  0  0  0  0  0
    0.5200    0.2125   -1.1019 H   0  0  0  0  0  0  0  0  0  0  0  0
    0.1508   -1.8679   -1.4470 C   0  0  0  0  0  0  0  0  0  0  0  0
    1.3920   -2.3538   -0.9939 C   0  0  0  0  0  0  0  0  0  0  0  0
    2.0277   -1.7307   -0.3807 H   0  0  0  0  0  0  0  0  0  0  0  0
    1.8045   -3.6569   -1.3281 C   0  0  0  0  0  0  0  0  0  0  0  0
    2.7590   -4.0271   -0.9812 H   0  0  0  0  0  0  0  0  0  0  0  0
    0.9766   -4.4767   -2.1137 C   0  0  0  0  0  0  0  0  0  0  0  0
    1.2945   -5.4770   -2.3724 H   0  0  0  0  0  0  0  0  0  0  0  0
   -0.2636   -3.9937   -2.5693 C   0  0  0  0  0  0  0  0  0  0  0  0
   -0.8977   -4.6218   -3.1778 H   0  0  0  0  0  0  0  0  0  0  0  0
   -0.6741   -2.6902   -2.2380 C   0  0  0  0  0  0  0  0  0  0  0  0
   -1.6270   -2.3187   -2.5919 H   0  0  0  0  0  0  0  0  0  0  0  0
   -1.1784    1.0447    0.7999 C   0  0  0  0  0  0  0  0  0  0  0  0
   -2.3093    1.4278    1.1025 O   0  0  0  0  0  0  0  0  0  0  0  0
   -0.1122    1.8539    0.8407 N   0  0  0  0  0  0  0  0  0  0  0  0
    0.7703    1.4819    0.5244 H   0  0  0  0  0  0  0  0  0  0  0  0
   -0.1613    3.2592    1.2371 C   0  0  0  0  0  0  0  0  0  0  0  0
   -0.6616    3.3535    2.2032 H   0  0  0  0  0  0  0  0  0  0  0  0
    0.8479    3.6646    1.3139 H   0  0  0  0  0  0  0  0  0  0  0  0
   -0.7240    3.8303    0.4962 H   0  0  0  0  0  0  0  0  0  0  0  0
  5  6  2  0  0  0  0
  5  7  1  0  0  0  0
  2  3  1  0  0  0  0
  2  4  1  0  0  0  0
  2  5  1  0  0  0  0
  1  2  1  0  0  0  0
 25 26  2  0  0  0  0
 25 27  1  0  0  0  0
 23 24  1  0  0  0  0
 21 22  1  0  0  0  0
 21 23  2  0  0  0  0
 19 20  1  0  0  0  0
 19 21  1  0  0  0  0
 17 18  1  0  0  0  0
 17 19  2  0  0  0  0
 15 16  1  0  0  0  0
 15 17  1  0  0  0  0
 14 15  2  0  0  0  0
 14 23  1  0  0  0  0
 11 12  1  0  0  0  0
 11 13  1  0  0  0  0
 11 14  1  0  0  0  0
  9 10  1  0  0  0  0
  9 11  1  0  0  0  0
  9 25  1  0  0  0  0
  7  8  1  0  0  0  0
  7  9  1  0  0  0  0
 29 30  1  0  0  0  0
 29 31  1  0  0  0  0
 29 32  1  0  0  0  0
 27 28  1  0  0  0  0
 27 29  1  0  0  0  0
M  END
$$$$
default_name
  -OEChem-01062215323D

 32 32  0     1  0  0  0  0  0999 V2000
   -3.8405   -3.7518    1.6252 H   0  0  0  0  0  0  0  0  0  0  0  0
   -3.7965   -2.8768    0.9782 C   0  0  0  0  0  0  0  0  0  0  0  0
   -4.5465   -2.1527    1.2902 H   0  0  0  0  0  0  0  0  0  0  0  0
   -3.9745   -3.1748   -0.0538 H   0  0  0  0  0  0  0  0  0  0  0  0
   -2.4245   -2.2537    1.0882 C   0  0  0  0  0  0  0  0  0  0  0  0
   -1.5805   -2.7478    1.8242 O   0  0  0  0  0  0  0  0  0  0  0  0
   -2.2045   -1.1637    0.3562 N   0  0  0  0  0  0  0  0  0  0  0  0
   -2.9595   -0.7907   -0.2008 H   0  0  0  0  0  0  0  0  0  0  0  0
   -0.9485   -0.4087    0.3482 C   0  0  1  0  0  0  0  0  0  0  0  0
   -0.2595   -0.8714    1.0566 H   0  0  0  0  0  0  0  0  0  0  0  0
   -0.3211   -0.4808   -1.0545 C   0  0  0  0  0  0  0  0  0  0  0  0
   -1.0572   -0.1534   -1.7901 H   0  0  0  0  0  0  0  0  0  0  0  0
    0.5200    0.2125   -1.1019 H   0  0  0  0  0  0  0  0  0  0  0  0
    0.1508   -1.8679   -1.4470 C   0  0  0  0  0  0  0  0  0  0  0  0
    1.3920   -2.3538   -0.9939 C   0  0  0  0  0  0  0  0  0  0  0  0
    2.0277   -1.7307   -0.3807 H   0  0  0  0  0  0  0  0  0  0  0  0
    1.8045   -3.6569   -1.3281 C   0  0  0  0  0  0  0  0  0  0  0  0
    2.7590   -4.0271   -0.9812 H   0  0  0  0  0  0  0  0  0  0  0  0
    0.9766   -4.4767   -2.1137 C   0  0  0  0  0  0  0  0  0  0  0  0
    1.2945   -5.4770   -2.3724 H   0  0  0  0  0  0  0  0  0  0  0  0
   -0.2636   -3.9937   -2.5693 C   0  0  0  0  0  0  0  0  0  0  0  0
   -0.8977   -4.6218   -3.1778 H   0  0  0  0  0  0  0  0  0  0  0  0
   -0.6741   -2.6902   -2.2380 C   0  0  0  0  0  0  0  0  0  0  0  0
   -1.6270   -2.3187   -2.5919 H   0  0  0  0  0  0  0  0  0  0  0  0
   -1.1784    1.0447    0.7999 C   0  0  0  0  0  0  0  0  0  0  0  0
   -2.2291    1.3604    1.3600 O   0  0  0  0  0  0  0  0  0  0  0  0
   -0.2032    1.9287    0.5537 N   0  0  0  0  0  0  0  0  0  0  0  0
    0.6032    1.6057    0.0411 H   0  0  0  0  0  0  0  0  0  0  0  0
   -0.2678    3.3444    0.9088 C   0  0  0  0  0  0  0  0  0  0  0  0
   -0.5244    3.4492    1.9650 H   0  0  0  0  0  0  0  0  0  0  0  0
    0.6937    3.8238    0.7232 H   0  0  0  0  0  0  0  0  0  0  0  0
   -1.0378    3.8378    0.3126 H   0  0  0  0  0  0  0  0  0  0  0  0
  5  6  2  0  0  0  0
  5  7  1  0  0  0  0
  2  3  1  0  0  0  0
  2  4  1  0  0  0  0
  2  5  1  0  0  0  0
  1  2  1  0  0  0  0
 25 26  2  0  0  0  0
 25 27  1  0  0  0  0
 23 24  1  0  0  0  0
 21 22  1  0  0  0  0
 21 23  2  0  0  0  0
 19 20  1  0  0  0  0
 19 21  1  0  0  0  0
 17 18  1  0  0  0  0
 17 19  2  0  0  0  0
 15 16  1  0  0  0  0
 15 17  1  0  0  0  0
 14 15  2  0  0  0  0
 14 23  1  0  0  0  0
 11 12  1  0  0  0  0
 11 13  1  0  0  0  0
 11 14  1  0  0  0  0
  9 10  1  0  0  0  0
  9 11  1  0  0  0  0
  9 25  1  0  0  0  0
  7  8  1  0  0  0  0
  7  9  1  0  0  0  0
 29 30  1  0  0  0  0
 29 31  1  0  0  0  0
 29 32  1  0  0  0  0
 27 28  1  0  0  0  0
 27 29  1  0  0  0  0
M  END
$$$$
default_name
  -OEChem-01062215323D

 32 32  0     1  0  0  0  0  0999 V2000
   -3.8405   -3.7518    1.6252 H   0  0  0  0  0  0  0  0  0  0  0  0
   -3.7965   -2.8768    0.9782 C   0  0  0  0  0  0  0  0  0  0  0  0
   -4.5465   -2.1527    1.2902 H   0  0  0  0  0  0  0  0  0  0  0  0
   -3.9745   -3.1748   -0.0538 H   0  0  0  0  0  0  0  0  0  0  0  0
   -2.4245   -2.2537    1.0882 C   0  0  0  0  0  0  0  0  0  0  0  0
   -1.5805   -2.7478    1.8242 O   0  0  0  0  0  0  0  0  0  0  0  0
   -2.2045   -1.1637    0.3562 N   0  0  0  0  0  0  0  0  0  0  0  0
   -2.9595   -0.7907   -0.2008 H   0  0  0  0  0  0  0  0  0  0  0  0
   -0.9485   -0.4087    0.3482 C   0  0  1  0  0  0  0  0  0  0  0  0
   -0.2595   -0.8714    1.0566 H   0  0  0  0  0  0  0  0  0  0  0  0
   -0.3211   -0.4808   -1.0545 C   0  0  0  0  0  0  0  0  0  0  0  0
   -1.0572   -0.1534   -1.7901 H   0  0  0  0  0  0  0  0  0  0  0  0
    0.5200    0.2125   -1.1019 H   0  0  0  0  0  0  0  0  0  0  0  0
    0.1508   -1.8679   -1.4470 C   0  0  0  0  0  0  0  0  0  0  0  0
    1.3920   -2.3538   -0.9939 C   0  0  0  0  0  0  0  0  0  0  0  0
    2.0277   -1.7307   -0.3807 H   0  0  0  0  0  0  0  0  0  0  0  0
    1.8045   -3.6569   -1.3281 C   0  0  0  0  0  0  0  0  0  0  0  0
    2.7590   -4.0271   -0.9812 H   0  0  0  0  0  0  0  0  0  0  0  0
    0.9766   -4.4767   -2.1137 C   0  0  0  0  0  0  0  0  0  0  0  0
    1.2945   -5.4770   -2.3724 H   0  0  0  0  0  0  0  0  0  0  0  0
   -0.2636   -3.9937   -2.5693 C   0  0  0  0  0  0  0  0  0  0  0  0
   -0.8977   -4.6218   -3.1778 H   0  0  0  0  0  0  0  0  0  0  0  0
   -0.6741   -2.6902   -2.2380 C   0  0  0  0  0  0  0  0  0  0  0  0
   -1.6270   -2.3187   -2.5919 H   0  0  0  0  0  0  0  0  0  0  0  0
   -1.1784    1.0447    0.7999 C   0  0  0  0  0  0  0  0  0  0  0  0
   -2.0835    1.3115    1.5917 O   0  0  0  0  0  0  0  0  0  0  0  0
   -0.3669    1.9830    0.2958 N   0  0  0  0  0  0  0  0  0  0  0  0
    0.3142    1.6939   -0.3897 H   0  0  0  0  0  0  0  0  0  0  0  0
   -0.4574    3.4059    0.6143 C   0  0  0  0  0  0  0  0  0  0  0  0
   -0.4573    3.5429    1.6977 H   0  0  0  0  0  0  0  0  0  0  0  0
    0.3883    3.9431    0.1841 H   0  0  0  0  0  0  0  0  0  0  0  0
   -1.3864    3.8140    0.2116 H   0  0  0  0  0  0  0  0  0  0  0  0
  5  6  2  0  0  0  0
  5  7  1  0  0  0  0
  2  3  1  0  0  0  0
  2  4  1  0  0  0  0
  2  5  1  0  0  0  0
  1  2  1  0  0  0  0
 25 26  2  0  0  0  0
 25 27  1  0  0  0  0
 23 24  1  0  0  0  0
 21 22  1  0  0  0  0
 21 23  2  0  0  0  0
 19 20  1  0  0  0  0
 19 21  1  0  0  0  0
 17 18  1  0  0  0  0
 17 19  2  0  0  0  0
 15 16  1  0  0  0  0
 15 17  1  0  0  0  0
 14 15  2  0  0  0  0
 14 23  1  0  0  0  0
 11 12  1  0  0  0  0
 11 13  1  0  0  0  0
 11 14  1  0  0  0  0
  9 10  1  0  0  0  0
  9 11  1  0  0  0  0
  9 25  1  0  0  0  0
  7  8  1  0  0  0  0
  7  9  1  0  0  0  0
 29 30  1  0  0  0  0
 29 31  1  0  0  0  0
 29 32  1  0  0  0  0
 27 28  1  0  0  0  0
 27 29  1  0  0  0  0
M  END
$$$$
default_name
  -OEChem-01062215323D

 32 32  0     1  0  0  0  0  0999 V2000
   -3.8405   -3.7518    1.6252 H   0  0  0  0  0  0  0  0  0  0  0  0
   -3.7965   -2.8768    0.9782 C   0  0  0  0  0  0  0  0  0  0  0  0
   -4.5465   -2.1527    1.2902 H   0  0  0  0  0  0  0  0  0  0  0  0
   -3.9745   -3.1748   -0.0538 H   0  0  0  0  0  0  0  0  0  0  0  0
   -2.4245   -2.2537    1.0882 C   0  0  0  0  0  0  0  0  0  0  0  0
   -1.5805   -2.7478    1.8242 O   0  0  0  0  0  0  0  0  0  0  0  0
   -2.2045   -1.1637    0.3562 N   0  0  0  0  0  0  0  0  0  0  0  0
   -2.9595   -0.7907   -0.2008 H   0  0  0  0  0  0  0  0  0  0  0  0
   -0.9485   -0.4087    0.3482 C   0  0  1  0  0  0  0  0  0  0  0  0
   -0.2595   -0.8714    1.0566 H   0  0  0  0  0  0  0  0  0  0  0  0
   -0.3211   -0.4808   -1.0545 C   0  0  0  0  0  0  0  0  0  0  0  0
   -1.0572   -0.1534   -1.7901 H   0  0  0  0  0  0  0  0  0  0  0  0
    0.5200    0.2125   -1.1019 H   0  0  0  0  0  0  0  0  0  0  0  0
    0.1508   -1.8679   -1.4470 C   0  0  0  0  0  0  0  0  0  0  0  0
    1.3920   -2.3538   -0.9939 C   0  0  0  0  0  0  0  0  0  0  0  0
    2.0277   -1.7307   -0.3807 H   0  0  0  0  0  0  0  0  0  0  0  0
    1.8045   -3.6569   -1.3281 C   0  0  0  0  0  0  0  0  0  0  0  0
    2.7590   -4.0271   -0.9812 H   0  0  0  0  0  0  0  0  0  0  0  0
    0.9766   -4.4767   -2.1137 C   0  0  0  0  0  0  0  0  0  0  0  0
    1.2945   -5.4770   -2.3724 H   0  0  0  0  0  0  0  0  0  0  0  0
   -0.2636   -3.9937   -2.5693 C   0  0  0  0  0  0  0  0  0  0  0  0
   -0.8977   -4.6218   -3.1778 H   0  0  0  0  0  0  0  0  0  0  0  0
   -0.6741   -2.6902   -2.2380 C   0  0  0  0  0  0  0  0  0  0  0  0
   -1.6270   -2.3187   -2.5919 H   0  0  0  0  0  0  0  0  0  0  0  0
   -1.1784    1.0447    0.7999 C   0  0  0  0  0  0  0  0  0  0  0  0
   -1.8826    1.2841    1.7818 O   0  0  0  0  0  0  0  0  0  0  0  0
   -0.5921    2.0130    0.0845 N   0  0  0  0  0  0  0  0  0  0  0  0
   -0.0769    1.7405   -0.7386 H   0  0  0  0  0  0  0  0  0  0  0  0
   -0.7172    3.4395    0.3739 C   0  0  0  0  0  0  0  0  0  0  0  0
   -0.4650    3.6281    1.4195 H   0  0  0  0  0  0  0  0  0  0  0  0
   -0.0476    4.0142   -0.2666 H   0  0  0  0  0  0  0  0  0  0  0  0
   -1.7460    3.7607    0.2002 H   0  0  0  0  0  0  0  0  0  0  0  0
  5  6  2  0  0  0  0
  5  7  1  0  0  0  0
  2  3  1  0  0  0  0
  2  4  1  0  0  0  0
  2  5  1  0  0  0  0
  1  2  1  0  0  0  0
 25 26  2  0  0  0  0
 25 27  1  0  0  0  0
 23 24  1  0  0  0  0
 21 22  1  0  0  0  0
 21 23  2  0  0  0  0
 19 20  1  0  0  0  0
 19 21  1  0  0  0  0
 17 18  1  0  0  0  0
 17 19  2  0  0  0  0
 15 16  1  0  0  0  0
 15 17  1  0  0  0  0
 14 15  2  0  0  0  0
 14 23  1  0  0  0  0
 11 12  1  0  0  0  0
 11 13  1  0  0  0  0
 11 14  1  0  0  0  0
  9 10  1  0  0  0  0
  9 11  1  0  0  0  0
  9 25  1  0  0  0  0
  7  8  1  0  0  0  0
  7  9  1  0  0  0  0
 29 30  1  0  0  0  0
 29 31  1  0  0  0  0
 29 32  1  0  0  0  0
 27 28  1  0  0  0  0
 27 29  1  0  0  0  0
M  END
$$$$
default_name
  -OEChem-01062215323D

 32 32  0     1  0  0  0  0  0999 V2000
   -3.8405   -3.7518    1.6252 H   0  0  0  0  0  0  0  0  0  0  0  0
   -3.7965   -2.8768    0.9782 C   0  0  0  0  0  0  0  0  0  0  0  0
   -4.5465   -2.1527    1.2902 H   0  0  0  0  0  0  0  0  0  0  0  0
   -3.9745   -3.1748   -0.0538 H   0  0  0  0  0  0  0  0  0  0  0  0
   -2.4245   -2.2537    1.0882 C   0  0  0  0  0  0  0  0  0  0  0  0
   -1.5805   -2.7478    1.8242 O   0  0  0  0  0  0  0  0  0  0  0  0
   -2.2045   -1.1637    0.3562 N   0  0  0  0  0  0  0  0  0  0  0  0
   -2.9595   -0.7907   -0.2008 H   0  0  0  0  0  0  0  0  0  0  0  0
   -0.9485   -0.4087    0.3482 C   0  0  1  0  0  0  0  0  0  0  0  0
   -0.2595   -0.8714    1.0566 H   0  0  0  0  0  0  0  0  0  0  0  0
   -0.3211   -0.4808   -1.0545 C   0  0  0  0  0  0  0  0  0  0  0  0
   -1.0572   -0.1534   -1.7901 H   0  0  0  0  0  0  0  0  0  0  0  0
    0.5200    0.2125   -1.1019 H   0  0  0  0  0  0  0  0  0  0  0  0
    0.1508   -1.8679   -1.4470 C   0  0  0  0  0  0  0  0  0  0  0  0
    1.3920   -2.3538   -0.9939 C   0  0  0  0  0  0  0  0  0  0  0  0
    2.0277   -1.7307   -0.3807 H   0  0  0  0  0  0  0  0  0  0  0  0
    1.8045   -3.6569   -1.3281 C   0  0  0  0  0  0  0  0  0  0  0  0
    2.7590   -4.0271   -0.9812 H   0  0  0  0  0  0  0  0  0  0  0  0
    0.9766   -4.4767   -2.1137 C   0  0  0  0  0  0  0  0  0  0  0  0
    1.2945   -5.4770   -2.3724 H   0  0  0  0  0  0  0  0  0  0  0  0
   -0.2636   -3.9937   -2.5693 C   0  0  0  0  0  0  0  0  0  0  0  0
   -0.8977   -4.6218   -3.1778 H   0  0  0  0  0  0  0  0  0  0  0  0
   -0.6741   -2.6902   -2.2380 C   0  0  0  0  0  0  0  0  0  0  0  0
   -1.6270   -2.3187   -2.5919 H   0  0  0  0  0  0  0  0  0  0  0  0
   -1.1784    1.0447    0.7999 C   0  0  0  0  0  0  0  0  0  0  0  0
   -1.6400    1.2804    1.9174 O   0  0  0  0  0  0  0  0  0  0  0  0
   -0.8636    2.0168   -0.0656 N   0  0  0  0  0  0  0  0  0  0  0  0
   -0.5435    1.7423   -0.9819 H   0  0  0  0  0  0  0  0  0  0  0  0
   -1.0294    3.4430    0.2038 C   0  0  0  0  0  0  0  0  0  0  0  0
   -0.5469    3.6991    1.1494 H   0  0  0  0  0  0  0  0  0  0  0  0
   -0.5841    4.0324   -0.5981 H   0  0  0  0  0  0  0  0  0  0  0  0
   -2.0921    3.6814    0.2792 H   0  0  0  0  0  0  0  0  0  0  0  0
  5  6  2  0  0  0  0
  5  7  1  0  0  0  0
  2  3  1  0  0  0  0
  2  4  1  0  0  0  0
  2  5  1  0  0  0  0
  1  2  1  0  0  0  0
 25 26  2  0  0  0  0
 25 27  1  0  0  0  0
 23 24  1  0  0  0  0
 21 22  1  0  0  0  0
 21 23  2  0  0  0  0
 19 20  1  0  0  0  0
 19 21  1  0  0  0  0
 17 18  1  0  0  0  0
 17 19  2  0  0  0  0
 15 16  1  0  0  0  0
 15 17  1  0  0  0  0
 14 15  2  0  0  0  0
 14 23  1  0  0  0  0
 11 12  1  0  0  0  0
 11 13  1  0  0  0  0
 11 14  1  0  0  0  0
  9 10  1  0  0  0  0
  9 11  1  0  0  0  0
  9 25  1  0  0  0  0
  7  8  1  0  0  0  0
  7  9  1  0  0  0  0
 29 30  1  0  0  0  0
 29 31  1  0  0  0  0
 29 32  1  0  0  0  0
 27 28  1  0  0  0  0
 27 29  1  0  0  0  0
M  END
$$$$
default_name
  -OEChem-01062215323D

 32 32  0     1  0  0  0  0  0999 V2000
   -3.8405   -3.7518    1.6252 H   0  0  0  0  0  0  0  0  0  0  0  0
   -3.7965   -2.8768    0.9782 C   0  0  0  0  0  0  0  0  0  0  0  0
   -4.5465   -2.1527    1.2902 H   0  0  0  0  0  0  0  0  0  0  0  0
   -3.9745   -3.1748   -0.0538 H   0  0  0  0  0  0  0  0  0  0  0  0
   -2.4245   -2.2537    1.0882 C   0  0  0  0  0  0  0  0  0  0  0  0
   -1.5805   -2.7478    1.8242 O   0  0  0  0  0  0  0  0  0  0  0  0
   -2.2045   -1.1637    0.3562 N   0  0  0  0  0  0  0  0  0  0  0  0
   -2.9595   -0.7907   -0.2008 H   0  0  0  0  0  0  0  0  0  0  0  0
   -0.9485   -0.4087    0.3482 C   0  0  1  0  0  0  0  0  0  0  0  0
   -0.2595   -0.8714    1.0566 H   0  0  0  0  0  0  0  0  0  0  0  0
   -0.3211   -0.4808   -1.0545 C   0  0  0  0  0  0  0  0  0  0  0  0
   -1.0572   -0.1534   -1.7901 H   0  0  0  0  0  0  0  0  0  0  0  0
    0.5200    0.2125   -1.1019 H   0  0  0  0  0  0  0  0  0  0  0  0
    0.1508   -1.8679   -1.4470 C   0  0  0  0  0  0  0  0  0  0  0  0
    1.3920   -2.3538   -0.9939 C   0  0  0  0  0  0  0  0  0  0  0  0
    2.0277   -1.7307   -0.3807 H   0  0  0  0  0  0  0  0  0  0  0  0
    1.8045   -3.6569   -1.3281 C   0  0  0  0  0  0  0  0  0  0  0  0
    2.7590   -4.0271   -0.9812 H   0  0  0  0  0  0  0  0  0  0  0  0
    0.9766   -4.4767   -2.1137 C   0  0  0  0  0  0  0  0  0  0  0  0
    1.2945   -5.4770   -2.3724 H   0  0  0  0  0  0  0  0  0  0  0  0
   -0.2636   -3.9937   -2.5693 C   0  0  0  0  0  0  0  0  0  0  0  0
   -0.8977   -4.6218   -3.1778 H   0  0  0  0  0  0  0  0  0  0  0  0
   -0.6741   -2.6902   -2.2380 C   0  0  0  0  0  0  0  0  0  0  0  0
   -1.6270   -2.3187   -2.5919 H   0  0  0  0  0  0  0  0  0  0  0  0
   -1.1784    1.0447    0.7999 C   0  0  0  0  0  0  0  0  0  0  0  0
   -1.3722    1.3004    1.9892 O   0  0  0  0  0  0  0  0  0  0  0  0
   -1.1628    1.9939   -0.1444 N   0  0  0  0  0  0  0  0  0  0  0  0
   -1.0537    1.6992   -1.1029 H   0  0  0  0  0  0  0  0  0  0  0  0
   -1.3728    3.4161    0.1157 C   0  0  0  0  0  0  0  0  0  0  0  0
   -0.6974    3.7511    0.9057 H   0  0  0  0  0  0  0  0  0  0  0  0
   -1.1847    3.9964   -0.7880 H   0  0  0  0  0  0  0  0  0  0  0  0
   -2.4011    3.5816    0.4430 H   0  0  0  0  0  0  0  0  0  0  0  0
  5  6  2  0  0  0  0
  5  7  1  0  0  0  0
  2  3  1  0  0  0  0
  2  4  1  0  0  0  0
  2  5  1  0  0  0  0
  1  2  1  0  0  0  0
 25 26  2  0  0  0  0
 25 27  1  0  0  0  0
 23 24  1  0  0  0  0
 21 22  1  0  0  0  0
 21 23  2  0  0  0  0
 19 20  1  0  0  0  0
 19 21  1  0  0  0  0
 17 18  1  0  0  0  0
 17 19  2  0  0  0  0
 15 16  1  0  0  0  0
 15 17  1  0  0  0  0
 14 15  2  0  0  0  0
 14 23  1  0  0  0  0
 11 12  1  0  0  0  0
 11 13  1  0  0  0  0
 11 14  1  0  0  0  0
  9 10  1  0  0  0  0
  9 11  1  0  0  0  0
  9 25  1  0  0  0  0
  7  8  1  0  0  0  0
  7  9  1  0  0  0  0
 29 30  1  0  0  0  0
 29 31  1  0  0  0  0
 29 32  1  0  0  0  0
 27 28  1  0  0  0  0
 27 29  1  0  0  0  0
M  END
$$$$
default_name
  -OEChem-01062215323D

 32 32  0     1  0  0  0  0  0999 V2000
   -3.8405   -3.7518    1.6252 H   0  0  0  0  0  0  0  0  0  0  0  0
   -3.7965   -2.8768    0.9782 C   0  0  0  0  0  0  0  0  0  0  0  0
   -4.5465   -2.1527    1.2902 H   0  0  0  0  0  0  0  0  0  0  0  0
   -3.9745   -3.1748   -0.0538 H   0  0  0  0  0  0  0  0  0  0  0  0
   -2.4245   -2.2537    1.0882 C   0  0  0  0  0  0  0  0  0  0  0  0
   -1.5805   -2.7478    1.8242 O   0  0  0  0  0  0  0  0  0  0  0  0
   -2.2045   -1.1637    0.3562 N   0  0  0  0  0  0  0  0  0  0  0  0
   -2.9595   -0.7907   -0.2008 H   0  0  0  0  0  0  0  0  0  0  0  0
   -0.9485   -0.4087    0.3482 C   0  0  1  0  0  0  0  0  0  0  0  0
   -0.2595   -0.8714    1.0566 H   0  0  0  0  0  0  0  0  0  0  0  0
   -0.3211   -0.4808   -1.0545 C   0  0  0  0  0  0  0  0  0  0  0  0
   -1.0572   -0.1534   -1.7901 H   0  0  0  0  0  0  0  0  0  0  0  0
    0.5200    0.2125   -1.1019 H   0  0  0  0  0  0  0  0  0  0  0  0
    0.1508   -1.8679   -1.4470 C   0  0  0  0  0  0  0  0  0  0  0  0
    1.3920   -2.3538   -0.9939 C   0  0  0  0  0  0  0  0  0  0  0  0
    2.0277   -1.7307   -0.3807 H   0  0  0  0  0  0  0  0  0  0  0  0
    1.8045   -3.6569   -1.3281 C   0  0  0  0  0  0  0  0  0  0  0  0
    2.7590   -4.0271   -0.9812 H   0  0  0  0  0  0  0  0  0  0  0  0
    0.9766   -4.4767   -2.1137 C   0  0  0  0  0  0  0  0  0  0  0  0
    1.2945   -5.4770   -2.3724 H   0  0  0  0  0  0  0  0  0  0  0  0
   -0.2636   -3.9937   -2.5693 C   0  0  0  0  0  0  0  0  0  0  0  0
   -0.8977   -4.6218   -3.1778 H   0  0  0  0  0  0  0  0  0  0  0  0
   -0.6741   -2.6902   -2.2380 C   0  0  0  0  0  0  0  0  0  0  0  0
   -1.6270   -2.3187   -2.5919 H   0  0  0  0  0  0  0  0  0  0  0  0
   -1.1784    1.0447    0.7999 C   0  0  0  0  0  0  0  0  0  0  0  0
   -1.0975    1.3429    1.9924 O   0  0  0  0  0  0  0  0  0  0  0  0
   -1.4694    1.9461   -0.1466 N   0  0  0  0  0  0  0  0  0  0  0  0
   -1.5729    1.6142   -1.0934 H   0  0  0  0  0  0  0  0  0  0  0  0
   -1.7240    3.3606    0.1156 C   0  0  0  0  0  0  0  0  0  0  0  0
   -0.9063    3.7804    0.7051 H   0  0  0  0  0  0  0  0  0  0  0  0
   -1.8086    3.9087   -0.8232 H   0  0  0  0  0  0  0  0  0  0  0  0
   -2.6519    3.4681    0.6807 H   0  0  0  0  0  0  0  0  0  0  0  0
  5  6  2  0  0  0  0
  5  7  1  0  0  0  0
  2  3  1  0  0  0  0
  2  4  1  0  0  0  0
  2  5  1  0  0  0  0
  1  2  1  0  0  0  0
 25 26  2  0  0  0  0
 25 27  1  0  0  0  0
 23 24  1  0  0  0  0
 21 22  1  0  0  0  0
 21 23  2  0  0  0  0
 19 20  1  0  0  0  0
 19 21  1  0  0  0  0
 17 18  1  0  0  0  0
 17 19  2  0  0  0  0
 15 16  1  0  0  0  0
 15 17  1  0  0  0  0
 14 15  2  0  0  0  0
 14 23  1  0  0  0  0
 11 12  1  0  0  0  0
 11 13  1  0  0  0  0
 11 14  1  0  0  0  0
  9 10  1  0  0  0  0
  9 11  1  0  0  0  0
  9 25  1  0  0  0  0
  7  8  1  0  0  0  0
  7  9  1  0  0  0  0
 29 30  1  0  0  0  0
 29 31  1  0  0  0  0
 29 32  1  0  0  0  0
 27 28  1  0  0  0  0
 27 29  1  0  0  0  0
M  END
$$$$
default_name
  -OEChem-01062215323D

 32 32  0     1  0  0  0  0  0999 V2000
   -3.8405   -3.7518    1.6252 H   0  0  0  0  0  0  0  0  0  0  0  0
   -3.7965   -2.8768    0.9782 C   0  0  0  0  0  0  0  0  0  0  0  0
   -4.5465   -2.1527    1.2902 H   0  0  0  0  0  0  0  0  0  0  0  0
   -3.9745   -3.1748   -0.0538 H   0  0  0  0  0  0  0  0  0  0  0  0
   -2.4245   -2.2537    1.0882 C   0  0  0  0  0  0  0  0  0  0  0  0
   -1.5805   -2.7478    1.8242 O   0  0  0  0  0  0  0  0  0  0  0  0
   -2.2045   -1.1637    0.3562 N   0  0  0  0  0  0  0  0  0  0  0  0
   -2.9595   -0.7907   -0.2008 H   0  0  0  0  0  0  0  0  0  0  0  0
   -0.9485   -0.4087    0.3482 C   0  0  1  0  0  0  0  0  0  0  0  0
   -0.2595   -0.8714    1.0566 H   0  0  0  0  0  0  0  0  0  0  0  0
   -0.3211   -0.4808   -1.0545 C   0  0  0  0  0  0  0  0  0  0  0  0
   -1.0572   -0.1534   -1.7901 H   0  0  0  0  0  0  0  0  0  0  0  0
    0.5200    0.2125   -1.1019 H   0  0  0  0  0  0  0  0  0  0  0  0
    0.1508   -1.8679   -1.4470 C   0  0  0  0  0  0  0  0  0  0  0  0
    1.3920   -2.3538   -0.9939 C   0  0  0  0  0  0  0  0  0  0  0  0
    2.0277   -1.7307   -0.3807 H   0  0  0  0  0  0  0  0  0  0  0  0
    1.8045   -3.6569   -1.3281 C   0  0  0  0  0  0  0  0  0  0  0  0
    2.7590   -4.0271   -0.9812 H   0  0  0  0  0  0  0  0  0  0  0  0
    0.9766   -4.4767   -2.1137 C   0  0  0  0  0  0  0  0  0  0  0  0
    1.2945   -5.4770   -2.3724 H   0  0  0  0  0  0  0  0  0  0  0  0
   -0.2636   -3.9937   -2.5693 C   0  0  0  0  0  0  0  0  0  0  0  0
   -0.8977   -4.6218   -3.1778 H   0  0  0  0  0  0  0  0  0  0  0  0
   -0.6741   -2.6902   -2.2380 C   0  0  0  0  0  0  0  0  0  0  0  0
   -1.6270   -2.3187   -2.5919 H   0  0  0  0  0  0  0  0  0  0  0  0
   -1.1784    1.0447    0.7999 C   0  0  0  0  0  0  0  0  0  0  0  0
   -0.8346    1.4049    1.9267 O   0  0  0  0  0  0  0  0  0  0  0  0
   -1.7624    1.8766   -0.0719 N   0  0  0  0  0  0  0  0  0  0  0  0
   -2.0656    1.4930   -0.9540 H   0  0  0  0  0  0  0  0  0  0  0  0
   -2.0591    3.2803    0.2034 C   0  0  0  0  0  0  0  0  0  0  0  0
   -1.1593    3.7851    0.5613 H   0  0  0  0  0  0  0  0  0  0  0  0
   -2.4131    3.7752   -0.7013 H   0  0  0  0  0  0  0  0  0  0  0  0
   -2.8275    3.3486    0.9760 H   0  0  0  0  0  0  0  0  0  0  0  0
  5  6  2  0  0  0  0
  5  7  1  0  0  0  0
  2  3  1  0  0  0  0
  2  4  1  0  0  0  0
  2  5  1  0  0  0  0
  1  2  1  0  0  0  0
 25 26  2  0  0  0  0
 25 27  1  0  0  0  0
 23 24  1  0  0  0  0
 21 22  1  0  0  0  0
 21 23  2  0  0  0  0
 19 20  1  0  0  0  0
 19 21  1  0  0  0  0
 17 18  1  0  0  0  0
 17 19  2  0  0  0  0
 15 16  1  0  0  0  0
 15 17  1  0  0  0  0
 14 15  2  0  0  0  0
 14 23  1  0  0  0  0
 11 12  1  0  0  0  0
 11 13  1  0  0  0  0
 11 14  1  0  0  0  0
  9 10  1  0  0  0  0
  9 11  1  0  0  0  0
  9 25  1  0  0  0  0
  7  8  1  0  0  0  0
  7  9  1  0  0  0  0
 29 30  1  0  0  0  0
 29 31  1  0  0  0  0
 29 32  1  0  0  0  0
 27 28  1  0  0  0  0
 27 29  1  0  0  0  0
M  END
$$$$
default_name
  -OEChem-01062215323D

 32 32  0     1  0  0  0  0  0999 V2000
   -3.8405   -3.7518    1.6252 H   0  0  0  0  0  0  0  0  0  0  0  0
   -3.7965   -2.8768    0.9782 C   0  0  0  0  0  0  0  0  0  0  0  0
   -4.5465   -2.1527    1.2902 H   0  0  0  0  0  0  0  0  0  0  0  0
   -3.9745   -3.1748   -0.0538 H   0  0  0  0  0  0  0  0  0  0  0  0
   -2.4245   -2.2537    1.0882 C   0  0  0  0  0  0  0  0  0  0  0  0
   -1.5805   -2.7478    1.8242 O   0  0  0  0  0  0  0  0  0  0  0  0
   -2.2045   -1.1637    0.3562 N   0  0  0  0  0  0  0  0  0  0  0  0
   -2.9595   -0.7907   -0.2008 H   0  0  0  0  0  0  0  0  0  0  0  0
   -0.9485   -0.4087    0.3482 C   0  0  1  0  0  0  0  0  0  0  0  0
   -0.2595   -0.8714    1.0566 H   0  0  0  0  0  0  0  0  0  0  0  0
   -0.3211   -0.4808   -1.0545 C   0  0  0  0  0  0  0  0  0  0  0  0
   -1.0572   -0.1534   -1.7901 H   0  0  0  0  0  0  0  0  0  0  0  0
    0.5200    0.2125   -1.1019 H   0  0  0  0  0  0  0  0  0  0  0  0
    0.1508   -1.8679   -1.4470 C   0  0  0  0  0  0  0  0  0  0  0  0
    1.3920   -2.3538   -0.9939 C   0  0  0  0  0  0  0  0  0  0  0  0
    2.0277   -1.7307   -0.3807 H   0  0  0  0  0  0  0  0  0  0  0  0
    1.8045   -3.6569   -1.3281 C   0  0  0  0  0  0  0  0  0  0  0  0
    2.7590   -4.0271   -0.9812 H   0  0  0  0  0  0  0  0  0  0  0  0
    0.9766   -4.4767   -2.1137 C   0  0  0  0  0  0  0  0  0  0  0  0
    1.2945   -5.4770   -2.3724 H   0  0  0  0  0  0  0  0  0  0  0  0
   -0.2636   -3.9937   -2.5693 C   0  0  0  0  0  0  0  0  0  0  0  0
   -0.8977   -4.6218   -3.1778 H   0  0  0  0  0  0  0  0  0  0  0  0
   -0.6741   -2.6902   -2.2380 C   0  0  0  0  0  0  0  0  0  0  0  0
   -1.6270   -2.3187   -2.5919 H   0  0  0  0  0  0  0  0  0  0  0  0
   -1.1784    1.0447    0.7999 C   0  0  0  0  0  0  0  0  0  0  0  0
   -0.6015    1.4822    1.7965 O   0  0  0  0  0  0  0  0  0  0  0  0
   -2.0218    1.7900    0.0746 N   0  0  0  0  0  0  0  0  0  0  0  0
   -2.4983    1.3438   -0.6944 H   0  0  0  0  0  0  0  0  0  0  0  0
   -2.3552    3.1807    0.3733 C   0  0  0  0  0  0  0  0  0  0  0  0
   -1.4392    3.7648    0.4840 H   0  0  0  0  0  0  0  0  0  0  0  0
   -2.9571    3.6051   -0.4307 H   0  0  0  0  0  0  0  0  0  0  0  0
   -2.9158    3.2312    1.3087 H   0  0  0  0  0  0  0  0  0  0  0  0
  5  6  2  0  0  0  0
  5  7  1  0  0  0  0
  2  3  1  0  0  0  0
  2  4  1  0  0  0  0
  2  5  1  0  0  0  0
  1  2  1  0  0  0  0
 25 26  2  0  0  0  0
 25 27  1  0  0  0  0
 23 24  1  0  0  0  0
 21 22  1  0  0  0  0
 21 23  2  0  0  0  0
 19 20  1  0  0  0  0
 19 21  1  0  0  0  0
 17 18  1  0  0  0  0
 17 19  2  0  0  0  0
 15 16  1  0  0  0  0
 15 17  1  0  0  0  0
 14 15  2  0  0  0  0
 14 23  1  0  0  0  0
 11 12  1  0  0  0  0
 11 13  1  0  0  0  0
 11 14  1  0  0  0  0
  9 10  1  0  0  0  0
  9 11  1  0  0  0  0
  9 25  1  0  0  0  0
  7  8  1  0  0  0  0
  7  9  1  0  0  0  0
 29 30  1  0  0  0  0
 29 31  1  0  0  0  0
 29 32  1  0  0  0  0
 27 28  1  0  0  0  0
 27 29  1  0  0  0  0
M  END
$$$$
default_name
  -OEChem-01062215323D

 32 32  0     1  0  0  0  0  0999 V2000
   -3.8405   -3.7518    1.6252 H   0  0  0  0  0  0  0  0  0  0  0  0
   -3.7965   -2.8768    0.9782 C   0  0  0  0  0  0  0  0  0  0  0  0
   -4.5465   -2.1527    1.2902 H   0  0  0  0  0  0  0  0  0  0  0  0
   -3.9745   -3.1748   -0.0538 H   0  0  0  0  0  0  0  0  0  0  0  0
   -2.4245   -2.2537    1.0882 C   0  0  0  0  0  0  0  0  0  0  0  0
   -1.5805   -2.7478    1.8242 O   0  0  0  0  0  0  0  0  0  0  0  0
   -2.2045   -1.1637    0.3562 N   0  0  0  0  0  0  0  0  0  0  0  0
   -2.9595   -0.7907   -0.2008 H   0  0  0  0  0  0  0  0  0  0  0  0
   -0.9485   -0.4087    0.3482 C   0  0  1  0  0  0  0  0  0  0  0  0
   -0.2595   -0.8714    1.0566 H   0  0  0  0  0  0  0  0  0  0  0  0
   -0.3211   -0.4808   -1.0545 C   0  0  0  0  0  0  0  0  0  0  0  0
   -1.0572   -0.1534   -1.7901 H   0  0  0  0  0  0  0  0  0  0  0  0
    0.5200    0.2125   -1.1019 H   0  0  0  0  0  0  0  0  0  0  0  0
    0.1508   -1.8679   -1.4470 C   0  0  0  0  0  0  0  0  0  0  0  0
    1.3920   -2.3538   -0.9939 C   0  0  0  0  0  0  0  0  0  0  0  0
    2.0277   -1.7307   -0.3807 H   0  0  0  0  0  0  0  0  0  0  0  0
    1.8045   -3.6569   -1.3281 C   0  0  0  0  0  0  0  0  0  0  0  0
    2.7590   -4.0271   -0.9812 H   0  0  0  0  0  0  0  0  0  0  0  0
    0.9766   -4.4767   -2.1137 C   0  0  0  0  0  0  0  0  0  0  0  0
    1.2945   -5.4770   -2.3724 H   0  0  0  0  0  0  0  0  0  0  0  0
   -0.2636   -3.9937   -2.5693 C   0  0  0  0  0  0  0  0  0  0  0  0
   -0.8977   -4.6218   -3.1778 H   0  0  0  0  0  0  0  0  0  0  0  0
   -0.6741   -2.6902   -2.2380 C   0  0  0  0  0  0  0  0  0  0  0  0
   -1.6270   -2.3187   -2.5919 H   0  0  0  0  0  0  0  0  0  0  0  0
   -1.1784    1.0447    0.7999 C   0  0  0  0  0  0  0  0  0  0  0  0
   -0.4140    1.5695    1.6109 O   0  0  0  0  0  0  0  0  0  0  0  0
   -2.2301    1.6924    0.2828 N   0  0  0  0  0  0  0  0  0  0  0  0
   -2.8414    1.1770   -0.3320 H   0  0  0  0  0  0  0  0  0  0  0  0
   -2.5921    3.0686    0.6135 C   0  0  0  0  0  0  0  0  0  0  0  0
   -1.7269    3.7210    0.4785 H   0  0  0  0  0  0  0  0  0  0  0  0
   -3.4035    3.4099   -0.0298 H   0  0  0  0  0  0  0  0  0  0  0  0
   -2.9109    3.1240    1.6562 H   0  0  0  0  0  0  0  0  0  0  0  0
  5  6  2  0  0  0  0
  5  7  1  0  0  0  0
  2  3  1  0  0  0  0
  2  4  1  0  0  0  0
  2  5  1  0  0  0  0
  1  2  1  0  0  0  0
 25 26  2  0  0  0  0
 25 27  1  0  0  0  0
 23 24  1  0  0  0  0
 21 22  1  0  0  0  0
 21 23  2  0  0  0  0
 19 20  1  0  0  0  0
 19 21  1  0  0  0  0
 17 18  1  0  0  0  0
 17 19  2  0  0  0  0
 15 16  1  0  0  0  0
 15 17  1  0  0  0  0
 14 15  2  0  0  0  0
 14 23  1  0  0  0  0
 11 12  1  0  0  0  0
 11 13  1  0  0  0  0
 11 14  1  0  0  0  0
  9 10  1  0  0  0  0
  9 11  1  0  0  0  0
  9 25  1  0  0  0  0
  7  8  1  0  0  0  0
  7  9  1  0  0  0  0
 29 30  1  0  0  0  0
 29 31  1  0  0  0  0
 29 32  1  0  0  0  0
 27 28  1  0  0  0  0
 27 29  1  0  0  0  0
M  END
$$$$
default_name
  -OEChem-01062215323D

 32 32  0     1  0  0  0  0  0999 V2000
   -3.8405   -3.7518    1.6252 H   0  0  0  0  0  0  0  0  0  0  0  0
   -3.7965   -2.8768    0.9782 C   0  0  0  0  0  0  0  0  0  0  0  0
   -4.5465   -2.1527    1.2902 H   0  0  0  0  0  0  0  0  0  0  0  0
   -3.9745   -3.1748   -0.0538 H   0  0  0  0  0  0  0  0  0  0  0  0
   -2.4245   -2.2537    1.0882 C   0  0  0  0  0  0  0  0  0  0  0  0
   -1.5805   -2.7478    1.8242 O   0  0  0  0  0  0  0  0  0  0  0  0
   -2.2045   -1.1637    0.3562 N   0  0  0  0  0  0  0  0  0  0  0  0
   -2.9595   -0.7907   -0.2008 H   0  0  0  0  0  0  0  0  0  0  0  0
   -0.9485   -0.4087    0.3482 C   0  0  1  0  0  0  0  0  0  0  0  0
   -0.2595   -0.8714    1.0566 H   0  0  0  0  0  0  0  0  0  0  0  0
   -0.3211   -0.4808   -1.0545 C   0  0  0  0  0  0  0  0  0  0  0  0
   -1.0572   -0.1534   -1.7901 H   0  0  0  0  0  0  0  0  0  0  0  0
    0.5200    0.2125   -1.1019 H   0  0  0  0  0  0  0  0  0  0  0  0
    0.1508   -1.8679   -1.4470 C   0  0  0  0  0  0  0  0  0  0  0  0
    1.3920   -2.3538   -0.9939 C   0  0  0  0  0  0  0  0  0  0  0  0
    2.0277   -1.7307   -0.3807 H   0  0  0  0  0  0  0  0  0  0  0  0
    1.8045   -3.6569   -1.3281 C   0  0  0  0  0  0  0  0  0  0  0  0
    2.7590   -4.0271   -0.9812 H   0  0  0  0  0  0  0  0  0  0  0  0
    0.9766   -4.4767   -2.1137 C   0  0  0  0  0  0  0  0  0  0  0  0
    1.2945   -5.4770   -2.3724 H   0  0  0  0  0  0  0  0  0  0  0  0
   -0.2636   -3.9937   -2.5693 C   0  0  0  0  0  0  0  0  0  0  0  0
   -0.8977   -4.6218   -3.1778 H   0  0  0  0  0  0  0  0  0  0  0  0
   -0.6741   -2.6902   -2.2380 C   0  0  0  0  0  0  0  0  0  0  0  0
   -1.6270   -2.3187   -2.5919 H   0  0  0  0  0  0  0  0  0  0  0  0
   -1.1784    1.0447    0.7999 C   0  0  0  0  0  0  0  0  0  0  0  0
   -0.2848    1.6610    1.3824 O   0  0  0  0  0  0  0  0  0  0  0  0
   -2.3730    1.5903    0.5386 N   0  0  0  0  0  0  0  0  0  0  0  0
   -3.0716    1.0037    0.1083 H   0  0  0  0  0  0  0  0  0  0  0  0
   -2.7537    2.9515    0.9078 C   0  0  0  0  0  0  0  0  0  0  0  0
   -2.0028    3.6567    0.5452 H   0  0  0  0  0  0  0  0  0  0  0  0
   -3.7219    3.2029    0.4741 H   0  0  0  0  0  0  0  0  0  0  0  0
   -2.8132    3.0342    1.9948 H   0  0  0  0  0  0  0  0  0  0  0  0
  5  6  2  0  0  0  0
  5  7  1  0  0  0  0
  2  3  1  0  0  0  0
  2  4  1  0  0  0  0
  2  5  1  0  0  0  0
  1  2  1  0  0  0  0
 25 26  2  0  0  0  0
 25 27  1  0  0  0  0
 23 24  1  0  0  0  0
 21 22  1  0  0  0  0
 21 23  2  0  0  0  0
 19 20  1  0  0  0  0
 19 21  1  0  0  0  0
 17 18  1  0  0  0  0
 17 19  2  0  0  0  0
 15 16  1  0  0  0  0
 15 17  1  0  0  0  0
 14 15  2  0  0  0  0
 14 23  1  0  0  0  0
 11 12  1  0  0  0  0
 11 13  1  0  0  0  0
 11 14  1  0  0  0  0
  9 10  1  0  0  0  0
  9 11  1  0  0  0  0
  9 25  1  0  0  0  0
  7  8  1  0  0  0  0
  7  9  1  0  0  0  0
 29 30  1  0  0  0  0
 29 31  1  0  0  0  0
 29 32  1  0  0  0  0
 27 28  1  0  0  0  0
 27 29  1  0  0  0  0
M  END
$$$$
default_name
  -OEChem-01062215323D

 32 32  0     1  0  0  0  0  0999 V2000
   -3.8405   -3.7518    1.6252 H   0  0  0  0  0  0  0  0  0  0  0  0
   -3.7965   -2.8768    0.9782 C   0  0  0  0  0  0  0  0  0  0  0  0
   -4.5465   -2.1527    1.2902 H   0  0  0  0  0  0  0  0  0  0  0  0
   -3.9745   -3.1748   -0.0538 H   0  0  0  0  0  0  0  0  0  0  0  0
   -2.4245   -2.2537    1.0882 C   0  0  0  0  0  0  0  0  0  0  0  0
   -1.5805   -2.7478    1.8242 O   0  0  0  0  0  0  0  0  0  0  0  0
   -2.2045   -1.1637    0.3562 N   0  0  0  0  0  0  0  0  0  0  0  0
   -2.9595   -0.7907   -0.2008 H   0  0  0  0  0  0  0  0  0  0  0  0
   -0.9485   -0.4087    0.3482 C   0  0  1  0  0  0  0  0  0  0  0  0
   -0.2595   -0.8714    1.0566 H   0  0  0  0  0  0  0  0  0  0  0  0
   -0.3211   -0.4808   -1.0545 C   0  0  0  0  0  0  0  0  0  0  0  0
   -1.0572   -0.1534   -1.7901 H   0  0  0  0  0  0  0  0  0  0  0  0
    0.5200    0.2125   -1.1019 H   0  0  0  0  0  0  0  0  0  0  0  0
    0.1508   -1.8679   -1.4470 C   0  0  0  0  0  0  0  0  0  0  0  0
    1.3920   -2.3538   -0.9939 C   0  0  0  0  0  0  0  0  0  0  0  0
    2.0277   -1.7307   -0.3807 H   0  0  0  0  0  0  0  0  0  0  0  0
    1.8045   -3.6569   -1.3281 C   0  0  0  0  0  0  0  0  0  0  0  0
    2.7590   -4.0271   -0.9812 H   0  0  0  0  0  0  0  0  0  0  0  0
    0.9766   -4.4767   -2.1137 C   0  0  0  0  0  0  0  0  0  0  0  0
    1.2945   -5.4770   -2.3724 H   0  0  0  0  0  0  0  0  0  0  0  0
   -0.2636   -3.9937   -2.5693 C   0  0  0  0  0  0  0  0  0  0  0  0
   -0.8977   -4.6218   -3.1778 H   0  0  0  0  0  0  0  0  0  0  0  0
   -0.6741   -2.6902   -2.2380 C   0  0  0  0  0  0  0  0  0  0  0  0
   -1.6270   -2.3187   -2.5919 H   0  0  0  0  0  0  0  0  0  0  0  0
   -1.1784    1.0447    0.7999 C   0  0  0  0  0  0  0  0  0  0  0  0
   -0.2229    1.7503    1.1265 O   0  0  0  0  0  0  0  0  0  0  0  0
   -2.4407    1.4907    0.8245 N   0  0  0  0  0  0  0  0  0  0  0  0
   -3.1732    0.8359    0.5965 H   0  0  0  0  0  0  0  0  0  0  0  0
   -2.8290    2.8376    1.2361 C   0  0  0  0  0  0  0  0  0  0  0  0
   -2.2481    3.5761    0.6796 H   0  0  0  0  0  0  0  0  0  0  0  0
   -3.8906    2.9983    1.0466 H   0  0  0  0  0  0  0  0  0  0  0  0
   -2.6291    2.9680    2.3014 H   0  0  0  0  0  0  0  0  0  0  0  0
  5  6  2  0  0  0  0
  5  7  1  0  0  0  0
  2  3  1  0  0  0  0
  2  4  1  0  0  0  0
  2  5  1  0  0  0  0
  1  2  1  0  0  0  0
 25 26  2  0  0  0  0
 25 27  1  0  0  0  0
 23 24  1  0  0  0  0
 21 22  1  0  0  0  0
 21 23  2  0  0  0  0
 19 20  1  0  0  0  0
 19 21  1  0  0  0  0
 17 18  1  0  0  0  0
 17 19  2  0  0  0  0
 15 16  1  0  0  0  0
 15 17  1  0  0  0  0
 14 15  2  0  0  0  0
 14 23  1  0  0  0  0
 11 12  1  0  0  0  0
 11 13  1  0  0  0  0
 11 14  1  0  0  0  0
  9 10  1  0  0  0  0
  9 11  1  0  0  0  0
  9 25  1  0  0  0  0
  7  8  1  0  0  0  0
  7  9  1  0  0  0  0
 29 30  1  0  0  0  0
 29 31  1  0  0  0  0
 29 32  1  0  0  0  0
 27 28  1  0  0  0  0
 27 29  1  0  0  0  0
M  END
$$$$
default_name
  -OEChem-01062215323D

 32 32  0     1  0  0  0  0  0999 V2000
   -3.8405   -3.7518    1.6252 H   0  0  0  0  0  0  0  0  0  0  0  0
   -3.7965   -2.8768    0.9782 C   0  0  0  0  0  0  0  0  0  0  0  0
   -4.5465   -2.1527    1.2902 H   0  0  0  0  0  0  0  0  0  0  0  0
   -3.9745   -3.1748   -0.0538 H   0  0  0  0  0  0  0  0  0  0  0  0
   -2.4245   -2.2537    1.0882 C   0  0  0  0  0  0  0  0  0  0  0  0
   -1.5805   -2.7478    1.8242 O   0  0  0  0  0  0  0  0  0  0  0  0
   -2.2045   -1.1637    0.3562 N   0  0  0  0  0  0  0  0  0  0  0  0
   -2.9595   -0.7907   -0.2008 H   0  0  0  0  0  0  0  0  0  0  0  0
   -0.9485   -0.4087    0.3482 C   0  0  1  0  0  0  0  0  0  0  0  0
   -0.2595   -0.8714    1.0566 H   0  0  0  0  0  0  0  0  0  0  0  0
   -0.3211   -0.4808   -1.0545 C   0  0  0  0  0  0  0  0  0  0  0  0
   -1.0572   -0.1534   -1.7901 H   0  0  0  0  0  0  0  0  0  0  0  0
    0.5200    0.2125   -1.1019 H   0  0  0  0  0  0  0  0  0  0  0  0
    0.1508   -1.8679   -1.4470 C   0  0  0  0  0  0  0  0  0  0  0  0
    1.3920   -2.3538   -0.9939 C   0  0  0  0  0  0  0  0  0  0  0  0
    2.0277   -1.7307   -0.3807 H   0  0  0  0  0  0  0  0  0  0  0  0
    1.8045   -3.6569   -1.3281 C   0  0  0  0  0  0  0  0  0  0  0  0
    2.7590   -4.0271   -0.9812 H   0  0  0  0  0  0  0  0  0  0  0  0
    0.9766   -4.4767   -2.1137 C   0  0  0  0  0  0  0  0  0  0  0  0
    1.2945   -5.4770   -2.3724 H   0  0  0  0  0  0  0  0  0  0  0  0
   -0.2636   -3.9937   -2.5693 C   0  0  0  0  0  0  0  0  0  0  0  0
   -0.8977   -4.6218   -3.1778 H   0  0  0  0  0  0  0  0  0  0  0  0
   -0.6741   -2.6902   -2.2380 C   0  0  0  0  0  0  0  0  0  0  0  0
   -1.6270   -2.3187   -2.5919 H   0  0  0  0  0  0  0  0  0  0  0  0
   -1.1784    1.0447    0.7999 C   0  0  0  0  0  0  0  0  0  0  0  0
   -0.2324    1.8314    0.8608 O   0  0  0  0  0  0  0  0  0  0  0  0
   -2.4287    1.4004    1.1211 N   0  0  0  0  0  0  0  0  0  0  0  0
   -3.1393    0.6850    1.0995 H   0  0  0  0  0  0  0  0  0  0  0  0
   -2.8128    2.7345    1.5760 C   0  0  0  0  0  0  0  0  0  0  0  0
   -2.4461    3.4849    0.8725 H   0  0  0  0  0  0  0  0  0  0  0  0
   -3.8981    2.8100    1.6488 H   0  0  0  0  0  0  0  0  0  0  0  0
   -2.3714    2.9299    2.5552 H   0  0  0  0  0  0  0  0  0  0  0  0
  5  6  2  0  0  0  0
  5  7  1  0  0  0  0
  2  3  1  0  0  0  0
  2  4  1  0  0  0  0
  2  5  1  0  0  0  0
  1  2  1  0  0  0  0
 25 26  2  0  0  0  0
 25 27  1  0  0  0  0
 23 24  1  0  0  0  0
 21 22  1  0  0  0  0
 21 23  2  0  0  0  0
 19 20  1  0  0  0  0
 19 21  1  0  0  0  0
 17 18  1  0  0  0  0
 17 19  2  0  0  0  0
 15 16  1  0  0  0  0
 15 17  1  0  0  0  0
 14 15  2  0  0  0  0
 14 23  1  0  0  0  0
 11 12  1  0  0  0  0
 11 13  1  0  0  0  0
 11 14  1  0  0  0  0
  9 10  1  0  0  0  0
  9 11  1  0  0  0  0
  9 25  1  0  0  0  0
  7  8  1  0  0  0  0
  7  9  1  0  0  0  0
 29 30  1  0  0  0  0
 29 31  1  0  0  0  0
 29 32  1  0  0  0  0
 27 28  1  0  0  0  0
 27 29  1  0  0  0  0
M  END
$$$$
default_name
  -OEChem-01062215323D

 32 32  0     1  0  0  0  0  0999 V2000
   -3.8405   -3.7518    1.6252 H   0  0  0  0  0  0  0  0  0  0  0  0
   -3.7965   -2.8768    0.9782 C   0  0  0  0  0  0  0  0  0  0  0  0
   -4.5465   -2.1527    1.2902 H   0  0  0  0  0  0  0  0  0  0  0  0
   -3.9745   -3.1748   -0.0538 H   0  0  0  0  0  0  0  0  0  0  0  0
   -2.4245   -2.2537    1.0882 C   0  0  0  0  0  0  0  0  0  0  0  0
   -1.5805   -2.7478    1.8242 O   0  0  0  0  0  0  0  0  0  0  0  0
   -2.2045   -1.1637    0.3562 N   0  0  0  0  0  0  0  0  0  0  0  0
   -2.9595   -0.7907   -0.2008 H   0  0  0  0  0  0  0  0  0  0  0  0
   -0.9485   -0.4087    0.3482 C   0  0  1  0  0  0  0  0  0  0  0  0
   -0.2595   -0.8714    1.0566 H   0  0  0  0  0  0  0  0  0  0  0  0
   -0.3211   -0.4808   -1.0545 C   0  0  0  0  0  0  0  0  0  0  0  0
   -1.0572   -0.1534   -1.7901 H   0  0  0  0  0  0  0  0  0  0  0  0
    0.5200    0.2125   -1.1019 H   0  0  0  0  0  0  0  0  0  0  0  0
    0.1508   -1.8679   -1.4470 C   0  0  0  0  0  0  0  0  0  0  0  0
    1.3920   -2.3538   -0.9939 C   0  0  0  0  0  0  0  0  0  0  0  0
    2.0277   -1.7307   -0.3807 H   0  0  0  0  0  0  0  0  0  0  0  0
    1.8045   -3.6569   -1.3281 C   0  0  0  0  0  0  0  0  0  0  0  0
    2.7590   -4.0271   -0.9812 H   0  0  0  0  0  0  0  0  0  0  0  0
    0.9766   -4.4767   -2.1137 C   0  0  0  0  0  0  0  0  0  0  0  0
    1.2945   -5.4770   -2.3724 H   0  0  0  0  0  0  0  0  0  0  0  0
   -0.2636   -3.9937   -2.5693 C   0  0  0  0  0  0  0  0  0  0  0  0
   -0.8977   -4.6218   -3.1778 H   0  0  0  0  0  0  0  0  0  0  0  0
   -0.6741   -2.6902   -2.2380 C   0  0  0  0  0  0  0  0  0  0  0  0
   -1.6270   -2.3187   -2.5919 H   0  0  0  0  0  0  0  0  0  0  0  0
   -1.1784    1.0447    0.7999 C   0  0  0  0  0  0  0  0  0  0  0  0
   -0.3126    1.8987    0.6033 O   0  0  0  0  0  0  0  0  0  0  0  0
   -2.3378    1.3256    1.4082 N   0  0  0  0  0  0  0  0  0  0  0  0
   -2.9722    0.5612    1.5828 H   0  0  0  0  0  0  0  0  0  0  0  0
   -2.7063    2.6493    1.9044 C   0  0  0  0  0  0  0  0  0  0  0  0
   -2.5833    3.3891    1.1107 H   0  0  0  0  0  0  0  0  0  0  0  0
   -3.7439    2.6508    2.2395 H   0  0  0  0  0  0  0  0  0  0  0  0
   -2.0575    2.9225    2.7389 H   0  0  0  0  0  0  0  0  0  0  0  0
  5  6  2  0  0  0  0
  5  7  1  0  0  0  0
  2  3  1  0  0  0  0
  2  4  1  0  0  0  0
  2  5  1  0  0  0  0
  1  2  1  0  0  0  0
 25 26  2  0  0  0  0
 25 27  1  0  0  0  0
 23 24  1  0  0  0  0
 21 22  1  0  0  0  0
 21 23  2  0  0  0  0
 19 20  1  0  0  0  0
 19 21  1  0  0  0  0
 17 18  1  0  0  0  0
 17 19  2  0  0  0  0
 15 16  1  0  0  0  0
 15 17  1  0  0  0  0
 14 15  2  0  0  0  0
 14 23  1  0  0  0  0
 11 12  1  0  0  0  0
 11 13  1  0  0  0  0
 11 14  1  0  0  0  0
  9 10  1  0  0  0  0
  9 11  1  0  0  0  0
  9 25  1  0  0  0  0
  7  8  1  0  0  0  0
  7  9  1  0  0  0  0
 29 30  1  0  0  0  0
 29 31  1  0  0  0  0
 29 32  1  0  0  0  0
 27 28  1  0  0  0  0
 27 29  1  0  0  0  0
M  END
$$$$
default_name
  -OEChem-01062215323D

 32 32  0     1  0  0  0  0  0999 V2000
   -3.8405   -3.7518    1.6252 H   0  0  0  0  0  0  0  0  0  0  0  0
   -3.7965   -2.8768    0.9782 C   0  0  0  0  0  0  0  0  0  0  0  0
   -4.5465   -2.1527    1.2902 H   0  0  0  0  0  0  0  0  0  0  0  0
   -3.9745   -3.1748   -0.0538 H   0  0  0  0  0  0  0  0  0  0  0  0
   -2.4245   -2.2537    1.0882 C   0  0  0  0  0  0  0  0  0  0  0  0
   -1.5805   -2.7478    1.8242 O   0  0  0  0  0  0  0  0  0  0  0  0
   -2.2045   -1.1637    0.3562 N   0  0  0  0  0  0  0  0  0  0  0  0
   -2.9595   -0.7907   -0.2008 H   0  0  0  0  0  0  0  0  0  0  0  0
   -0.9485   -0.4087    0.3482 C   0  0  1  0  0  0  0  0  0  0  0  0
   -0.2595   -0.8714    1.0566 H   0  0  0  0  0  0  0  0  0  0  0  0
   -0.3211   -0.4808   -1.0545 C   0  0  0  0  0  0  0  0  0  0  0  0
   -1.0572   -0.1534   -1.7901 H   0  0  0  0  0  0  0  0  0  0  0  0
    0.5200    0.2125   -1.1019 H   0  0  0  0  0  0  0  0  0  0  0  0
    0.1508   -1.8679   -1.4470 C   0  0  0  0  0  0  0  0  0  0  0  0
    1.3920   -2.3538   -0.9939 C   0  0  0  0  0  0  0  0  0  0  0  0
    2.0277   -1.7307   -0.3807 H   0  0  0  0  0  0  0  0  0  0  0  0
    1.8045   -3.6569   -1.3281 C   0  0  0  0  0  0  0  0  0  0  0  0
    2.7590   -4.0271   -0.9812 H   0  0  0  0  0  0  0  0  0  0  0  0
    0.9766   -4.4767   -2.1137 C   0  0  0  0  0  0  0  0  0  0  0  0
    1.2945   -5.4770   -2.3724 H   0  0  0  0  0  0  0  0  0  0  0  0
   -0.2636   -3.9937   -2.5693 C   0  0  0  0  0  0  0  0  0  0  0  0
   -0.8977   -4.6218   -3.1778 H   0  0  0  0  0  0  0  0  0  0  0  0
   -0.6741   -2.6902   -2.2380 C   0  0  0  0  0  0  0  0  0  0  0  0
   -1.6270   -2.3187   -2.5919 H   0  0  0  0  0  0  0  0  0  0  0  0
   -1.1784    1.0447    0.7999 C   0  0  0  0  0  0  0  0  0  0  0  0
   -0.4582    1.9477    0.3716 O   0  0  0  0  0  0  0  0  0  0  0  0
   -2.1741    1.2713    1.6661 N   0  0  0  0  0  0  0  0  0  0  0  0
   -2.6832    0.4730    2.0136 H   0  0  0  0  0  0  0  0  0  0  0  0
   -2.5167    2.5878    2.1988 C   0  0  0  0  0  0  0  0  0  0  0  0
   -2.6504    3.2955    1.3780 H   0  0  0  0  0  0  0  0  0  0  0  0
   -3.4385    2.5316    2.7786 H   0  0  0  0  0  0  0  0  0  0  0  0
   -1.7089    2.9462    2.8398 H   0  0  0  0  0  0  0  0  0  0  0  0
  5  6  2  0  0  0  0
  5  7  1  0  0  0  0
  2  3  1  0  0  0  0
  2  4  1  0  0  0  0
  2  5  1  0  0  0  0
  1  2  1  0  0  0  0
 25 26  2  0  0  0  0
 25 27  1  0  0  0  0
 23 24  1  0  0  0  0
 21 22  1  0  0  0  0
 21 23  2  0  0  0  0
 19 20  1  0  0  0  0
 19 21  1  0  0  0  0
 17 18  1  0  0  0  0
 17 19  2  0  0  0  0
 15 16  1  0  0  0  0
 15 17  1  0  0  0  0
 14 15  2  0  0  0  0
 14 23  1  0  0  0  0
 11 12  1  0  0  0  0
 11 13  1  0  0  0  0
 11 14  1  0  0  0  0
  9 10  1  0  0  0  0
  9 11  1  0  0  0  0
  9 25  1  0  0  0  0
  7  8  1  0  0  0  0
  7  9  1  0  0  0  0
 29 30  1  0  0  0  0
 29 31  1  0  0  0  0
 29 32  1  0  0  0  0
 27 28  1  0  0  0  0
 27 29  1  0  0  0  0
M  END
$$$$
default_name
  -OEChem-01062215323D

 32 32  0     1  0  0  0  0  0999 V2000
   -3.8405   -3.7518    1.6252 H   0  0  0  0  0  0  0  0  0  0  0  0
   -3.7965   -2.8768    0.9782 C   0  0  0  0  0  0  0  0  0  0  0  0
   -4.5465   -2.1527    1.2902 H   0  0  0  0  0  0  0  0  0  0  0  0
   -3.9745   -3.1748   -0.0538 H   0  0  0  0  0  0  0  0  0  0  0  0
   -2.4245   -2.2537    1.0882 C   0  0  0  0  0  0  0  0  0  0  0  0
   -1.5805   -2.7478    1.8242 O   0  0  0  0  0  0  0  0  0  0  0  0
   -2.2045   -1.1637    0.3562 N   0  0  0  0  0  0  0  0  0  0  0  0
   -2.9595   -0.7907   -0.2008 H   0  0  0  0  0  0  0  0  0  0  0  0
   -0.9485   -0.4087    0.3482 C   0  0  1  0  0  0  0  0  0  0  0  0
   -0.2595   -0.8714    1.0566 H   0  0  0  0  0  0  0  0  0  0  0  0
   -0.3211   -0.4808   -1.0545 C   0  0  0  0  0  0  0  0  0  0  0  0
   -1.0572   -0.1534   -1.7901 H   0  0  0  0  0  0  0  0  0  0  0  0
    0.5200    0.2125   -1.1019 H   0  0  0  0  0  0  0  0  0  0  0  0
    0.1508   -1.8679   -1.4470 C   0  0  0  0  0  0  0  0  0  0  0  0
    1.3920   -2.3538   -0.9939 C   0  0  0  0  0  0  0  0  0  0  0  0
    2.0277   -1.7307   -0.3807 H   0  0  0  0  0  0  0  0  0  0  0  0
    1.8045   -3.6569   -1.3281 C   0  0  0  0  0  0  0  0  0  0  0  0
    2.7590   -4.0271   -0.9812 H   0  0  0  0  0  0  0  0  0  0  0  0
    0.9766   -4.4767   -2.1137 C   0  0  0  0  0  0  0  0  0  0  0  0
    1.2945   -5.4770   -2.3724 H   0  0  0  0  0  0  0  0  0  0  0  0
   -0.2636   -3.9937   -2.5693 C   0  0  0  0  0  0  0  0  0  0  0  0
   -0.8977   -4.6218   -3.1778 H   0  0  0  0  0  0  0  0  0  0  0  0
   -0.6741   -2.6902   -2.2380 C   0  0  0  0  0  0  0  0  0  0  0  0
   -1.6270   -2.3187   -2.5919 H   0  0  0  0  0  0  0  0  0  0  0  0
   -1.1784    1.0447    0.7999 C   0  0  0  0  0  0  0  0  0  0  0  0
   -0.6591    1.9750    0.1815 O   0  0  0  0  0  0  0  0  0  0  0  0
   -1.9488    1.2413    1.8773 N   0  0  0  0  0  0  0  0  0  0  0  0
   -2.2921    0.4264    2.3625 H   0  0  0  0  0  0  0  0  0  0  0  0
   -2.2570    2.5541    2.4393 C   0  0  0  0  0  0  0  0  0  0  0  0
   -2.6427    3.2102    1.6562 H   0  0  0  0  0  0  0  0  0  0  0  0
   -3.0026    2.4604    3.2293 H   0  0  0  0  0  0  0  0  0  0  0  0
   -1.3493    2.9995    2.8512 H   0  0  0  0  0  0  0  0  0  0  0  0
  5  6  2  0  0  0  0
  5  7  1  0  0  0  0
  2  3  1  0  0  0  0
  2  4  1  0  0  0  0
  2  5  1  0  0  0  0
  1  2  1  0  0  0  0
 25 26  2  0  0  0  0
 25 27  1  0  0  0  0
 23 24  1  0  0  0  0
 21 22  1  0  0  0  0
 21 23  2  0  0  0  0
 19 20  1  0  0  0  0
 19 21  1  0  0  0  0
 17 18  1  0  0  0  0
 17 19  2  0  0  0  0
 15 16  1  0  0  0  0
 15 17  1  0  0  0  0
 14 15  2  0  0  0  0
 14 23  1  0  0  0  0
 11 12  1  0  0  0  0
 11 13  1  0  0  0  0
 11 14  1  0  0  0  0
  9 10  1  0  0  0  0
  9 11  1  0  0  0  0
  9 25  1  0  0  0  0
  7  8  1  0  0  0  0
  7  9  1  0  0  0  0
 29 30  1  0  0  0  0
 29 31  1  0  0  0  0
 29 32  1  0  0  0  0
 27 28  1  0  0  0  0
 27 29  1  0  0  0  0
M  END
$$$$
default_name
  -OEChem-01062215323D

 32 32  0     1  0  0  0  0  0999 V2000
   -3.8405   -3.7518    1.6252 H   0  0  0  0  0  0  0  0  0  0  0  0
   -3.7965   -2.8768    0.9782 C   0  0  0  0  0  0  0  0  0  0  0  0
   -4.5465   -2.1527    1.2902 H   0  0  0  0  0  0  0  0  0  0  0  0
   -3.9745   -3.1748   -0.0538 H   0  0  0  0  0  0  0  0  0  0  0  0
   -2.4245   -2.2537    1.0882 C   0  0  0  0  0  0  0  0  0  0  0  0
   -1.5805   -2.7478    1.8242 O   0  0  0  0  0  0  0  0  0  0  0  0
   -2.2045   -1.1637    0.3562 N   0  0  0  0  0  0  0  0  0  0  0  0
   -2.9595   -0.7907   -0.2008 H   0  0  0  0  0  0  0  0  0  0  0  0
   -0.9485   -0.4087    0.3482 C   0  0  1  0  0  0  0  0  0  0  0  0
   -0.2595   -0.8714    1.0566 H   0  0  0  0  0  0  0  0  0  0  0  0
   -0.3211   -0.4808   -1.0545 C   0  0  0  0  0  0  0  0  0  0  0  0
   -1.0572   -0.1534   -1.7901 H   0  0  0  0  0  0  0  0  0  0  0  0
    0.5200    0.2125   -1.1019 H   0  0  0  0  0  0  0  0  0  0  0  0
    0.1508   -1.8679   -1.4470 C   0  0  0  0  0  0  0  0  0  0  0  0
    1.3920   -2.3538   -0.9939 C   0  0  0  0  0  0  0  0  0  0  0  0
    2.0277   -1.7307   -0.3807 H   0  0  0  0  0  0  0  0  0  0  0  0
    1.8045   -3.6569   -1.3281 C   0  0  0  0  0  0  0  0  0  0  0  0
    2.7590   -4.0271   -0.9812 H   0  0  0  0  0  0  0  0  0  0  0  0
    0.9766   -4.4767   -2.1137 C   0  0  0  0  0  0  0  0  0  0  0  0
    1.2945   -5.4770   -2.3724 H   0  0  0  0  0  0  0  0  0  0  0  0
   -0.2636   -3.9937   -2.5693 C   0  0  0  0  0  0  0  0  0  0  0  0
   -0.8977   -4.6218   -3.1778 H   0  0  0  0  0  0  0  0  0  0  0  0
   -0.6741   -2.6902   -2.2380 C   0  0  0  0  0  0  0  0  0  0  0  0
   -1.6270   -2.3187   -2.5919 H   0  0  0  0  0  0  0  0  0  0  0  0
   -1.1784    1.0447    0.7999 C   0  0  0  0  0  0  0  0  0  0  0  0
   -0.9017    1.9787    0.0459 O   0  0  0  0  0  0  0  0  0  0  0  0
   -1.6773    1.2376    2.0275 N   0  0  0  0  0  0  0  0  0  0  0  0
   -1.8255    0.4246    2.6057 H   0  0  0  0  0  0  0  0  0  0  0  0
   -1.9447    2.5506    2.6094 C   0  0  0  0  0  0  0  0  0  0  0  0
   -2.5608    3.1392    1.9263 H   0  0  0  0  0  0  0  0  0  0  0  0
   -2.4661    2.4422    3.5608 H   0  0  0  0  0  0  0  0  0  0  0  0
   -1.0032    3.0788    2.7723 H   0  0  0  0  0  0  0  0  0  0  0  0
  5  6  2  0  0  0  0
  5  7  1  0  0  0  0
  2  3  1  0  0  0  0
  2  4  1  0  0  0  0
  2  5  1  0  0  0  0
  1  2  1  0  0  0  0
 25 26  2  0  0  0  0
 25 27  1  0  0  0  0
 23 24  1  0  0  0  0
 21 22  1  0  0  0  0
 21 23  2  0  0  0  0
 19 20  1  0  0  0  0
 19 21  1  0  0  0  0
 17 18  1  0  0  0  0
 17 19  2  0  0  0  0
 15 16  1  0  0  0  0
 15 17  1  0  0  0  0
 14 15  2  0  0  0  0
 14 23  1  0  0  0  0
 11 12  1  0  0  0  0
 11 13  1  0  0  0  0
 11 14  1  0  0  0  0
  9 10  1  0  0  0  0
  9 11  1  0  0  0  0
  9 25  1  0  0  0  0
  7  8  1  0  0  0  0
  7  9  1  0  0  0  0
 29 30  1  0  0  0  0
 29 31  1  0  0  0  0
 29 32  1  0  0  0  0
 27 28  1  0  0  0  0
 27 29  1  0  0  0  0
M  END
$$$$
default_name
  -OEChem-01062215323D

 32 32  0     1  0  0  0  0  0999 V2000
   -3.8405   -3.7518    1.6252 H   0  0  0  0  0  0  0  0  0  0  0  0
   -3.7965   -2.8768    0.9782 C   0  0  0  0  0  0  0  0  0  0  0  0
   -4.5465   -2.1527    1.2902 H   0  0  0  0  0  0  0  0  0  0  0  0
   -3.9745   -3.1748   -0.0538 H   0  0  0  0  0  0  0  0  0  0  0  0
   -2.4245   -2.2537    1.0882 C   0  0  0  0  0  0  0  0  0  0  0  0
   -1.5805   -2.7478    1.8242 O   0  0  0  0  0  0  0  0  0  0  0  0
   -2.2045   -1.1637    0.3562 N   0  0  0  0  0  0  0  0  0  0  0  0
   -2.9595   -0.7907   -0.2008 H   0  0  0  0  0  0  0  0  0  0  0  0
   -0.9485   -0.4087    0.3482 C   0  0  1  0  0  0  0  0  0  0  0  0
   -0.2595   -0.8714    1.0566 H   0  0  0  0  0  0  0  0  0  0  0  0
   -0.3211   -0.4808   -1.0545 C   0  0  0  0  0  0  0  0  0  0  0  0
   -1.0572   -0.1534   -1.7901 H   0  0  0  0  0  0  0  0  0  0  0  0
    0.5200    0.2125   -1.1019 H   0  0  0  0  0  0  0  0  0  0  0  0
    0.1508   -1.8679   -1.4470 C   0  0  0  0  0  0  0  0  0  0  0  0
    1.3920   -2.3538   -0.9939 C   0  0  0  0  0  0  0  0  0  0  0  0
    2.0277   -1.7307   -0.3807 H   0  0  0  0  0  0  0  0  0  0  0  0
    1.8045   -3.6569   -1.3281 C   0  0  0  0  0  0  0  0  0  0  0  0
    2.7590   -4.0271   -0.9812 H   0  0  0  0  0  0  0  0  0  0  0  0
    0.9766   -4.4767   -2.1137 C   0  0  0  0  0  0  0  0  0  0  0  0
    1.2945   -5.4770   -2.3724 H   0  0  0  0  0  0  0  0  0  0  0  0
   -0.2636   -3.9937   -2.5693 C   0  0  0  0  0  0  0  0  0  0  0  0
   -0.8977   -4.6218   -3.1778 H   0  0  0  0  0  0  0  0  0  0  0  0
   -0.6741   -2.6902   -2.2380 C   0  0  0  0  0  0  0  0  0  0  0  0
   -1.6270   -2.3187   -2.5919 H   0  0  0  0  0  0  0  0  0  0  0  0
   -1.1784    1.0447    0.7999 C   0  0  0  0  0  0  0  0  0  0  0  0
   -1.1695    1.9587   -0.0259 O   0  0  0  0  0  0  0  0  0  0  0  0
   -1.3781    1.2604    2.1063 N   0  0  0  0  0  0  0  0  0  0  0  0
   -1.3152    0.4677    2.7267 H   0  0  0  0  0  0  0  0  0  0  0  0
   -1.6013    2.5776    2.6975 C   0  0  0  0  0  0  0  0  0  0  0  0
   -2.4103    3.0873    2.1700 H   0  0  0  0  0  0  0  0  0  0  0  0
   -1.8654    2.4782    3.7507 H   0  0  0  0  0  0  0  0  0  0  0  0
   -0.6943    3.1786    2.6084 H   0  0  0  0  0  0  0  0  0  0  0  0
  5  6  2  0  0  0  0
  5  7  1  0  0  0  0
  2  3  1  0  0  0  0
  2  4  1  0  0  0  0
  2  5  1  0  0  0  0
  1  2  1  0  0  0  0
 25 26  2  0  0  0  0
 25 27  1  0  0  0  0
 23 24  1  0  0  0  0
 21 22  1  0  0  0  0
 21 23  2  0  0  0  0
 19 20  1  0  0  0  0
 19 21  1  0  0  0  0
 17 18  1  0  0  0  0
 17 19  2  0  0  0  0
 15 16  1  0  0  0  0
 15 17  1  0  0  0  0
 14 15  2  0  0  0  0
 14 23  1  0  0  0  0
 11 12  1  0  0  0  0
 11 13  1  0  0  0  0
 11 14  1  0  0  0  0
  9 10  1  0  0  0  0
  9 11  1  0  0  0  0
  9 25  1  0  0  0  0
  7  8  1  0  0  0  0
  7  9  1  0  0  0  0
 29 30  1  0  0  0  0
 29 31  1  0  0  0  0
 29 32  1  0  0  0  0
 27 28  1  0  0  0  0
 27 29  1  0  0  0  0
M  END
$$$$
default_name
  -OEChem-01062215323D

 32 32  0     1  0  0  0  0  0999 V2000
   -3.8405   -3.7518    1.6252 H   0  0  0  0  0  0  0  0  0  0  0  0
   -3.7965   -2.8768    0.9782 C   0  0  0  0  0  0  0  0  0  0  0  0
   -4.5465   -2.1527    1.2902 H   0  0  0  0  0  0  0  0  0  0  0  0
   -3.9745   -3.1748   -0.0538 H   0  0  0  0  0  0  0  0  0  0  0  0
   -2.4245   -2.2537    1.0882 C   0  0  0  0  0  0  0  0  0  0  0  0
   -1.5805   -2.7478    1.8242 O   0  0  0  0  0  0  0  0  0  0  0  0
   -2.2045   -1.1637    0.3562 N   0  0  0  0  0  0  0  0  0  0  0  0
   -2.9595   -0.7907   -0.2008 H   0  0  0  0  0  0  0  0  0  0  0  0
   -0.9485   -0.4087    0.3482 C   0  0  1  0  0  0  0  0  0  0  0  0
   -0.2595   -0.8714    1.0566 H   0  0  0  0  0  0  0  0  0  0  0  0
   -0.3211   -0.4808   -1.0545 C   0  0  0  0  0  0  0  0  0  0  0  0
   -1.0572   -0.1534   -1.7901 H   0  0  0  0  0  0  0  0  0  0  0  0
    0.5200    0.2125   -1.1019 H   0  0  0  0  0  0  0  0  0  0  0  0
    0.1508   -1.8679   -1.4470 C   0  0  0  0  0  0  0  0  0  0  0  0
    1.3920   -2.3538   -0.9939 C   0  0  0  0  0  0  0  0  0  0  0  0
    2.0277   -1.7307   -0.3807 H   0  0  0  0  0  0  0  0  0  0  0  0
    1.8045   -3.6569   -1.3281 C   0  0  0  0  0  0  0  0  0  0  0  0
    2.7590   -4.0271   -0.9812 H   0  0  0  0  0  0  0  0  0  0  0  0
    0.9766   -4.4767   -2.1137 C   0  0  0  0  0  0  0  0  0  0  0  0
    1.2945   -5.4770   -2.3724 H   0  0  0  0  0  0  0  0  0  0  0  0
   -0.2636   -3.9937   -2.5693 C   0  0  0  0  0  0  0  0  0  0  0  0
   -0.8977   -4.6218   -3.1778 H   0  0  0  0  0  0  0  0  0  0  0  0
   -0.6741   -2.6902   -2.2380 C   0  0  0  0  0  0  0  0  0  0  0  0
   -1.6270   -2.3187   -2.5919 H   0  0  0  0  0  0  0  0  0  0  0  0
   -1.1784    1.0447    0.7999 C   0  0  0  0  0  0  0  0  0  0  0  0
   -1.4442    1.9163   -0.0290 O   0  0  0  0  0  0  0  0  0  0  0  0
   -1.0716    1.3082    2.1084 N   0  0  0  0  0  0  0  0  0  0  0  0
   -0.7961    0.5527    2.7173 H   0  0  0  0  0  0  0  0  0  0  0  0
   -1.2501    2.6331    2.6976 C   0  0  0  0  0  0  0  0  0  0  0  0
   -2.2014    3.0580    2.3706 H   0  0  0  0  0  0  0  0  0  0  0  0
   -1.2416    2.5659    3.7858 H   0  0  0  0  0  0  0  0  0  0  0  0
   -0.4434    3.2921    2.3707 H   0  0  0  0  0  0  0  0  0  0  0  0
  5  6  2  0  0  0  0
  5  7  1  0  0  0  0
  2  3  1  0  0  0  0
  2  4  1  0  0  0  0
  2  5  1  0  0  0  0
  1  2  1  0  0  0  0
 25 26  2  0  0  0  0
 25 27  1  0  0  0  0
 23 24  1  0  0  0  0
 21 22  1  0  0  0  0
 21 23  2  0  0  0  0
 19 20  1  0  0  0  0
 19 21  1  0  0  0  0
 17 18  1  0  0  0  0
 17 19  2  0  0  0  0
 15 16  1  0  0  0  0
 15 17  1  0  0  0  0
 14 15  2  0  0  0  0
 14 23  1  0  0  0  0
 11 12  1  0  0  0  0
 11 13  1  0  0  0  0
 11 14  1  0  0  0  0
  9 10  1  0  0  0  0
  9 11  1  0  0  0  0
  9 25  1  0  0  0  0
  7  8  1  0  0  0  0
  7  9  1  0  0  0  0
 29 30  1  0  0  0  0
 29 31  1  0  0  0  0
 29 32  1  0  0  0  0
 27 28  1  0  0  0  0
 27 29  1  0  0  0  0
M  END
$$$$
default_name
  -OEChem-01062215323D

 32 32  0     1  0  0  0  0  0999 V2000
   -3.8405   -3.7518    1.6252 H   0  0  0  0  0  0  0  0  0  0  0  0
   -3.7965   -2.8768    0.9782 C   0  0  0  0  0  0  0  0  0  0  0  0
   -4.5465   -2.1527    1.2902 H   0  0  0  0  0  0  0  0  0  0  0  0
   -3.9745   -3.1748   -0.0538 H   0  0  0  0  0  0  0  0  0  0  0  0
   -2.4245   -2.2537    1.0882 C   0  0  0  0  0  0  0  0  0  0  0  0
   -1.5805   -2.7478    1.8242 O   0  0  0  0  0  0  0  0  0  0  0  0
   -2.2045   -1.1637    0.3562 N   0  0  0  0  0  0  0  0  0  0  0  0
   -2.9595   -0.7907   -0.2008 H   0  0  0  0  0  0  0  0  0  0  0  0
   -0.9485   -0.4087    0.3482 C   0  0  1  0  0  0  0  0  0  0  0  0
   -0.2595   -0.8714    1.0566 H   0  0  0  0  0  0  0  0  0  0  0  0
   -0.3211   -0.4808   -1.0545 C   0  0  0  0  0  0  0  0  0  0  0  0
   -1.0572   -0.1534   -1.7901 H   0  0  0  0  0  0  0  0  0  0  0  0
    0.5200    0.2125   -1.1019 H   0  0  0  0  0  0  0  0  0  0  0  0
    0.1508   -1.8679   -1.4470 C   0  0  0  0  0  0  0  0  0  0  0  0
    1.3920   -2.3538   -0.9939 C   0  0  0  0  0  0  0  0  0  0  0  0
    2.0277   -1.7307   -0.3807 H   0  0  0  0  0  0  0  0  0  0  0  0
    1.8045   -3.6569   -1.3281 C   0  0  0  0  0  0  0  0  0  0  0  0
    2.7590   -4.0271   -0.9812 H   0  0  0  0  0  0  0  0  0  0  0  0
    0.9766   -4.4767   -2.1137 C   0  0  0  0  0  0  0  0  0  0  0  0
    1.2945   -5.4770   -2.3724 H   0  0  0  0  0  0  0  0  0  0  0  0
   -0.2636   -3.9937   -2.5693 C   0  0  0  0  0  0  0  0  0  0  0  0
   -0.8977   -4.6218   -3.1778 H   0  0  0  0  0  0  0  0  0  0  0  0
   -0.6741   -2.6902   -2.2380 C   0  0  0  0  0  0  0  0  0  0  0  0
   -1.6270   -2.3187   -2.5919 H   0  0  0  0  0  0  0  0  0  0  0  0
   -1.1784    1.0447    0.7999 C   0  0  0  0  0  0  0  0  0  0  0  0
   -1.7071    1.8543    0.0367 O   0  0  0  0  0  0  0  0  0  0  0  0
   -0.7786    1.3778    2.0337 N   0  0  0  0  0  0  0  0  0  0  0  0
   -0.3034    0.6740    2.5779 H   0  0  0  0  0  0  0  0  0  0  0  0
   -0.9150    2.7134    2.6098 C   0  0  0  0  0  0  0  0  0  0  0  0
   -1.9484    3.0533    2.5144 H   0  0  0  0  0  0  0  0  0  0  0  0
   -0.6371    2.6994    3.6640 H   0  0  0  0  0  0  0  0  0  0  0  0
   -0.2679    3.4116    2.0755 H   0  0  0  0  0  0  0  0  0  0  0  0
  5  6  2  0  0  0  0
  5  7  1  0  0  0  0
  2  3  1  0  0  0  0
  2  4  1  0  0  0  0
  2  5  1  0  0  0  0
  1  2  1  0  0  0  0
 25 26  2  0  0  0  0
 25 27  1  0  0  0  0
 23 24  1  0  0  0  0
 21 22  1  0  0  0  0
 21 23  2  0  0  0  0
 19 20  1  0  0  0  0
 19 21  1  0  0  0  0
 17 18  1  0  0  0  0
 17 19  2  0  0  0  0
 15 16  1  0  0  0  0
 15 17  1  0  0  0  0
 14 15  2  0  0  0  0
 14 23  1  0  0  0  0
 11 12  1  0  0  0  0
 11 13  1  0  0  0  0
 11 14  1  0  0  0  0
  9 10  1  0  0  0  0
  9 11  1  0  0  0  0
  9 25  1  0  0  0  0
  7  8  1  0  0  0  0
  7  9  1  0  0  0  0
 29 30  1  0  0  0  0
 29 31  1  0  0  0  0
 29 32  1  0  0  0  0
 27 28  1  0  0  0  0
 27 29  1  0  0  0  0
M  END
$$$$
default_name
  -OEChem-01062215323D

 32 32  0     1  0  0  0  0  0999 V2000
   -3.8405   -3.7518    1.6252 H   0  0  0  0  0  0  0  0  0  0  0  0
   -3.7965   -2.8768    0.9782 C   0  0  0  0  0  0  0  0  0  0  0  0
   -4.5465   -2.1527    1.2902 H   0  0  0  0  0  0  0  0  0  0  0  0
   -3.9745   -3.1748   -0.0538 H   0  0  0  0  0  0  0  0  0  0  0  0
   -2.4245   -2.2537    1.0882 C   0  0  0  0  0  0  0  0  0  0  0  0
   -1.5805   -2.7478    1.8242 O   0  0  0  0  0  0  0  0  0  0  0  0
   -2.2045   -1.1637    0.3562 N   0  0  0  0  0  0  0  0  0  0  0  0
   -2.9595   -0.7907   -0.2008 H   0  0  0  0  0  0  0  0  0  0  0  0
   -0.9485   -0.4087    0.3482 C   0  0  1  0  0  0  0  0  0  0  0  0
   -0.2595   -0.8714    1.0566 H   0  0  0  0  0  0  0  0  0  0  0  0
   -0.3211   -0.4808   -1.0545 C   0  0  0  0  0  0  0  0  0  0  0  0
   -1.0572   -0.1534   -1.7901 H   0  0  0  0  0  0  0  0  0  0  0  0
    0.5200    0.2125   -1.1019 H   0  0  0  0  0  0  0  0  0  0  0  0
    0.1508   -1.8679   -1.4470 C   0  0  0  0  0  0  0  0  0  0  0  0
    1.3920   -2.3538   -0.9939 C   0  0  0  0  0  0  0  0  0  0  0  0
    2.0277   -1.7307   -0.3807 H   0  0  0  0  0  0  0  0  0  0  0  0
    1.8045   -3.6569   -1.3281 C   0  0  0  0  0  0  0  0  0  0  0  0
    2.7590   -4.0271   -0.9812 H   0  0  0  0  0  0  0  0  0  0  0  0
    0.9766   -4.4767   -2.1137 C   0  0  0  0  0  0  0  0  0  0  0  0
    1.2945   -5.4770   -2.3724 H   0  0  0  0  0  0  0  0  0  0  0  0
   -0.2636   -3.9937   -2.5693 C   0  0  0  0  0  0  0  0  0  0  0  0
   -0.8977   -4.6218   -3.1778 H   0  0  0  0  0  0  0  0  0  0  0  0
   -0.6741   -2.6902   -2.2380 C   0  0  0  0  0  0  0  0  0  0  0  0
   -1.6270   -2.3187   -2.5919 H   0  0  0  0  0  0  0  0  0  0  0  0
   -1.1784    1.0447    0.7999 C   0  0  0  0  0  0  0  0  0  0  0  0
   -1.9402    1.7770    0.1668 O   0  0  0  0  0  0  0  0  0  0  0  0
   -0.5191    1.4643    1.8873 N   0  0  0  0  0  0  0  0  0  0  0  0
    0.1293    0.8231    2.3182 H   0  0  0  0  0  0  0  0  0  0  0  0
   -0.6189    2.8130    2.4399 C   0  0  0  0  0  0  0  0  0  0  0  0
   -1.6685    3.0735    2.5917 H   0  0  0  0  0  0  0  0  0  0  0  0
   -0.0931    2.8695    3.3934 H   0  0  0  0  0  0  0  0  0  0  0  0
   -0.1795    3.5290    1.7428 H   0  0  0  0  0  0  0  0  0  0  0  0
  5  6  2  0  0  0  0
  5  7  1  0  0  0  0
  2  3  1  0  0  0  0
  2  4  1  0  0  0  0
  2  5  1  0  0  0  0
  1  2  1  0  0  0  0
 25 26  2  0  0  0  0
 25 27  1  0  0  0  0
 23 24  1  0  0  0  0
 21 22  1  0  0  0  0
 21 23  2  0  0  0  0
 19 20  1  0  0  0  0
 19 21  1  0  0  0  0
 17 18  1  0  0  0  0
 17 19  2  0  0  0  0
 15 16  1  0  0  0  0
 15 17  1  0  0  0  0
 14 15  2  0  0  0  0
 14 23  1  0  0  0  0
 11 12  1  0  0  0  0
 11 13  1  0  0  0  0
 11 14  1  0  0  0  0
  9 10  1  0  0  0  0
  9 11  1  0  0  0  0
  9 25  1  0  0  0  0
  7  8  1  0  0  0  0
  7  9  1  0  0  0  0
 29 30  1  0  0  0  0
 29 31  1  0  0  0  0
 29 32  1  0  0  0  0
 27 28  1  0  0  0  0
 27 29  1  0  0  0  0
M  END
$$$$
default_name
  -OEChem-01062215323D

 32 32  0     1  0  0  0  0  0999 V2000
   -3.8405   -3.7518    1.6252 H   0  0  0  0  0  0  0  0  0  0  0  0
   -3.7965   -2.8768    0.9782 C   0  0  0  0  0  0  0  0  0  0  0  0
   -4.5465   -2.1527    1.2902 H   0  0  0  0  0  0  0  0  0  0  0  0
   -3.9745   -3.1748   -0.0538 H   0  0  0  0  0  0  0  0  0  0  0  0
   -2.4245   -2.2537    1.0882 C   0  0  0  0  0  0  0  0  0  0  0  0
   -1.5805   -2.7478    1.8242 O   0  0  0  0  0  0  0  0  0  0  0  0
   -2.2045   -1.1637    0.3562 N   0  0  0  0  0  0  0  0  0  0  0  0
   -2.9595   -0.7907   -0.2008 H   0  0  0  0  0  0  0  0  0  0  0  0
   -0.9485   -0.4087    0.3482 C   0  0  1  0  0  0  0  0  0  0  0  0
   -0.2595   -0.8714    1.0566 H   0  0  0  0  0  0  0  0  0  0  0  0
   -0.3211   -0.4808   -1.0545 C   0  0  0  0  0  0  0  0  0  0  0  0
   -1.0572   -0.1534   -1.7901 H   0  0  0  0  0  0  0  0  0  0  0  0
    0.5200    0.2125   -1.1019 H   0  0  0  0  0  0  0  0  0  0  0  0
    0.1508   -1.8679   -1.4470 C   0  0  0  0  0  0  0  0  0  0  0  0
    1.3920   -2.3538   -0.9939 C   0  0  0  0  0  0  0  0  0  0  0  0
    2.0277   -1.7307   -0.3807 H   0  0  0  0  0  0  0  0  0  0  0  0
    1.8045   -3.6569   -1.3281 C   0  0  0  0  0  0  0  0  0  0  0  0
    2.7590   -4.0271   -0.9812 H   0  0  0  0  0  0  0  0  0  0  0  0
    0.9766   -4.4767   -2.1137 C   0  0  0  0  0  0  0  0  0  0  0  0
    1.2945   -5.4770   -2.3724 H   0  0  0  0  0  0  0  0  0  0  0  0
   -0.2636   -3.9937   -2.5693 C   0  0  0  0  0  0  0  0  0  0  0  0
   -0.8977   -4.6218   -3.1778 H   0  0  0  0  0  0  0  0  0  0  0  0
   -0.6741   -2.6902   -2.2380 C   0  0  0  0  0  0  0  0  0  0  0  0
   -1.6270   -2.3187   -2.5919 H   0  0  0  0  0  0  0  0  0  0  0  0
   -1.1784    1.0447    0.7999 C   0  0  0  0  0  0  0  0  0  0  0  0
   -2.1277    1.6896    0.3524 O   0  0  0  0  0  0  0  0  0  0  0  0
   -0.3108    1.5620    1.6791 N   0  0  0  0  0  0  0  0  0  0  0  0
    0.4724    0.9900    1.9559 H   0  0  0  0  0  0  0  0  0  0  0  0
   -0.3820    2.9251    2.1997 C   0  0  0  0  0  0  0  0  0  0  0  0
   -1.3808    3.1173    2.5972 H   0  0  0  0  0  0  0  0  0  0  0  0
    0.3533    3.0647    2.9925 H   0  0  0  0  0  0  0  0  0  0  0  0
   -0.1844    3.6362    1.3952 H   0  0  0  0  0  0  0  0  0  0  0  0
  5  6  2  0  0  0  0
  5  7  1  0  0  0  0
  2  3  1  0  0  0  0
  2  4  1  0  0  0  0
  2  5  1  0  0  0  0
  1  2  1  0  0  0  0
 25 26  2  0  0  0  0
 25 27  1  0  0  0  0
 23 24  1  0  0  0  0
 21 22  1  0  0  0  0
 21 23  2  0  0  0  0
 19 20  1  0  0  0  0
 19 21  1  0  0  0  0
 17 18  1  0  0  0  0
 17 19  2  0  0  0  0
 15 16  1  0  0  0  0
 15 17  1  0  0  0  0
 14 15  2  0  0  0  0
 14 23  1  0  0  0  0
 11 12  1  0  0  0  0
 11 13  1  0  0  0  0
 11 14  1  0  0  0  0
  9 10  1  0  0  0  0
  9 11  1  0  0  0  0
  9 25  1  0  0  0  0
  7  8  1  0  0  0  0
  7  9  1  0  0  0  0
 29 30  1  0  0  0  0
 29 31  1  0  0  0  0
 29 32  1  0  0  0  0
 27 28  1  0  0  0  0
 27 29  1  0  0  0  0
M  END
$$$$
default_name
  -OEChem-01062215323D

 32 32  0     1  0  0  0  0  0999 V2000
   -3.8405   -3.7518    1.6252 H   0  0  0  0  0  0  0  0  0  0  0  0
   -3.7965   -2.8768    0.9782 C   0  0  0  0  0  0  0  0  0  0  0  0
   -4.5465   -2.1527    1.2902 H   0  0  0  0  0  0  0  0  0  0  0  0
   -3.9745   -3.1748   -0.0538 H   0  0  0  0  0  0  0  0  0  0  0  0
   -2.4245   -2.2537    1.0882 C   0  0  0  0  0  0  0  0  0  0  0  0
   -1.5805   -2.7478    1.8242 O   0  0  0  0  0  0  0  0  0  0  0  0
   -2.2045   -1.1637    0.3562 N   0  0  0  0  0  0  0  0  0  0  0  0
   -2.9595   -0.7907   -0.2008 H   0  0  0  0  0  0  0  0  0  0  0  0
   -0.9485   -0.4087    0.3482 C   0  0  1  0  0  0  0  0  0  0  0  0
   -0.2595   -0.8714    1.0566 H   0  0  0  0  0  0  0  0  0  0  0  0
   -0.3211   -0.4808   -1.0545 C   0  0  0  0  0  0  0  0  0  0  0  0
   -1.0572   -0.1534   -1.7901 H   0  0  0  0  0  0  0  0  0  0  0  0
    0.5200    0.2125   -1.1019 H   0  0  0  0  0  0  0  0  0  0  0  0
    0.1508   -1.8679   -1.4470 C   0  0  0  0  0  0  0  0  0  0  0  0
    1.3920   -2.3538   -0.9939 C   0  0  0  0  0  0  0  0  0  0  0  0
    2.0277   -1.7307   -0.3807 H   0  0  0  0  0  0  0  0  0  0  0  0
    1.8045   -3.6569   -1.3281 C   0  0  0  0  0  0  0  0  0  0  0  0
    2.7590   -4.0271   -0.9812 H   0  0  0  0  0  0  0  0  0  0  0  0
    0.9766   -4.4767   -2.1137 C   0  0  0  0  0  0  0  0  0  0  0  0
    1.2945   -5.4770   -2.3724 H   0  0  0  0  0  0  0  0  0  0  0  0
   -0.2636   -3.9937   -2.5693 C   0  0  0  0  0  0  0  0  0  0  0  0
   -0.8977   -4.6218   -3.1778 H   0  0  0  0  0  0  0  0  0  0  0  0
   -0.6741   -2.6902   -2.2380 C   0  0  0  0  0  0  0  0  0  0  0  0
   -1.6270   -2.3187   -2.5919 H   0  0  0  0  0  0  0  0  0  0  0  0
   -1.1784    1.0447    0.7999 C   0  0  0  0  0  0  0  0  0  0  0  0
   -2.2569    1.5982    0.5810 O   0  0  0  0  0  0  0  0  0  0  0  0
   -0.1679    1.6641    1.4233 N   0  0  0  0  0  0  0  0  0  0  0  0
    0.7026    1.1632    1.5156 H   0  0  0  0  0  0  0  0  0  0  0  0
   -0.2204    3.0421    1.9054 C   0  0  0  0  0  0  0  0  0  0  0  0
   -1.1049    3.1817    2.5305 H   0  0  0  0  0  0  0  0  0  0  0  0
    0.6718    3.2717    2.4886 H   0  0  0  0  0  0  0  0  0  0  0  0
   -0.2822    3.7260    1.0566 H   0  0  0  0  0  0  0  0  0  0  0  0
  5  6  2  0  0  0  0
  5  7  1  0  0  0  0
  2  3  1  0  0  0  0
  2  4  1  0  0  0  0
  2  5  1  0  0  0  0
  1  2  1  0  0  0  0
 25 26  2  0  0  0  0
 25 27  1  0  0  0  0
 23 24  1  0  0  0  0
 21 22  1  0  0  0  0
 21 23  2  0  0  0  0
 19 20  1  0  0  0  0
 19 21  1  0  0  0  0
 17 18  1  0  0  0  0
 17 19  2  0  0  0  0
 15 16  1  0  0  0  0
 15 17  1  0  0  0  0
 14 15  2  0  0  0  0
 14 23  1  0  0  0  0
 11 12  1  0  0  0  0
 11 13  1  0  0  0  0
 11 14  1  0  0  0  0
  9 10  1  0  0  0  0
  9 11  1  0  0  0  0
  9 25  1  0  0  0  0
  7  8  1  0  0  0  0
  7  9  1  0  0  0  0
 29 30  1  0  0  0  0
 29 31  1  0  0  0  0
 29 32  1  0  0  0  0
 27 28  1  0  0  0  0
 27 29  1  0  0  0  0
M  END
$$$$
default_name
  -OEChem-01062215323D

 32 32  0     1  0  0  0  0  0999 V2000
   -3.8405   -3.7518    1.6252 H   0  0  0  0  0  0  0  0  0  0  0  0
   -3.7965   -2.8768    0.9782 C   0  0  0  0  0  0  0  0  0  0  0  0
   -4.5465   -2.1527    1.2902 H   0  0  0  0  0  0  0  0  0  0  0  0
   -3.9745   -3.1748   -0.0538 H   0  0  0  0  0  0  0  0  0  0  0  0
   -2.4245   -2.2537    1.0882 C   0  0  0  0  0  0  0  0  0  0  0  0
   -1.5805   -2.7478    1.8242 O   0  0  0  0  0  0  0  0  0  0  0  0
   -2.2045   -1.1637    0.3562 N   0  0  0  0  0  0  0  0  0  0  0  0
   -2.9595   -0.7907   -0.2008 H   0  0  0  0  0  0  0  0  0  0  0  0
   -0.9485   -0.4087    0.3482 C   0  0  1  0  0  0  0  0  0  0  0  0
   -0.2595   -0.8714    1.0566 H   0  0  0  0  0  0  0  0  0  0  0  0
   -0.3211   -0.4808   -1.0545 C   0  0  0  0  0  0  0  0  0  0  0  0
   -1.0572   -0.1534   -1.7901 H   0  0  0  0  0  0  0  0  0  0  0  0
    0.5200    0.2125   -1.1019 H   0  0  0  0  0  0  0  0  0  0  0  0
    0.1508   -1.8679   -1.4470 C   0  0  0  0  0  0  0  0  0  0  0  0
    1.3920   -2.3538   -0.9939 C   0  0  0  0  0  0  0  0  0  0  0  0
    2.0277   -1.7307   -0.3807 H   0  0  0  0  0  0  0  0  0  0  0  0
    1.8045   -3.6569   -1.3281 C   0  0  0  0  0  0  0  0  0  0  0  0
    2.7590   -4.0271   -0.9812 H   0  0  0  0  0  0  0  0  0  0  0  0
    0.9766   -4.4767   -2.1137 C   0  0  0  0  0  0  0  0  0  0  0  0
    1.2945   -5.4770   -2.3724 H   0  0  0  0  0  0  0  0  0  0  0  0
   -0.2636   -3.9937   -2.5693 C   0  0  0  0  0  0  0  0  0  0  0  0
   -0.8977   -4.6218   -3.1778 H   0  0  0  0  0  0  0  0  0  0  0  0
   -0.6741   -2.6902   -2.2380 C   0  0  0  0  0  0  0  0  0  0  0  0
   -1.6270   -2.3187   -2.5919 H   0  0  0  0  0  0  0  0  0  0  0  0
   -1.1784    1.0447    0.7999 C   0  0  0  0  0  0  0  0  0  0  0  0
   -2.3188    1.5089    0.8368 O   0  0  0  0  0  0  0  0  0  0  0  0
   -0.1002    1.7636    1.1373 N   0  0  0  0  0  0  0  0  0  0  0  0
    0.8043    1.3310    1.0274 H   0  0  0  0  0  0  0  0  0  0  0  0
   -0.1451    3.1561    1.5771 C   0  0  0  0  0  0  0  0  0  0  0  0
   -0.8596    3.2622    2.3961 H   0  0  0  0  0  0  0  0  0  0  0  0
    0.8404    3.4763    1.9161 H   0  0  0  0  0  0  0  0  0  0  0  0
   -0.4662    3.7922    0.7500 H   0  0  0  0  0  0  0  0  0  0  0  0
  5  6  2  0  0  0  0
  5  7  1  0  0  0  0
  2  3  1  0  0  0  0
  2  4  1  0  0  0  0
  2  5  1  0  0  0  0
  1  2  1  0  0  0  0
 25 26  2  0  0  0  0
 25 27  1  0  0  0  0
 23 24  1  0  0  0  0
 21 22  1  0  0  0  0
 21 23  2  0  0  0  0
 19 20  1  0  0  0  0
 19 21  1  0  0  0  0
 17 18  1  0  0  0  0
 17 19  2  0  0  0  0
 15 16  1  0  0  0  0
 15 17  1  0  0  0  0
 14 15  2  0  0  0  0
 14 23  1  0  0  0  0
 11 12  1  0  0  0  0
 11 13  1  0  0  0  0
 11 14  1  0  0  0  0
  9 10  1  0  0  0  0
  9 11  1  0  0  0  0
  9 25  1  0  0  0  0
  7  8  1  0  0  0  0
  7  9  1  0  0  0  0
 29 30  1  0  0  0  0
 29 31  1  0  0  0  0
 29 32  1  0  0  0  0
 27 28  1  0  0  0  0
 27 29  1  0  0  0  0
M  END
$$$$
default_name
  -OEChem-01062215323D

 32 32  0     1  0  0  0  0  0999 V2000
   -3.8405   -3.7518    1.6252 H   0  0  0  0  0  0  0  0  0  0  0  0
   -3.7965   -2.8768    0.9782 C   0  0  0  0  0  0  0  0  0  0  0  0
   -4.5465   -2.1527    1.2902 H   0  0  0  0  0  0  0  0  0  0  0  0
   -3.9745   -3.1748   -0.0538 H   0  0  0  0  0  0  0  0  0  0  0  0
   -2.4245   -2.2537    1.0882 C   0  0  0  0  0  0  0  0  0  0  0  0
   -1.5805   -2.7478    1.8242 O   0  0  0  0  0  0  0  0  0  0  0  0
   -2.2045   -1.1637    0.3562 N   0  0  0  0  0  0  0  0  0  0  0  0
   -2.9595   -0.7907   -0.2008 H   0  0  0  0  0  0  0  0  0  0  0  0
   -0.9485   -0.4087    0.3482 C   0  0  1  0  0  0  0  0  0  0  0  0
   -0.1790   -1.0076    0.8379 H   0  0  0  0  0  0  0  0  0  0  0  0
   -0.5148   -0.1592   -1.1064 C   0  0  0  0  0  0  0  0  0  0  0  0
   -1.3368    0.3132   -1.6461 H   0  0  0  0  0  0  0  0  0  0  0  0
    0.3238    0.5388   -1.1108 H   0  0  0  0  0  0  0  0  0  0  0  0
   -0.1222   -1.4180   -1.8561 C   0  0  0  0  0  0  0  0  0  0  0  0
    1.1601   -1.9754   -1.6919 C   0  0  0  0  0  0  0  0  0  0  0  0
    1.8819   -1.4953   -1.0463 H   0  0  0  0  0  0  0  0  0  0  0  0
    1.5028   -3.1661   -2.3587 C   0  0  0  0  0  0  0  0  0  0  0  0
    2.4889   -3.5910   -2.2332 H   0  0  0  0  0  0  0  0  0  0  0  0
    0.5643   -3.8023   -3.1888 C   0  0  0  0  0  0  0  0  0  0  0  0
    0.8285   -4.7158   -3.7029 H   0  0  0  0  0  0  0  0  0  0  0  0
   -0.7174   -3.2472   -3.3562 C   0  0  0  0  0  0  0  0  0  0  0  0
   -1.4371   -3.7331   -3.9986 H   0  0  0  0  0  0  0  0  0  0  0  0
   -1.0586   -2.0555   -2.6923 C   0  0  0  0  0  0  0  0  0  0  0  0
   -2.0438   -1.6276   -2.8247 H   0  0  0  0  0  0  0  0  0  0  0  0
   -1.0922    0.9049    1.1375 C   0  0  0  0  0  0  0  0  0  0  0  0
   -2.1663    1.1959    1.6657 O   0  0  0  0  0  0  0  0  0  0  0  0
   -0.0170    1.6994    1.2140 N   0  0  0  0  0  0  0  0  0  0  0  0
    0.8094    1.4189    0.7082 H   0  0  0  0  0  0  0  0  0  0  0  0
    0.0103    2.9808    1.9150 C   0  0  0  0  0  0  0  0  0  0  0  0
   -0.3552    2.8515    2.9359 H   0  0  0  0  0  0  0  0  0  0  0  0
    1.0273    3.3729    1.9443 H   0  0  0  0  0  0  0  0  0  0  0  0
   -0.6365    3.6944    1.4011 H   0  0  0  0  0  0  0  0  0  0  0  0
  5  6  2  0  0  0  0
  5  7  1  0  0  0  0
  2  3  1  0  0  0  0
  2  4  1  0  0  0  0
  2  5  1  0  0  0  0
  1  2  1  0  0  0  0
 25 26  2  0  0  0  0
 25 27  1  0  0  0  0
 23 24  1  0  0  0  0
 21 22  1  0  0  0  0
 21 23  2  0  0  0  0
 19 20  1  0  0  0  0
 19 21  1  0  0  0  0
 17 18  1  0  0  0  0
 17 19  2  0  0  0  0
 15 16  1  0  0  0  0
 15 17  1  0  0  0  0
 14 15  2  0  0  0  0
 14 23  1  0  0  0  0
 11 12  1  0  0  0  0
 11 13  1  0  0  0  0
 11 14  1  0  0  0  0
  9 10  1  0  0  0  0
  9 11  1  0  0  0  0
  9 25  1  0  0  0  0
  7  8  1  0  0  0  0
  7  9  1  0  0  0  0
 29 30  1  0  0  0  0
 29 31  1  0  0  0  0
 29 32  1  0  0  0  0
 27 28  1  0  0  0  0
 27 29  1  0  0  0  0
M  END
$$$$
default_name
  -OEChem-01062215323D

 32 32  0     1  0  0  0  0  0999 V2000
   -3.8405   -3.7518    1.6252 H   0  0  0  0  0  0  0  0  0  0  0  0
   -3.7965   -2.8768    0.9782 C   0  0  0  0  0  0  0  0  0  0  0  0
   -4.5465   -2.1527    1.2902 H   0  0  0  0  0  0  0  0  0  0  0  0
   -3.9745   -3.1748   -0.0538 H   0  0  0  0  0  0  0  0  0  0  0  0
   -2.4245   -2.2537    1.0882 C   0  0  0  0  0  0  0  0  0  0  0  0
   -1.5805   -2.7478    1.8242 O   0  0  0  0  0  0  0  0  0  0  0  0
   -2.2045   -1.1637    0.3562 N   0  0  0  0  0  0  0  0  0  0  0  0
   -2.9595   -0.7907   -0.2008 H   0  0  0  0  0  0  0  0  0  0  0  0
   -0.9485   -0.4087    0.3482 C   0  0  1  0  0  0  0  0  0  0  0  0
   -0.1790   -1.0076    0.8379 H   0  0  0  0  0  0  0  0  0  0  0  0
   -0.5148   -0.1592   -1.1064 C   0  0  0  0  0  0  0  0  0  0  0  0
   -1.3368    0.3132   -1.6461 H   0  0  0  0  0  0  0  0  0  0  0  0
    0.3238    0.5388   -1.1108 H   0  0  0  0  0  0  0  0  0  0  0  0
   -0.1222   -1.4180   -1.8561 C   0  0  0  0  0  0  0  0  0  0  0  0
    1.1601   -1.9754   -1.6919 C   0  0  0  0  0  0  0  0  0  0  0  0
    1.8819   -1.4953   -1.0463 H   0  0  0  0  0  0  0  0  0  0  0  0
    1.5028   -3.1661   -2.3587 C   0  0  0  0  0  0  0  0  0  0  0  0
    2.4889   -3.5910   -2.2332 H   0  0  0  0  0  0  0  0  0  0  0  0
    0.5643   -3.8023   -3.1888 C   0  0  0  0  0  0  0  0  0  0  0  0
    0.8285   -4.7158   -3.7029 H   0  0  0  0  0  0  0  0  0  0  0  0
   -0.7174   -3.2472   -3.3562 C   0  0  0  0  0  0  0  0  0  0  0  0
   -1.4371   -3.7331   -3.9986 H   0  0  0  0  0  0  0  0  0  0  0  0
   -1.0586   -2.0555   -2.6923 C   0  0  0  0  0  0  0  0  0  0  0  0
   -2.0438   -1.6276   -2.8247 H   0  0  0  0  0  0  0  0  0  0  0  0
   -1.0922    0.9049    1.1375 C   0  0  0  0  0  0  0  0  0  0  0  0
   -2.0536    1.0742    1.8888 O   0  0  0  0  0  0  0  0  0  0  0  0
   -0.1441    1.8348    0.9655 N   0  0  0  0  0  0  0  0  0  0  0  0
    0.5814    1.6446    0.2911 H   0  0  0  0  0  0  0  0  0  0  0  0
   -0.1375    3.1353    1.6310 C   0  0  0  0  0  0  0  0  0  0  0  0
   -0.2494    2.9996    2.7088 H   0  0  0  0  0  0  0  0  0  0  0  0
    0.7984    3.6571    1.4296 H   0  0  0  0  0  0  0  0  0  0  0  0
   -0.9719    3.7382    1.2673 H   0  0  0  0  0  0  0  0  0  0  0  0
  5  6  2  0  0  0  0
  5  7  1  0  0  0  0
  2  3  1  0  0  0  0
  2  4  1  0  0  0  0
  2  5  1  0  0  0  0
  1  2  1  0  0  0  0
 25 26  2  0  0  0  0
 25 27  1  0  0  0  0
 23 24  1  0  0  0  0
 21 22  1  0  0  0  0
 21 23  2  0  0  0  0
 19 20  1  0  0  0  0
 19 21  1  0  0  0  0
 17 18  1  0  0  0  0
 17 19  2  0  0  0  0
 15 16  1  0  0  0  0
 15 17  1  0  0  0  0
 14 15  2  0  0  0  0
 14 23  1  0  0  0  0
 11 12  1  0  0  0  0
 11 13  1  0  0  0  0
 11 14  1  0  0  0  0
  9 10  1  0  0  0  0
  9 11  1  0  0  0  0
  9 25  1  0  0  0  0
  7  8  1  0  0  0  0
  7  9  1  0  0  0  0
 29 30  1  0  0  0  0
 29 31  1  0  0  0  0
 29 32  1  0  0  0  0
 27 28  1  0  0  0  0
 27 29  1  0  0  0  0
M  END
$$$$
default_name
  -OEChem-01062215323D

 32 32  0     1  0  0  0  0  0999 V2000
   -3.8405   -3.7518    1.6252 H   0  0  0  0  0  0  0  0  0  0  0  0
   -3.7965   -2.8768    0.9782 C   0  0  0  0  0  0  0  0  0  0  0  0
   -4.5465   -2.1527    1.2902 H   0  0  0  0  0  0  0  0  0  0  0  0
   -3.9745   -3.1748   -0.0538 H   0  0  0  0  0  0  0  0  0  0  0  0
   -2.4245   -2.2537    1.0882 C   0  0  0  0  0  0  0  0  0  0  0  0
   -1.5805   -2.7478    1.8242 O   0  0  0  0  0  0  0  0  0  0  0  0
   -2.2045   -1.1637    0.3562 N   0  0  0  0  0  0  0  0  0  0  0  0
   -2.9595   -0.7907   -0.2008 H   0  0  0  0  0  0  0  0  0  0  0  0
   -0.9485   -0.4087    0.3482 C   0  0  1  0  0  0  0  0  0  0  0  0
   -0.1790   -1.0076    0.8379 H   0  0  0  0  0  0  0  0  0  0  0  0
   -0.5148   -0.1592   -1.1064 C   0  0  0  0  0  0  0  0  0  0  0  0
   -1.3368    0.3132   -1.6461 H   0  0  0  0  0  0  0  0  0  0  0  0
    0.3238    0.5388   -1.1108 H   0  0  0  0  0  0  0  0  0  0  0  0
   -0.1222   -1.4180   -1.8561 C   0  0  0  0  0  0  0  0  0  0  0  0
    1.1601   -1.9754   -1.6919 C   0  0  0  0  0  0  0  0  0  0  0  0
    1.8819   -1.4953   -1.0463 H   0  0  0  0  0  0  0  0  0  0  0  0
    1.5028   -3.1661   -2.3587 C   0  0  0  0  0  0  0  0  0  0  0  0
    2.4889   -3.5910   -2.2332 H   0  0  0  0  0  0  0  0  0  0  0  0
    0.5643   -3.8023   -3.1888 C   0  0  0  0  0  0  0  0  0  0  0  0
    0.8285   -4.7158   -3.7029 H   0  0  0  0  0  0  0  0  0  0  0  0
   -0.7174   -3.2472   -3.3562 C   0  0  0  0  0  0  0  0  0  0  0  0
   -1.4371   -3.7331   -3.9986 H   0  0  0  0  0  0  0  0  0  0  0  0
   -1.0586   -2.0555   -2.6923 C   0  0  0  0  0  0  0  0  0  0  0  0
   -2.0438   -1.6276   -2.8247 H   0  0  0  0  0  0  0  0  0  0  0  0
   -1.0922    0.9049    1.1375 C   0  0  0  0  0  0  0  0  0  0  0  0
   -1.8793    0.9770    2.0823 O   0  0  0  0  0  0  0  0  0  0  0  0
   -0.3397    1.9427    0.7502 N   0  0  0  0  0  0  0  0  0  0  0  0
    0.2391    1.8223   -0.0669 H   0  0  0  0  0  0  0  0  0  0  0  0
   -0.3636    3.2580    1.3855 C   0  0  0  0  0  0  0  0  0  0  0  0
   -0.2170    3.1512    2.4624 H   0  0  0  0  0  0  0  0  0  0  0  0
    0.4259    3.8888    0.9761 H   0  0  0  0  0  0  0  0  0  0  0  0
   -1.3312    3.7327    1.2110 H   0  0  0  0  0  0  0  0  0  0  0  0
  5  6  2  0  0  0  0
  5  7  1  0  0  0  0
  2  3  1  0  0  0  0
  2  4  1  0  0  0  0
  2  5  1  0  0  0  0
  1  2  1  0  0  0  0
 25 26  2  0  0  0  0
 25 27  1  0  0  0  0
 23 24  1  0  0  0  0
 21 22  1  0  0  0  0
 21 23  2  0  0  0  0
 19 20  1  0  0  0  0
 19 21  1  0  0  0  0
 17 18  1  0  0  0  0
 17 19  2  0  0  0  0
 15 16  1  0  0  0  0
 15 17  1  0  0  0  0
 14 15  2  0  0  0  0
 14 23  1  0  0  0  0
 11 12  1  0  0  0  0
 11 13  1  0  0  0  0
 11 14  1  0  0  0  0
  9 10  1  0  0  0  0
  9 11  1  0  0  0  0
  9 25  1  0  0  0  0
  7  8  1  0  0  0  0
  7  9  1  0  0  0  0
 29 30  1  0  0  0  0
 29 31  1  0  0  0  0
 29 32  1  0  0  0  0
 27 28  1  0  0  0  0
 27 29  1  0  0  0  0
M  END
$$$$
default_name
  -OEChem-01062215323D

 32 32  0     1  0  0  0  0  0999 V2000
   -3.8405   -3.7518    1.6252 H   0  0  0  0  0  0  0  0  0  0  0  0
   -3.7965   -2.8768    0.9782 C   0  0  0  0  0  0  0  0  0  0  0  0
   -4.5465   -2.1527    1.2902 H   0  0  0  0  0  0  0  0  0  0  0  0
   -3.9745   -3.1748   -0.0538 H   0  0  0  0  0  0  0  0  0  0  0  0
   -2.4245   -2.2537    1.0882 C   0  0  0  0  0  0  0  0  0  0  0  0
   -1.5805   -2.7478    1.8242 O   0  0  0  0  0  0  0  0  0  0  0  0
   -2.2045   -1.1637    0.3562 N   0  0  0  0  0  0  0  0  0  0  0  0
   -2.9595   -0.7907   -0.2008 H   0  0  0  0  0  0  0  0  0  0  0  0
   -0.9485   -0.4087    0.3482 C   0  0  1  0  0  0  0  0  0  0  0  0
   -0.1790   -1.0076    0.8379 H   0  0  0  0  0  0  0  0  0  0  0  0
   -0.5148   -0.1592   -1.1064 C   0  0  0  0  0  0  0  0  0  0  0  0
   -1.3368    0.3132   -1.6461 H   0  0  0  0  0  0  0  0  0  0  0  0
    0.3238    0.5388   -1.1108 H   0  0  0  0  0  0  0  0  0  0  0  0
   -0.1222   -1.4180   -1.8561 C   0  0  0  0  0  0  0  0  0  0  0  0
    1.1601   -1.9754   -1.6919 C   0  0  0  0  0  0  0  0  0  0  0  0
    1.8819   -1.4953   -1.0463 H   0  0  0  0  0  0  0  0  0  0  0  0
    1.5028   -3.1661   -2.3587 C   0  0  0  0  0  0  0  0  0  0  0  0
    2.4889   -3.5910   -2.2332 H   0  0  0  0  0  0  0  0  0  0  0  0
    0.5643   -3.8023   -3.1888 C   0  0  0  0  0  0  0  0  0  0  0  0
    0.8285   -4.7158   -3.7029 H   0  0  0  0  0  0  0  0  0  0  0  0
   -0.7174   -3.2472   -3.3562 C   0  0  0  0  0  0  0  0  0  0  0  0
   -1.4371   -3.7331   -3.9986 H   0  0  0  0  0  0  0  0  0  0  0  0
   -1.0586   -2.0555   -2.6923 C   0  0  0  0  0  0  0  0  0  0  0  0
   -2.0438   -1.6276   -2.8247 H   0  0  0  0  0  0  0  0  0  0  0  0
   -1.0922    0.9049    1.1375 C   0  0  0  0  0  0  0  0  0  0  0  0
   -1.6554    0.9109    2.2330 O   0  0  0  0  0  0  0  0  0  0  0  0
   -0.5906    2.0158    0.5829 N   0  0  0  0  0  0  0  0  0  0  0  0
   -0.1941    1.9398   -0.3414 H   0  0  0  0  0  0  0  0  0  0  0  0
   -0.6525    3.3407    1.1954 C   0  0  0  0  0  0  0  0  0  0  0  0
   -0.2603    3.2959    2.2136 H   0  0  0  0  0  0  0  0  0  0  0  0
   -0.0648    4.0522    0.6148 H   0  0  0  0  0  0  0  0  0  0  0  0
   -1.6899    3.6783    1.2362 H   0  0  0  0  0  0  0  0  0  0  0  0
  5  6  2  0  0  0  0
  5  7  1  0  0  0  0
  2  3  1  0  0  0  0
  2  4  1  0  0  0  0
  2  5  1  0  0  0  0
  1  2  1  0  0  0  0
 25 26  2  0  0  0  0
 25 27  1  0  0  0  0
 23 24  1  0  0  0  0
 21 22  1  0  0  0  0
 21 23  2  0  0  0  0
 19 20  1  0  0  0  0
 19 21  1  0  0  0  0
 17 18  1  0  0  0  0
 17 19  2  0  0  0  0
 15 16  1  0  0  0  0
 15 17  1  0  0  0  0
 14 15  2  0  0  0  0
 14 23  1  0  0  0  0
 11 12  1  0  0  0  0
 11 13  1  0  0  0  0
 11 14  1  0  0  0  0
  9 10  1  0  0  0  0
  9 11  1  0  0  0  0
  9 25  1  0  0  0  0
  7  8  1  0  0  0  0
  7  9  1  0  0  0  0
 29 30  1  0  0  0  0
 29 31  1  0  0  0  0
 29 32  1  0  0  0  0
 27 28  1  0  0  0  0
 27 29  1  0  0  0  0
M  END
$$$$
default_name
  -OEChem-01062215323D

 32 32  0     1  0  0  0  0  0999 V2000
   -3.8405   -3.7518    1.6252 H   0  0  0  0  0  0  0  0  0  0  0  0
   -3.7965   -2.8768    0.9782 C   0  0  0  0  0  0  0  0  0  0  0  0
   -4.5465   -2.1527    1.2902 H   0  0  0  0  0  0  0  0  0  0  0  0
   -3.9745   -3.1748   -0.0538 H   0  0  0  0  0  0  0  0  0  0  0  0
   -2.4245   -2.2537    1.0882 C   0  0  0  0  0  0  0  0  0  0  0  0
   -1.5805   -2.7478    1.8242 O   0  0  0  0  0  0  0  0  0  0  0  0
   -2.2045   -1.1637    0.3562 N   0  0  0  0  0  0  0  0  0  0  0  0
   -2.9595   -0.7907   -0.2008 H   0  0  0  0  0  0  0  0  0  0  0  0
   -0.9485   -0.4087    0.3482 C   0  0  1  0  0  0  0  0  0  0  0  0
   -0.1790   -1.0076    0.8379 H   0  0  0  0  0  0  0  0  0  0  0  0
   -0.5148   -0.1592   -1.1064 C   0  0  0  0  0  0  0  0  0  0  0  0
   -1.3368    0.3132   -1.6461 H   0  0  0  0  0  0  0  0  0  0  0  0
    0.3238    0.5388   -1.1108 H   0  0  0  0  0  0  0  0  0  0  0  0
   -0.1222   -1.4180   -1.8561 C   0  0  0  0  0  0  0  0  0  0  0  0
    1.1601   -1.9754   -1.6919 C   0  0  0  0  0  0  0  0  0  0  0  0
    1.8819   -1.4953   -1.0463 H   0  0  0  0  0  0  0  0  0  0  0  0
    1.5028   -3.1661   -2.3587 C   0  0  0  0  0  0  0  0  0  0  0  0
    2.4889   -3.5910   -2.2332 H   0  0  0  0  0  0  0  0  0  0  0  0
    0.5643   -3.8023   -3.1888 C   0  0  0  0  0  0  0  0  0  0  0  0
    0.8285   -4.7158   -3.7029 H   0  0  0  0  0  0  0  0  0  0  0  0
   -0.7174   -3.2472   -3.3562 C   0  0  0  0  0  0  0  0  0  0  0  0
   -1.4371   -3.7331   -3.9986 H   0  0  0  0  0  0  0  0  0  0  0  0
   -1.0586   -2.0555   -2.6923 C   0  0  0  0  0  0  0  0  0  0  0  0
   -2.0438   -1.6276   -2.8247 H   0  0  0  0  0  0  0  0  0  0  0  0
   -1.0922    0.9049    1.1375 C   0  0  0  0  0  0  0  0  0  0  0  0
   -1.3969    0.8804    2.3308 O   0  0  0  0  0  0  0  0  0  0  0  0
   -0.8796    2.0490    0.4749 N   0  0  0  0  0  0  0  0  0  0  0  0
   -0.6889    1.9892   -0.5137 H   0  0  0  0  0  0  0  0  0  0  0  0
   -0.9845    3.3775    1.0736 C   0  0  0  0  0  0  0  0  0  0  0  0
   -0.3762    3.4240    1.9793 H   0  0  0  0  0  0  0  0  0  0  0  0
   -0.6403    4.1362    0.3702 H   0  0  0  0  0  0  0  0  0  0  0  0
   -2.0237    3.5788    1.3411 H   0  0  0  0  0  0  0  0  0  0  0  0
  5  6  2  0  0  0  0
  5  7  1  0  0  0  0
  2  3  1  0  0  0  0
  2  4  1  0  0  0  0
  2  5  1  0  0  0  0
  1  2  1  0  0  0  0
 25 26  2  0  0  0  0
 25 27  1  0  0  0  0
 23 24  1  0  0  0  0
 21 22  1  0  0  0  0
 21 23  2  0  0  0  0
 19 20  1  0  0  0  0
 19 21  1  0  0  0  0
 17 18  1  0  0  0  0
 17 19  2  0  0  0  0
 15 16  1  0  0  0  0
 15 17  1  0  0  0  0
 14 15  2  0  0  0  0
 14 23  1  0  0  0  0
 11 12  1  0  0  0  0
 11 13  1  0  0  0  0
 11 14  1  0  0  0  0
  9 10  1  0  0  0  0
  9 11  1  0  0  0  0
  9 25  1  0  0  0  0
  7  8  1  0  0  0  0
  7  9  1  0  0  0  0
 29 30  1  0  0  0  0
 29 31  1  0  0  0  0
 29 32  1  0  0  0  0
 27 28  1  0  0  0  0
 27 29  1  0  0  0  0
M  END
$$$$
default_name
  -OEChem-01062215323D

 32 32  0     1  0  0  0  0  0999 V2000
   -3.8405   -3.7518    1.6252 H   0  0  0  0  0  0  0  0  0  0  0  0
   -3.7965   -2.8768    0.9782 C   0  0  0  0  0  0  0  0  0  0  0  0
   -4.5465   -2.1527    1.2902 H   0  0  0  0  0  0  0  0  0  0  0  0
   -3.9745   -3.1748   -0.0538 H   0  0  0  0  0  0  0  0  0  0  0  0
   -2.4245   -2.2537    1.0882 C   0  0  0  0  0  0  0  0  0  0  0  0
   -1.5805   -2.7478    1.8242 O   0  0  0  0  0  0  0  0  0  0  0  0
   -2.2045   -1.1637    0.3562 N   0  0  0  0  0  0  0  0  0  0  0  0
   -2.9595   -0.7907   -0.2008 H   0  0  0  0  0  0  0  0  0  0  0  0
   -0.9485   -0.4087    0.3482 C   0  0  1  0  0  0  0  0  0  0  0  0
   -0.1790   -1.0076    0.8379 H   0  0  0  0  0  0  0  0  0  0  0  0
   -0.5148   -0.1592   -1.1064 C   0  0  0  0  0  0  0  0  0  0  0  0
   -1.3368    0.3132   -1.6461 H   0  0  0  0  0  0  0  0  0  0  0  0
    0.3238    0.5388   -1.1108 H   0  0  0  0  0  0  0  0  0  0  0  0
   -0.1222   -1.4180   -1.8561 C   0  0  0  0  0  0  0  0  0  0  0  0
    1.1601   -1.9754   -1.6919 C   0  0  0  0  0  0  0  0  0  0  0  0
    1.8819   -1.4953   -1.0463 H   0  0  0  0  0  0  0  0  0  0  0  0
    1.5028   -3.1661   -2.3587 C   0  0  0  0  0  0  0  0  0  0  0  0
    2.4889   -3.5910   -2.2332 H   0  0  0  0  0  0  0  0  0  0  0  0
    0.5643   -3.8023   -3.1888 C   0  0  0  0  0  0  0  0  0  0  0  0
    0.8285   -4.7158   -3.7029 H   0  0  0  0  0  0  0  0  0  0  0  0
   -0.7174   -3.2472   -3.3562 C   0  0  0  0  0  0  0  0  0  0  0  0
   -1.4371   -3.7331   -3.9986 H   0  0  0  0  0  0  0  0  0  0  0  0
   -1.0586   -2.0555   -2.6923 C   0  0  0  0  0  0  0  0  0  0  0  0
   -2.0438   -1.6276   -2.8247 H   0  0  0  0  0  0  0  0  0  0  0  0
   -1.0922    0.9049    1.1375 C   0  0  0  0  0  0  0  0  0  0  0  0
   -1.1217    0.8877    2.3688 O   0  0  0  0  0  0  0  0  0  0  0  0
   -1.1870    2.0402    0.4337 N   0  0  0  0  0  0  0  0  0  0  0  0
   -1.2113    1.9670   -0.5720 H   0  0  0  0  0  0  0  0  0  0  0  0
   -1.3370    3.3662    1.0284 C   0  0  0  0  0  0  0  0  0  0  0  0
   -0.5570    3.5266    1.7756 H   0  0  0  0  0  0  0  0  0  0  0  0
   -1.2614    4.1351    0.2590 H   0  0  0  0  0  0  0  0  0  0  0  0
   -2.3096    3.4409    1.5185 H   0  0  0  0  0  0  0  0  0  0  0  0
  5  6  2  0  0  0  0
  5  7  1  0  0  0  0
  2  3  1  0  0  0  0
  2  4  1  0  0  0  0
  2  5  1  0  0  0  0
  1  2  1  0  0  0  0
 25 26  2  0  0  0  0
 25 27  1  0  0  0  0
 23 24  1  0  0  0  0
 21 22  1  0  0  0  0
 21 23  2  0  0  0  0
 19 20  1  0  0  0  0
 19 21  1  0  0  0  0
 17 18  1  0  0  0  0
 17 19  2  0  0  0  0
 15 16  1  0  0  0  0
 15 17  1  0  0  0  0
 14 15  2  0  0  0  0
 14 23  1  0  0  0  0
 11 12  1  0  0  0  0
 11 13  1  0  0  0  0
 11 14  1  0  0  0  0
  9 10  1  0  0  0  0
  9 11  1  0  0  0  0
  9 25  1  0  0  0  0
  7  8  1  0  0  0  0
  7  9  1  0  0  0  0
 29 30  1  0  0  0  0
 29 31  1  0  0  0  0
 29 32  1  0  0  0  0
 27 28  1  0  0  0  0
 27 29  1  0  0  0  0
M  END
$$$$
default_name
  -OEChem-01062215323D

 32 32  0     1  0  0  0  0  0999 V2000
   -3.8405   -3.7518    1.6252 H   0  0  0  0  0  0  0  0  0  0  0  0
   -3.7965   -2.8768    0.9782 C   0  0  0  0  0  0  0  0  0  0  0  0
   -4.5465   -2.1527    1.2902 H   0  0  0  0  0  0  0  0  0  0  0  0
   -3.9745   -3.1748   -0.0538 H   0  0  0  0  0  0  0  0  0  0  0  0
   -2.4245   -2.2537    1.0882 C   0  0  0  0  0  0  0  0  0  0  0  0
   -1.5805   -2.7478    1.8242 O   0  0  0  0  0  0  0  0  0  0  0  0
   -2.2045   -1.1637    0.3562 N   0  0  0  0  0  0  0  0  0  0  0  0
   -2.9595   -0.7907   -0.2008 H   0  0  0  0  0  0  0  0  0  0  0  0
   -0.9485   -0.4087    0.3482 C   0  0  1  0  0  0  0  0  0  0  0  0
   -0.1790   -1.0076    0.8379 H   0  0  0  0  0  0  0  0  0  0  0  0
   -0.5148   -0.1592   -1.1064 C   0  0  0  0  0  0  0  0  0  0  0  0
   -1.3368    0.3132   -1.6461 H   0  0  0  0  0  0  0  0  0  0  0  0
    0.3238    0.5388   -1.1108 H   0  0  0  0  0  0  0  0  0  0  0  0
   -0.1222   -1.4180   -1.8561 C   0  0  0  0  0  0  0  0  0  0  0  0
    1.1601   -1.9754   -1.6919 C   0  0  0  0  0  0  0  0  0  0  0  0
    1.8819   -1.4953   -1.0463 H   0  0  0  0  0  0  0  0  0  0  0  0
    1.5028   -3.1661   -2.3587 C   0  0  0  0  0  0  0  0  0  0  0  0
    2.4889   -3.5910   -2.2332 H   0  0  0  0  0  0  0  0  0  0  0  0
    0.5643   -3.8023   -3.1888 C   0  0  0  0  0  0  0  0  0  0  0  0
    0.8285   -4.7158   -3.7029 H   0  0  0  0  0  0  0  0  0  0  0  0
   -0.7174   -3.2472   -3.3562 C   0  0  0  0  0  0  0  0  0  0  0  0
   -1.4371   -3.7331   -3.9986 H   0  0  0  0  0  0  0  0  0  0  0  0
   -1.0586   -2.0555   -2.6923 C   0  0  0  0  0  0  0  0  0  0  0  0
   -2.0438   -1.6276   -2.8247 H   0  0  0  0  0  0  0  0  0  0  0  0
   -1.0922    0.9049    1.1375 C   0  0  0  0  0  0  0  0  0  0  0  0
   -0.8484    0.9321    2.3446 O   0  0  0  0  0  0  0  0  0  0  0  0
   -1.4918    1.9899    0.4620 N   0  0  0  0  0  0  0  0  0  0  0  0
   -1.7259    1.8749   -0.5124 H   0  0  0  0  0  0  0  0  0  0  0  0
   -1.6860    3.3073    1.0628 C   0  0  0  0  0  0  0  0  0  0  0  0
   -0.7902    3.5969    1.6162 H   0  0  0  0  0  0  0  0  0  0  0  0
   -1.8858    4.0488    0.2889 H   0  0  0  0  0  0  0  0  0  0  0  0
   -2.5284    3.2741    1.7564 H   0  0  0  0  0  0  0  0  0  0  0  0
  5  6  2  0  0  0  0
  5  7  1  0  0  0  0
  2  3  1  0  0  0  0
  2  4  1  0  0  0  0
  2  5  1  0  0  0  0
  1  2  1  0  0  0  0
 25 26  2  0  0  0  0
 25 27  1  0  0  0  0
 23 24  1  0  0  0  0
 21 22  1  0  0  0  0
 21 23  2  0  0  0  0
 19 20  1  0  0  0  0
 19 21  1  0  0  0  0
 17 18  1  0  0  0  0
 17 19  2  0  0  0  0
 15 16  1  0  0  0  0
 15 17  1  0  0  0  0
 14 15  2  0  0  0  0
 14 23  1  0  0  0  0
 11 12  1  0  0  0  0
 11 13  1  0  0  0  0
 11 14  1  0  0  0  0
  9 10  1  0  0  0  0
  9 11  1  0  0  0  0
  9 25  1  0  0  0  0
  7  8  1  0  0  0  0
  7  9  1  0  0  0  0
 29 30  1  0  0  0  0
 29 31  1  0  0  0  0
 29 32  1  0  0  0  0
 27 28  1  0  0  0  0
 27 29  1  0  0  0  0
M  END
$$$$
default_name
  -OEChem-01062215323D

 32 32  0     1  0  0  0  0  0999 V2000
   -3.8405   -3.7518    1.6252 H   0  0  0  0  0  0  0  0  0  0  0  0
   -3.7965   -2.8768    0.9782 C   0  0  0  0  0  0  0  0  0  0  0  0
   -4.5465   -2.1527    1.2902 H   0  0  0  0  0  0  0  0  0  0  0  0
   -3.9745   -3.1748   -0.0538 H   0  0  0  0  0  0  0  0  0  0  0  0
   -2.4245   -2.2537    1.0882 C   0  0  0  0  0  0  0  0  0  0  0  0
   -1.5805   -2.7478    1.8242 O   0  0  0  0  0  0  0  0  0  0  0  0
   -2.2045   -1.1637    0.3562 N   0  0  0  0  0  0  0  0  0  0  0  0
   -2.9595   -0.7907   -0.2008 H   0  0  0  0  0  0  0  0  0  0  0  0
   -0.9485   -0.4087    0.3482 C   0  0  1  0  0  0  0  0  0  0  0  0
   -0.1790   -1.0076    0.8379 H   0  0  0  0  0  0  0  0  0  0  0  0
   -0.5148   -0.1592   -1.1064 C   0  0  0  0  0  0  0  0  0  0  0  0
   -1.3368    0.3132   -1.6461 H   0  0  0  0  0  0  0  0  0  0  0  0
    0.3238    0.5388   -1.1108 H   0  0  0  0  0  0  0  0  0  0  0  0
   -0.1222   -1.4180   -1.8561 C   0  0  0  0  0  0  0  0  0  0  0  0
    1.1601   -1.9754   -1.6919 C   0  0  0  0  0  0  0  0  0  0  0  0
    1.8819   -1.4953   -1.0463 H   0  0  0  0  0  0  0  0  0  0  0  0
    1.5028   -3.1661   -2.3587 C   0  0  0  0  0  0  0  0  0  0  0  0
    2.4889   -3.5910   -2.2332 H   0  0  0  0  0  0  0  0  0  0  0  0
    0.5643   -3.8023   -3.1888 C   0  0  0  0  0  0  0  0  0  0  0  0
    0.8285   -4.7158   -3.7029 H   0  0  0  0  0  0  0  0  0  0  0  0
   -0.7174   -3.2472   -3.3562 C   0  0  0  0  0  0  0  0  0  0  0  0
   -1.4371   -3.7331   -3.9986 H   0  0  0  0  0  0  0  0  0  0  0  0
   -1.0586   -2.0555   -2.6923 C   0  0  0  0  0  0  0  0  0  0  0  0
   -2.0438   -1.6276   -2.8247 H   0  0  0  0  0  0  0  0  0  0  0  0
   -1.0922    0.9049    1.1375 C   0  0  0  0  0  0  0  0  0  0  0  0
   -0.5956    1.0107    2.2598 O   0  0  0  0  0  0  0  0  0  0  0  0
   -1.7733    1.9015    0.5578 N   0  0  0  0  0  0  0  0  0  0  0  0
   -2.1976    1.7191   -0.3389 H   0  0  0  0  0  0  0  0  0  0  0  0
   -2.0076    3.2049    1.1746 C   0  0  0  0  0  0  0  0  0  0  0  0
   -1.0600    3.6299    1.5121 H   0  0  0  0  0  0  0  0  0  0  0  0
   -2.4708    3.8834    0.4577 H   0  0  0  0  0  0  0  0  0  0  0  0
   -2.6650    3.0896    2.0385 H   0  0  0  0  0  0  0  0  0  0  0  0
  5  6  2  0  0  0  0
  5  7  1  0  0  0  0
  2  3  1  0  0  0  0
  2  4  1  0  0  0  0
  2  5  1  0  0  0  0
  1  2  1  0  0  0  0
 25 26  2  0  0  0  0
 25 27  1  0  0  0  0
 23 24  1  0  0  0  0
 21 22  1  0  0  0  0
 21 23  2  0  0  0  0
 19 20  1  0  0  0  0
 19 21  1  0  0  0  0
 17 18  1  0  0  0  0
 17 19  2  0  0  0  0
 15 16  1  0  0  0  0
 15 17  1  0  0  0  0
 14 15  2  0  0  0  0
 14 23  1  0  0  0  0
 11 12  1  0  0  0  0
 11 13  1  0  0  0  0
 11 14  1  0  0  0  0
  9 10  1  0  0  0  0
  9 11  1  0  0  0  0
  9 25  1  0  0  0  0
  7  8  1  0  0  0  0
  7  9  1  0  0  0  0
 29 30  1  0  0  0  0
 29 31  1  0  0  0  0
 29 32  1  0  0  0  0
 27 28  1  0  0  0  0
 27 29  1  0  0  0  0
M  END
$$$$
default_name
  -OEChem-01062215323D

 32 32  0     1  0  0  0  0  0999 V2000
   -3.8405   -3.7518    1.6252 H   0  0  0  0  0  0  0  0  0  0  0  0
   -3.7965   -2.8768    0.9782 C   0  0  0  0  0  0  0  0  0  0  0  0
   -4.5465   -2.1527    1.2902 H   0  0  0  0  0  0  0  0  0  0  0  0
   -3.9745   -3.1748   -0.0538 H   0  0  0  0  0  0  0  0  0  0  0  0
   -2.4245   -2.2537    1.0882 C   0  0  0  0  0  0  0  0  0  0  0  0
   -1.5805   -2.7478    1.8242 O   0  0  0  0  0  0  0  0  0  0  0  0
   -2.2045   -1.1637    0.3562 N   0  0  0  0  0  0  0  0  0  0  0  0
   -2.9595   -0.7907   -0.2008 H   0  0  0  0  0  0  0  0  0  0  0  0
   -0.9485   -0.4087    0.3482 C   0  0  1  0  0  0  0  0  0  0  0  0
   -0.1790   -1.0076    0.8379 H   0  0  0  0  0  0  0  0  0  0  0  0
   -0.5148   -0.1592   -1.1064 C   0  0  0  0  0  0  0  0  0  0  0  0
   -1.3368    0.3132   -1.6461 H   0  0  0  0  0  0  0  0  0  0  0  0
    0.3238    0.5388   -1.1108 H   0  0  0  0  0  0  0  0  0  0  0  0
   -0.1222   -1.4180   -1.8561 C   0  0  0  0  0  0  0  0  0  0  0  0
    1.1601   -1.9754   -1.6919 C   0  0  0  0  0  0  0  0  0  0  0  0
    1.8819   -1.4953   -1.0463 H   0  0  0  0  0  0  0  0  0  0  0  0
    1.5028   -3.1661   -2.3587 C   0  0  0  0  0  0  0  0  0  0  0  0
    2.4889   -3.5910   -2.2332 H   0  0  0  0  0  0  0  0  0  0  0  0
    0.5643   -3.8023   -3.1888 C   0  0  0  0  0  0  0  0  0  0  0  0
    0.8285   -4.7158   -3.7029 H   0  0  0  0  0  0  0  0  0  0  0  0
   -0.7174   -3.2472   -3.3562 C   0  0  0  0  0  0  0  0  0  0  0  0
   -1.4371   -3.7331   -3.9986 H   0  0  0  0  0  0  0  0  0  0  0  0
   -1.0586   -2.0555   -2.6923 C   0  0  0  0  0  0  0  0  0  0  0  0
   -2.0438   -1.6276   -2.8247 H   0  0  0  0  0  0  0  0  0  0  0  0
   -1.0922    0.9049    1.1375 C   0  0  0  0  0  0  0  0  0  0  0  0
   -0.3806    1.1181    2.1201 O   0  0  0  0  0  0  0  0  0  0  0  0
   -2.0124    1.7811    0.7147 N   0  0  0  0  0  0  0  0  0  0  0  0
   -2.5943    1.5102   -0.0633 H   0  0  0  0  0  0  0  0  0  0  0  0
   -2.2800    3.0661    1.3561 C   0  0  0  0  0  0  0  0  0  0  0  0
   -1.3480    3.6235    1.4703 H   0  0  0  0  0  0  0  0  0  0  0  0
   -2.9766    3.6501    0.7540 H   0  0  0  0  0  0  0  0  0  0  0  0
   -2.7102    2.9001    2.3457 H   0  0  0  0  0  0  0  0  0  0  0  0
  5  6  2  0  0  0  0
  5  7  1  0  0  0  0
  2  3  1  0  0  0  0
  2  4  1  0  0  0  0
  2  5  1  0  0  0  0
  1  2  1  0  0  0  0
 25 26  2  0  0  0  0
 25 27  1  0  0  0  0
 23 24  1  0  0  0  0
 21 22  1  0  0  0  0
 21 23  2  0  0  0  0
 19 20  1  0  0  0  0
 19 21  1  0  0  0  0
 17 18  1  0  0  0  0
 17 19  2  0  0  0  0
 15 16  1  0  0  0  0
 15 17  1  0  0  0  0
 14 15  2  0  0  0  0
 14 23  1  0  0  0  0
 11 12  1  0  0  0  0
 11 13  1  0  0  0  0
 11 14  1  0  0  0  0
  9 10  1  0  0  0  0
  9 11  1  0  0  0  0
  9 25  1  0  0  0  0
  7  8  1  0  0  0  0
  7  9  1  0  0  0  0
 29 30  1  0  0  0  0
 29 31  1  0  0  0  0
 29 32  1  0  0  0  0
 27 28  1  0  0  0  0
 27 29  1  0  0  0  0
M  END
$$$$
default_name
  -OEChem-01062215323D

 32 32  0     1  0  0  0  0  0999 V2000
   -3.8405   -3.7518    1.6252 H   0  0  0  0  0  0  0  0  0  0  0  0
   -3.7965   -2.8768    0.9782 C   0  0  0  0  0  0  0  0  0  0  0  0
   -4.5465   -2.1527    1.2902 H   0  0  0  0  0  0  0  0  0  0  0  0
   -3.9745   -3.1748   -0.0538 H   0  0  0  0  0  0  0  0  0  0  0  0
   -2.4245   -2.2537    1.0882 C   0  0  0  0  0  0  0  0  0  0  0  0
   -1.5805   -2.7478    1.8242 O   0  0  0  0  0  0  0  0  0  0  0  0
   -2.2045   -1.1637    0.3562 N   0  0  0  0  0  0  0  0  0  0  0  0
   -2.9595   -0.7907   -0.2008 H   0  0  0  0  0  0  0  0  0  0  0  0
   -0.9485   -0.4087    0.3482 C   0  0  1  0  0  0  0  0  0  0  0  0
   -0.1790   -1.0076    0.8379 H   0  0  0  0  0  0  0  0  0  0  0  0
   -0.5148   -0.1592   -1.1064 C   0  0  0  0  0  0  0  0  0  0  0  0
   -1.3368    0.3132   -1.6461 H   0  0  0  0  0  0  0  0  0  0  0  0
    0.3238    0.5388   -1.1108 H   0  0  0  0  0  0  0  0  0  0  0  0
   -0.1222   -1.4180   -1.8561 C   0  0  0  0  0  0  0  0  0  0  0  0
    1.1601   -1.9754   -1.6919 C   0  0  0  0  0  0  0  0  0  0  0  0
    1.8819   -1.4953   -1.0463 H   0  0  0  0  0  0  0  0  0  0  0  0
    1.5028   -3.1661   -2.3587 C   0  0  0  0  0  0  0  0  0  0  0  0
    2.4889   -3.5910   -2.2332 H   0  0  0  0  0  0  0  0  0  0  0  0
    0.5643   -3.8023   -3.1888 C   0  0  0  0  0  0  0  0  0  0  0  0
    0.8285   -4.7158   -3.7029 H   0  0  0  0  0  0  0  0  0  0  0  0
   -0.7174   -3.2472   -3.3562 C   0  0  0  0  0  0  0  0  0  0  0  0
   -1.4371   -3.7331   -3.9986 H   0  0  0  0  0  0  0  0  0  0  0  0
   -1.0586   -2.0555   -2.6923 C   0  0  0  0  0  0  0  0  0  0  0  0
   -2.0438   -1.6276   -2.8247 H   0  0  0  0  0  0  0  0  0  0  0  0
   -1.0922    0.9049    1.1375 C   0  0  0  0  0  0  0  0  0  0  0  0
   -0.2181    1.2471    1.9351 O   0  0  0  0  0  0  0  0  0  0  0  0
   -2.1926    1.6368    0.9220 N   0  0  0  0  0  0  0  0  0  0  0  0
   -2.8888    1.2624    0.2955 H   0  0  0  0  0  0  0  0  0  0  0  0
   -2.4847    2.9002    1.5949 C   0  0  0  0  0  0  0  0  0  0  0  0
   -1.6345    3.5781    1.4937 H   0  0  0  0  0  0  0  0  0  0  0  0
   -3.3688    3.3647    1.1575 H   0  0  0  0  0  0  0  0  0  0  0  0
   -2.6609    2.7185    2.6569 H   0  0  0  0  0  0  0  0  0  0  0  0
  5  6  2  0  0  0  0
  5  7  1  0  0  0  0
  2  3  1  0  0  0  0
  2  4  1  0  0  0  0
  2  5  1  0  0  0  0
  1  2  1  0  0  0  0
 25 26  2  0  0  0  0
 25 27  1  0  0  0  0
 23 24  1  0  0  0  0
 21 22  1  0  0  0  0
 21 23  2  0  0  0  0
 19 20  1  0  0  0  0
 19 21  1  0  0  0  0
 17 18  1  0  0  0  0
 17 19  2  0  0  0  0
 15 16  1  0  0  0  0
 15 17  1  0  0  0  0
 14 15  2  0  0  0  0
 14 23  1  0  0  0  0
 11 12  1  0  0  0  0
 11 13  1  0  0  0  0
 11 14  1  0  0  0  0
  9 10  1  0  0  0  0
  9 11  1  0  0  0  0
  9 25  1  0  0  0  0
  7  8  1  0  0  0  0
  7  9  1  0  0  0  0
 29 30  1  0  0  0  0
 29 31  1  0  0  0  0
 29 32  1  0  0  0  0
 27 28  1  0  0  0  0
 27 29  1  0  0  0  0
M  END
$$$$
default_name
  -OEChem-01062215323D

 32 32  0     1  0  0  0  0  0999 V2000
   -3.8405   -3.7518    1.6252 H   0  0  0  0  0  0  0  0  0  0  0  0
   -3.7965   -2.8768    0.9782 C   0  0  0  0  0  0  0  0  0  0  0  0
   -4.5465   -2.1527    1.2902 H   0  0  0  0  0  0  0  0  0  0  0  0
   -3.9745   -3.1748   -0.0538 H   0  0  0  0  0  0  0  0  0  0  0  0
   -2.4245   -2.2537    1.0882 C   0  0  0  0  0  0  0  0  0  0  0  0
   -1.5805   -2.7478    1.8242 O   0  0  0  0  0  0  0  0  0  0  0  0
   -2.2045   -1.1637    0.3562 N   0  0  0  0  0  0  0  0  0  0  0  0
   -2.9595   -0.7907   -0.2008 H   0  0  0  0  0  0  0  0  0  0  0  0
   -0.9485   -0.4087    0.3482 C   0  0  1  0  0  0  0  0  0  0  0  0
   -0.1790   -1.0076    0.8379 H   0  0  0  0  0  0  0  0  0  0  0  0
   -0.5148   -0.1592   -1.1064 C   0  0  0  0  0  0  0  0  0  0  0  0
   -1.3368    0.3132   -1.6461 H   0  0  0  0  0  0  0  0  0  0  0  0
    0.3238    0.5388   -1.1108 H   0  0  0  0  0  0  0  0  0  0  0  0
   -0.1222   -1.4180   -1.8561 C   0  0  0  0  0  0  0  0  0  0  0  0
    1.1601   -1.9754   -1.6919 C   0  0  0  0  0  0  0  0  0  0  0  0
    1.8819   -1.4953   -1.0463 H   0  0  0  0  0  0  0  0  0  0  0  0
    1.5028   -3.1661   -2.3587 C   0  0  0  0  0  0  0  0  0  0  0  0
    2.4889   -3.5910   -2.2332 H   0  0  0  0  0  0  0  0  0  0  0  0
    0.5643   -3.8023   -3.1888 C   0  0  0  0  0  0  0  0  0  0  0  0
    0.8285   -4.7158   -3.7029 H   0  0  0  0  0  0  0  0  0  0  0  0
   -0.7174   -3.2472   -3.3562 C   0  0  0  0  0  0  0  0  0  0  0  0
   -1.4371   -3.7331   -3.9986 H   0  0  0  0  0  0  0  0  0  0  0  0
   -1.0586   -2.0555   -2.6923 C   0  0  0  0  0  0  0  0  0  0  0  0
   -2.0438   -1.6276   -2.8247 H   0  0  0  0  0  0  0  0  0  0  0  0
   -1.0922    0.9049    1.1375 C   0  0  0  0  0  0  0  0  0  0  0  0
   -0.1190    1.3887    1.7174 O   0  0  0  0  0  0  0  0  0  0  0  0
   -2.3018    1.4786    1.1655 N   0  0  0  0  0  0  0  0  0  0  0  0
   -3.0611    0.9927    0.7131 H   0  0  0  0  0  0  0  0  0  0  0  0
   -2.6075    2.7186    1.8748 C   0  0  0  0  0  0  0  0  0  0  0  0
   -1.9001    3.4968    1.5807 H   0  0  0  0  0  0  0  0  0  0  0  0
   -3.6207    3.0468    1.6409 H   0  0  0  0  0  0  0  0  0  0  0  0
   -2.5203    2.5572    2.9510 H   0  0  0  0  0  0  0  0  0  0  0  0
  5  6  2  0  0  0  0
  5  7  1  0  0  0  0
  2  3  1  0  0  0  0
  2  4  1  0  0  0  0
  2  5  1  0  0  0  0
  1  2  1  0  0  0  0
 25 26  2  0  0  0  0
 25 27  1  0  0  0  0
 23 24  1  0  0  0  0
 21 22  1  0  0  0  0
 21 23  2  0  0  0  0
 19 20  1  0  0  0  0
 19 21  1  0  0  0  0
 17 18  1  0  0  0  0
 17 19  2  0  0  0  0
 15 16  1  0  0  0  0
 15 17  1  0  0  0  0
 14 15  2  0  0  0  0
 14 23  1  0  0  0  0
 11 12  1  0  0  0  0
 11 13  1  0  0  0  0
 11 14  1  0  0  0  0
  9 10  1  0  0  0  0
  9 11  1  0  0  0  0
  9 25  1  0  0  0  0
  7  8  1  0  0  0  0
  7  9  1  0  0  0  0
 29 30  1  0  0  0  0
 29 31  1  0  0  0  0
 29 32  1  0  0  0  0
 27 28  1  0  0  0  0
 27 29  1  0  0  0  0
M  END
$$$$
default_name
  -OEChem-01062215323D

 32 32  0     1  0  0  0  0  0999 V2000
   -3.8405   -3.7518    1.6252 H   0  0  0  0  0  0  0  0  0  0  0  0
   -3.7965   -2.8768    0.9782 C   0  0  0  0  0  0  0  0  0  0  0  0
   -4.5465   -2.1527    1.2902 H   0  0  0  0  0  0  0  0  0  0  0  0
   -3.9745   -3.1748   -0.0538 H   0  0  0  0  0  0  0  0  0  0  0  0
   -2.4245   -2.2537    1.0882 C   0  0  0  0  0  0  0  0  0  0  0  0
   -1.5805   -2.7478    1.8242 O   0  0  0  0  0  0  0  0  0  0  0  0
   -2.2045   -1.1637    0.3562 N   0  0  0  0  0  0  0  0  0  0  0  0
   -2.9595   -0.7907   -0.2008 H   0  0  0  0  0  0  0  0  0  0  0  0
   -0.9485   -0.4087    0.3482 C   0  0  1  0  0  0  0  0  0  0  0  0
   -0.1790   -1.0076    0.8379 H   0  0  0  0  0  0  0  0  0  0  0  0
   -0.5148   -0.1592   -1.1064 C   0  0  0  0  0  0  0  0  0  0  0  0
   -1.3368    0.3132   -1.6461 H   0  0  0  0  0  0  0  0  0  0  0  0
    0.3238    0.5388   -1.1108 H   0  0  0  0  0  0  0  0  0  0  0  0
   -0.1222   -1.4180   -1.8561 C   0  0  0  0  0  0  0  0  0  0  0  0
    1.1601   -1.9754   -1.6919 C   0  0  0  0  0  0  0  0  0  0  0  0
    1.8819   -1.4953   -1.0463 H   0  0  0  0  0  0  0  0  0  0  0  0
    1.5028   -3.1661   -2.3587 C   0  0  0  0  0  0  0  0  0  0  0  0
    2.4889   -3.5910   -2.2332 H   0  0  0  0  0  0  0  0  0  0  0  0
    0.5643   -3.8023   -3.1888 C   0  0  0  0  0  0  0  0  0  0  0  0
    0.8285   -4.7158   -3.7029 H   0  0  0  0  0  0  0  0  0  0  0  0
   -0.7174   -3.2472   -3.3562 C   0  0  0  0  0  0  0  0  0  0  0  0
   -1.4371   -3.7331   -3.9986 H   0  0  0  0  0  0  0  0  0  0  0  0
   -1.0586   -2.0555   -2.6923 C   0  0  0  0  0  0  0  0  0  0  0  0
   -2.0438   -1.6276   -2.8247 H   0  0  0  0  0  0  0  0  0  0  0  0
   -1.0922    0.9049    1.1375 C   0  0  0  0  0  0  0  0  0  0  0  0
   -0.0902    1.5334    1.4818 O   0  0  0  0  0  0  0  0  0  0  0  0
   -2.3325    1.3171    1.4287 N   0  0  0  0  0  0  0  0  0  0  0  0
   -3.0995    0.7193    1.1610 H   0  0  0  0  0  0  0  0  0  0  0  0
   -2.6403    2.5336    2.1767 C   0  0  0  0  0  0  0  0  0  0  0  0
   -2.1266    3.3851    1.7254 H   0  0  0  0  0  0  0  0  0  0  0  0
   -3.7149    2.7179    2.1710 H   0  0  0  0  0  0  0  0  0  0  0  0
   -2.2982    2.4271    3.2080 H   0  0  0  0  0  0  0  0  0  0  0  0
  5  6  2  0  0  0  0
  5  7  1  0  0  0  0
  2  3  1  0  0  0  0
  2  4  1  0  0  0  0
  2  5  1  0  0  0  0
  1  2  1  0  0  0  0
 25 26  2  0  0  0  0
 25 27  1  0  0  0  0
 23 24  1  0  0  0  0
 21 22  1  0  0  0  0
 21 23  2  0  0  0  0
 19 20  1  0  0  0  0
 19 21  1  0  0  0  0
 17 18  1  0  0  0  0
 17 19  2  0  0  0  0
 15 16  1  0  0  0  0
 15 17  1  0  0  0  0
 14 15  2  0  0  0  0
 14 23  1  0  0  0  0
 11 12  1  0  0  0  0
 11 13  1  0  0  0  0
 11 14  1  0  0  0  0
  9 10  1  0  0  0  0
  9 11  1  0  0  0  0
  9 25  1  0  0  0  0
  7  8  1  0  0  0  0
  7  9  1  0  0  0  0
 29 30  1  0  0  0  0
 29 31  1  0  0  0  0
 29 32  1  0  0  0  0
 27 28  1  0  0  0  0
 27 29  1  0  0  0  0
M  END
$$$$
default_name
  -OEChem-01062215323D

 32 32  0     1  0  0  0  0  0999 V2000
   -3.8405   -3.7518    1.6252 H   0  0  0  0  0  0  0  0  0  0  0  0
   -3.7965   -2.8768    0.9782 C   0  0  0  0  0  0  0  0  0  0  0  0
   -4.5465   -2.1527    1.2902 H   0  0  0  0  0  0  0  0  0  0  0  0
   -3.9745   -3.1748   -0.0538 H   0  0  0  0  0  0  0  0  0  0  0  0
   -2.4245   -2.2537    1.0882 C   0  0  0  0  0  0  0  0  0  0  0  0
   -1.5805   -2.7478    1.8242 O   0  0  0  0  0  0  0  0  0  0  0  0
   -2.2045   -1.1637    0.3562 N   0  0  0  0  0  0  0  0  0  0  0  0
   -2.9595   -0.7907   -0.2008 H   0  0  0  0  0  0  0  0  0  0  0  0
   -0.9485   -0.4087    0.3482 C   0  0  1  0  0  0  0  0  0  0  0  0
   -0.1790   -1.0076    0.8379 H   0  0  0  0  0  0  0  0  0  0  0  0
   -0.5148   -0.1592   -1.1064 C   0  0  0  0  0  0  0  0  0  0  0  0
   -1.3368    0.3132   -1.6461 H   0  0  0  0  0  0  0  0  0  0  0  0
    0.3238    0.5388   -1.1108 H   0  0  0  0  0  0  0  0  0  0  0  0
   -0.1222   -1.4180   -1.8561 C   0  0  0  0  0  0  0  0  0  0  0  0
    1.1601   -1.9754   -1.6919 C   0  0  0  0  0  0  0  0  0  0  0  0
    1.8819   -1.4953   -1.0463 H   0  0  0  0  0  0  0  0  0  0  0  0
    1.5028   -3.1661   -2.3587 C   0  0  0  0  0  0  0  0  0  0  0  0
    2.4889   -3.5910   -2.2332 H   0  0  0  0  0  0  0  0  0  0  0  0
    0.5643   -3.8023   -3.1888 C   0  0  0  0  0  0  0  0  0  0  0  0
    0.8285   -4.7158   -3.7029 H   0  0  0  0  0  0  0  0  0  0  0  0
   -0.7174   -3.2472   -3.3562 C   0  0  0  0  0  0  0  0  0  0  0  0
   -1.4371   -3.7331   -3.9986 H   0  0  0  0  0  0  0  0  0  0  0  0
   -1.0586   -2.0555   -2.6923 C   0  0  0  0  0  0  0  0  0  0  0  0
   -2.0438   -1.6276   -2.8247 H   0  0  0  0  0  0  0  0  0  0  0  0
   -1.0922    0.9049    1.1375 C   0  0  0  0  0  0  0  0  0  0  0  0
   -0.1337    1.6713    1.2444 O   0  0  0  0  0  0  0  0  0  0  0  0
   -2.2826    1.1634    1.6935 N   0  0  0  0  0  0  0  0  0  0  0  0
   -3.0014    0.4610    1.6088 H   0  0  0  0  0  0  0  0  0  0  0  0
   -2.5807    2.3579    2.4800 C   0  0  0  0  0  0  0  0  0  0  0  0
   -2.2987    3.2506    1.9178 H   0  0  0  0  0  0  0  0  0  0  0  0
   -3.6453    2.4006    2.7119 H   0  0  0  0  0  0  0  0  0  0  0  0
   -2.0096    2.3371    3.4103 H   0  0  0  0  0  0  0  0  0  0  0  0
  5  6  2  0  0  0  0
  5  7  1  0  0  0  0
  2  3  1  0  0  0  0
  2  4  1  0  0  0  0
  2  5  1  0  0  0  0
  1  2  1  0  0  0  0
 25 26  2  0  0  0  0
 25 27  1  0  0  0  0
 23 24  1  0  0  0  0
 21 22  1  0  0  0  0
 21 23  2  0  0  0  0
 19 20  1  0  0  0  0
 19 21  1  0  0  0  0
 17 18  1  0  0  0  0
 17 19  2  0  0  0  0
 15 16  1  0  0  0  0
 15 17  1  0  0  0  0
 14 15  2  0  0  0  0
 14 23  1  0  0  0  0
 11 12  1  0  0  0  0
 11 13  1  0  0  0  0
 11 14  1  0  0  0  0
  9 10  1  0  0  0  0
  9 11  1  0  0  0  0
  9 25  1  0  0  0  0
  7  8  1  0  0  0  0
  7  9  1  0  0  0  0
 29 30  1  0  0  0  0
 29 31  1  0  0  0  0
 29 32  1  0  0  0  0
 27 28  1  0  0  0  0
 27 29  1  0  0  0  0
M  END
$$$$
default_name
  -OEChem-01062215323D

 32 32  0     1  0  0  0  0  0999 V2000
   -3.8405   -3.7518    1.6252 H   0  0  0  0  0  0  0  0  0  0  0  0
   -3.7965   -2.8768    0.9782 C   0  0  0  0  0  0  0  0  0  0  0  0
   -4.5465   -2.1527    1.2902 H   0  0  0  0  0  0  0  0  0  0  0  0
   -3.9745   -3.1748   -0.0538 H   0  0  0  0  0  0  0  0  0  0  0  0
   -2.4245   -2.2537    1.0882 C   0  0  0  0  0  0  0  0  0  0  0  0
   -1.5805   -2.7478    1.8242 O   0  0  0  0  0  0  0  0  0  0  0  0
   -2.2045   -1.1637    0.3562 N   0  0  0  0  0  0  0  0  0  0  0  0
   -2.9595   -0.7907   -0.2008 H   0  0  0  0  0  0  0  0  0  0  0  0
   -0.9485   -0.4087    0.3482 C   0  0  1  0  0  0  0  0  0  0  0  0
   -0.1790   -1.0076    0.8379 H   0  0  0  0  0  0  0  0  0  0  0  0
   -0.5148   -0.1592   -1.1064 C   0  0  0  0  0  0  0  0  0  0  0  0
   -1.3368    0.3132   -1.6461 H   0  0  0  0  0  0  0  0  0  0  0  0
    0.3238    0.5388   -1.1108 H   0  0  0  0  0  0  0  0  0  0  0  0
   -0.1222   -1.4180   -1.8561 C   0  0  0  0  0  0  0  0  0  0  0  0
    1.1601   -1.9754   -1.6919 C   0  0  0  0  0  0  0  0  0  0  0  0
    1.8819   -1.4953   -1.0463 H   0  0  0  0  0  0  0  0  0  0  0  0
    1.5028   -3.1661   -2.3587 C   0  0  0  0  0  0  0  0  0  0  0  0
    2.4889   -3.5910   -2.2332 H   0  0  0  0  0  0  0  0  0  0  0  0
    0.5643   -3.8023   -3.1888 C   0  0  0  0  0  0  0  0  0  0  0  0
    0.8285   -4.7158   -3.7029 H   0  0  0  0  0  0  0  0  0  0  0  0
   -0.7174   -3.2472   -3.3562 C   0  0  0  0  0  0  0  0  0  0  0  0
   -1.4371   -3.7331   -3.9986 H   0  0  0  0  0  0  0  0  0  0  0  0
   -1.0586   -2.0555   -2.6923 C   0  0  0  0  0  0  0  0  0  0  0  0
   -2.0438   -1.6276   -2.8247 H   0  0  0  0  0  0  0  0  0  0  0  0
   -1.0922    0.9049    1.1375 C   0  0  0  0  0  0  0  0  0  0  0  0
   -0.2464    1.7930    1.0214 O   0  0  0  0  0  0  0  0  0  0  0  0
   -2.1555    1.0280    1.9421 N   0  0  0  0  0  0  0  0  0  0  0  0
   -2.7735    0.2353    2.0259 H   0  0  0  0  0  0  0  0  0  0  0  0
   -2.4328    2.2034    2.7641 C   0  0  0  0  0  0  0  0  0  0  0  0
   -2.4045    3.1026    2.1450 H   0  0  0  0  0  0  0  0  0  0  0  0
   -3.4164    2.1164    3.2266 H   0  0  0  0  0  0  0  0  0  0  0  0
   -1.6743    2.2934    3.5441 H   0  0  0  0  0  0  0  0  0  0  0  0
  5  6  2  0  0  0  0
  5  7  1  0  0  0  0
  2  3  1  0  0  0  0
  2  4  1  0  0  0  0
  2  5  1  0  0  0  0
  1  2  1  0  0  0  0
 25 26  2  0  0  0  0
 25 27  1  0  0  0  0
 23 24  1  0  0  0  0
 21 22  1  0  0  0  0
 21 23  2  0  0  0  0
 19 20  1  0  0  0  0
 19 21  1  0  0  0  0
 17 18  1  0  0  0  0
 17 19  2  0  0  0  0
 15 16  1  0  0  0  0
 15 17  1  0  0  0  0
 14 15  2  0  0  0  0
 14 23  1  0  0  0  0
 11 12  1  0  0  0  0
 11 13  1  0  0  0  0
 11 14  1  0  0  0  0
  9 10  1  0  0  0  0
  9 11  1  0  0  0  0
  9 25  1  0  0  0  0
  7  8  1  0  0  0  0
  7  9  1  0  0  0  0
 29 30  1  0  0  0  0
 29 31  1  0  0  0  0
 29 32  1  0  0  0  0
 27 28  1  0  0  0  0
 27 29  1  0  0  0  0
M  END
$$$$
default_name
  -OEChem-01062215323D

 32 32  0     1  0  0  0  0  0999 V2000
   -3.8405   -3.7518    1.6252 H   0  0  0  0  0  0  0  0  0  0  0  0
   -3.7965   -2.8768    0.9782 C   0  0  0  0  0  0  0  0  0  0  0  0
   -4.5465   -2.1527    1.2902 H   0  0  0  0  0  0  0  0  0  0  0  0
   -3.9745   -3.1748   -0.0538 H   0  0  0  0  0  0  0  0  0  0  0  0
   -2.4245   -2.2537    1.0882 C   0  0  0  0  0  0  0  0  0  0  0  0
   -1.5805   -2.7478    1.8242 O   0  0  0  0  0  0  0  0  0  0  0  0
   -2.2045   -1.1637    0.3562 N   0  0  0  0  0  0  0  0  0  0  0  0
   -2.9595   -0.7907   -0.2008 H   0  0  0  0  0  0  0  0  0  0  0  0
   -0.9485   -0.4087    0.3482 C   0  0  1  0  0  0  0  0  0  0  0  0
   -0.1790   -1.0076    0.8379 H   0  0  0  0  0  0  0  0  0  0  0  0
   -0.5148   -0.1592   -1.1064 C   0  0  0  0  0  0  0  0  0  0  0  0
   -1.3368    0.3132   -1.6461 H   0  0  0  0  0  0  0  0  0  0  0  0
    0.3238    0.5388   -1.1108 H   0  0  0  0  0  0  0  0  0  0  0  0
   -0.1222   -1.4180   -1.8561 C   0  0  0  0  0  0  0  0  0  0  0  0
    1.1601   -1.9754   -1.6919 C   0  0  0  0  0  0  0  0  0  0  0  0
    1.8819   -1.4953   -1.0463 H   0  0  0  0  0  0  0  0  0  0  0  0
    1.5028   -3.1661   -2.3587 C   0  0  0  0  0  0  0  0  0  0  0  0
    2.4889   -3.5910   -2.2332 H   0  0  0  0  0  0  0  0  0  0  0  0
    0.5643   -3.8023   -3.1888 C   0  0  0  0  0  0  0  0  0  0  0  0
    0.8285   -4.7158   -3.7029 H   0  0  0  0  0  0  0  0  0  0  0  0
   -0.7174   -3.2472   -3.3562 C   0  0  0  0  0  0  0  0  0  0  0  0
   -1.4371   -3.7331   -3.9986 H   0  0  0  0  0  0  0  0  0  0  0  0
   -1.0586   -2.0555   -2.6923 C   0  0  0  0  0  0  0  0  0  0  0  0
   -2.0438   -1.6276   -2.8247 H   0  0  0  0  0  0  0  0  0  0  0  0
   -1.0922    0.9049    1.1375 C   0  0  0  0  0  0  0  0  0  0  0  0
   -0.4207    1.8902    0.8279 O   0  0  0  0  0  0  0  0  0  0  0  0
   -1.9598    0.9201    2.1573 N   0  0  0  0  0  0  0  0  0  0  0  0
   -2.4312    0.0577    2.3839 H   0  0  0  0  0  0  0  0  0  0  0  0
   -2.2068    2.0807    3.0096 C   0  0  0  0  0  0  0  0  0  0  0  0
   -2.4369    2.9510    2.3914 H   0  0  0  0  0  0  0  0  0  0  0  0
   -3.0439    1.8847    3.6801 H   0  0  0  0  0  0  0  0  0  0  0  0
   -1.3150    2.2989    3.6003 H   0  0  0  0  0  0  0  0  0  0  0  0
  5  6  2  0  0  0  0
  5  7  1  0  0  0  0
  2  3  1  0  0  0  0
  2  4  1  0  0  0  0
  2  5  1  0  0  0  0
  1  2  1  0  0  0  0
 25 26  2  0  0  0  0
 25 27  1  0  0  0  0
 23 24  1  0  0  0  0
 21 22  1  0  0  0  0
 21 23  2  0  0  0  0
 19 20  1  0  0  0  0
 19 21  1  0  0  0  0
 17 18  1  0  0  0  0
 17 19  2  0  0  0  0
 15 16  1  0  0  0  0
 15 17  1  0  0  0  0
 14 15  2  0  0  0  0
 14 23  1  0  0  0  0
 11 12  1  0  0  0  0
 11 13  1  0  0  0  0
 11 14  1  0  0  0  0
  9 10  1  0  0  0  0
  9 11  1  0  0  0  0
  9 25  1  0  0  0  0
  7  8  1  0  0  0  0
  7  9  1  0  0  0  0
 29 30  1  0  0  0  0
 29 31  1  0  0  0  0
 29 32  1  0  0  0  0
 27 28  1  0  0  0  0
 27 29  1  0  0  0  0
M  END
$$$$
default_name
  -OEChem-01062215323D

 32 32  0     1  0  0  0  0  0999 V2000
   -3.8405   -3.7518    1.6252 H   0  0  0  0  0  0  0  0  0  0  0  0
   -3.7965   -2.8768    0.9782 C   0  0  0  0  0  0  0  0  0  0  0  0
   -4.5465   -2.1527    1.2902 H   0  0  0  0  0  0  0  0  0  0  0  0
   -3.9745   -3.1748   -0.0538 H   0  0  0  0  0  0  0  0  0  0  0  0
   -2.4245   -2.2537    1.0882 C   0  0  0  0  0  0  0  0  0  0  0  0
   -1.5805   -2.7478    1.8242 O   0  0  0  0  0  0  0  0  0  0  0  0
   -2.2045   -1.1637    0.3562 N   0  0  0  0  0  0  0  0  0  0  0  0
   -2.9595   -0.7907   -0.2008 H   0  0  0  0  0  0  0  0  0  0  0  0
   -0.9485   -0.4087    0.3482 C   0  0  1  0  0  0  0  0  0  0  0  0
   -0.1790   -1.0076    0.8379 H   0  0  0  0  0  0  0  0  0  0  0  0
   -0.5148   -0.1592   -1.1064 C   0  0  0  0  0  0  0  0  0  0  0  0
   -1.3368    0.3132   -1.6461 H   0  0  0  0  0  0  0  0  0  0  0  0
    0.3238    0.5388   -1.1108 H   0  0  0  0  0  0  0  0  0  0  0  0
   -0.1222   -1.4180   -1.8561 C   0  0  0  0  0  0  0  0  0  0  0  0
    1.1601   -1.9754   -1.6919 C   0  0  0  0  0  0  0  0  0  0  0  0
    1.8819   -1.4953   -1.0463 H   0  0  0  0  0  0  0  0  0  0  0  0
    1.5028   -3.1661   -2.3587 C   0  0  0  0  0  0  0  0  0  0  0  0
    2.4889   -3.5910   -2.2332 H   0  0  0  0  0  0  0  0  0  0  0  0
    0.5643   -3.8023   -3.1888 C   0  0  0  0  0  0  0  0  0  0  0  0
    0.8285   -4.7158   -3.7029 H   0  0  0  0  0  0  0  0  0  0  0  0
   -0.7174   -3.2472   -3.3562 C   0  0  0  0  0  0  0  0  0  0  0  0
   -1.4371   -3.7331   -3.9986 H   0  0  0  0  0  0  0  0  0  0  0  0
   -1.0586   -2.0555   -2.6923 C   0  0  0  0  0  0  0  0  0  0  0  0
   -2.0438   -1.6276   -2.8247 H   0  0  0  0  0  0  0  0  0  0  0  0
   -1.0922    0.9049    1.1375 C   0  0  0  0  0  0  0  0  0  0  0  0
   -0.6447    1.9562    0.6771 O   0  0  0  0  0  0  0  0  0  0  0  0
   -1.7090    0.8470    2.3246 N   0  0  0  0  0  0  0  0  0  0  0  0
   -1.9979   -0.0598    2.6584 H   0  0  0  0  0  0  0  0  0  0  0  0
   -1.9179    1.9981    3.1997 C   0  0  0  0  0  0  0  0  0  0  0  0
   -2.3936    2.8063    2.6402 H   0  0  0  0  0  0  0  0  0  0  0  0
   -2.5531    1.7212    4.0415 H   0  0  0  0  0  0  0  0  0  0  0  0
   -0.9562    2.3533    3.5751 H   0  0  0  0  0  0  0  0  0  0  0  0
  5  6  2  0  0  0  0
  5  7  1  0  0  0  0
  2  3  1  0  0  0  0
  2  4  1  0  0  0  0
  2  5  1  0  0  0  0
  1  2  1  0  0  0  0
 25 26  2  0  0  0  0
 25 27  1  0  0  0  0
 23 24  1  0  0  0  0
 21 22  1  0  0  0  0
 21 23  2  0  0  0  0
 19 20  1  0  0  0  0
 19 21  1  0  0  0  0
 17 18  1  0  0  0  0
 17 19  2  0  0  0  0
 15 16  1  0  0  0  0
 15 17  1  0  0  0  0
 14 15  2  0  0  0  0
 14 23  1  0  0  0  0
 11 12  1  0  0  0  0
 11 13  1  0  0  0  0
 11 14  1  0  0  0  0
  9 10  1  0  0  0  0
  9 11  1  0  0  0  0
  9 25  1  0  0  0  0
  7  8  1  0  0  0  0
  7  9  1  0  0  0  0
 29 30  1  0  0  0  0
 29 31  1  0  0  0  0
 29 32  1  0  0  0  0
 27 28  1  0  0  0  0
 27 29  1  0  0  0  0
M  END
$$$$
default_name
  -OEChem-01062215323D

 32 32  0     1  0  0  0  0  0999 V2000
   -3.8405   -3.7518    1.6252 H   0  0  0  0  0  0  0  0  0  0  0  0
   -3.7965   -2.8768    0.9782 C   0  0  0  0  0  0  0  0  0  0  0  0
   -4.5465   -2.1527    1.2902 H   0  0  0  0  0  0  0  0  0  0  0  0
   -3.9745   -3.1748   -0.0538 H   0  0  0  0  0  0  0  0  0  0  0  0
   -2.4245   -2.2537    1.0882 C   0  0  0  0  0  0  0  0  0  0  0  0
   -1.5805   -2.7478    1.8242 O   0  0  0  0  0  0  0  0  0  0  0  0
   -2.2045   -1.1637    0.3562 N   0  0  0  0  0  0  0  0  0  0  0  0
   -2.9595   -0.7907   -0.2008 H   0  0  0  0  0  0  0  0  0  0  0  0
   -0.9485   -0.4087    0.3482 C   0  0  1  0  0  0  0  0  0  0  0  0
   -0.1790   -1.0076    0.8379 H   0  0  0  0  0  0  0  0  0  0  0  0
   -0.5148   -0.1592   -1.1064 C   0  0  0  0  0  0  0  0  0  0  0  0
   -1.3368    0.3132   -1.6461 H   0  0  0  0  0  0  0  0  0  0  0  0
    0.3238    0.5388   -1.1108 H   0  0  0  0  0  0  0  0  0  0  0  0
   -0.1222   -1.4180   -1.8561 C   0  0  0  0  0  0  0  0  0  0  0  0
    1.1601   -1.9754   -1.6919 C   0  0  0  0  0  0  0  0  0  0  0  0
    1.8819   -1.4953   -1.0463 H   0  0  0  0  0  0  0  0  0  0  0  0
    1.5028   -3.1661   -2.3587 C   0  0  0  0  0  0  0  0  0  0  0  0
    2.4889   -3.5910   -2.2332 H   0  0  0  0  0  0  0  0  0  0  0  0
    0.5643   -3.8023   -3.1888 C   0  0  0  0  0  0  0  0  0  0  0  0
    0.8285   -4.7158   -3.7029 H   0  0  0  0  0  0  0  0  0  0  0  0
   -0.7174   -3.2472   -3.3562 C   0  0  0  0  0  0  0  0  0  0  0  0
   -1.4371   -3.7331   -3.9986 H   0  0  0  0  0  0  0  0  0  0  0  0
   -1.0586   -2.0555   -2.6923 C   0  0  0  0  0  0  0  0  0  0  0  0
   -2.0438   -1.6276   -2.8247 H   0  0  0  0  0  0  0  0  0  0  0  0
   -1.0922    0.9049    1.1375 C   0  0  0  0  0  0  0  0  0  0  0  0
   -0.9031    1.9867    0.5794 O   0  0  0  0  0  0  0  0  0  0  0  0
   -1.4200    0.8138    2.4326 N   0  0  0  0  0  0  0  0  0  0  0  0
   -1.5032   -0.1092    2.8307 H   0  0  0  0  0  0  0  0  0  0  0  0
   -1.5859    1.9612    3.3215 C   0  0  0  0  0  0  0  0  0  0  0  0
   -2.2777    2.6782    2.8745 H   0  0  0  0  0  0  0  0  0  0  0  0
   -1.9776    1.6372    4.2861 H   0  0  0  0  0  0  0  0  0  0  0  0
   -0.6225    2.4528    3.4703 H   0  0  0  0  0  0  0  0  0  0  0  0
  5  6  2  0  0  0  0
  5  7  1  0  0  0  0
  2  3  1  0  0  0  0
  2  4  1  0  0  0  0
  2  5  1  0  0  0  0
  1  2  1  0  0  0  0
 25 26  2  0  0  0  0
 25 27  1  0  0  0  0
 23 24  1  0  0  0  0
 21 22  1  0  0  0  0
 21 23  2  0  0  0  0
 19 20  1  0  0  0  0
 19 21  1  0  0  0  0
 17 18  1  0  0  0  0
 17 19  2  0  0  0  0
 15 16  1  0  0  0  0
 15 17  1  0  0  0  0
 14 15  2  0  0  0  0
 14 23  1  0  0  0  0
 11 12  1  0  0  0  0
 11 13  1  0  0  0  0
 11 14  1  0  0  0  0
  9 10  1  0  0  0  0
  9 11  1  0  0  0  0
  9 25  1  0  0  0  0
  7  8  1  0  0  0  0
  7  9  1  0  0  0  0
 29 30  1  0  0  0  0
 29 31  1  0  0  0  0
 29 32  1  0  0  0  0
 27 28  1  0  0  0  0
 27 29  1  0  0  0  0
M  END
$$$$
default_name
  -OEChem-01062215323D

 32 32  0     1  0  0  0  0  0999 V2000
   -3.8405   -3.7518    1.6252 H   0  0  0  0  0  0  0  0  0  0  0  0
   -3.7965   -2.8768    0.9782 C   0  0  0  0  0  0  0  0  0  0  0  0
   -4.5465   -2.1527    1.2902 H   0  0  0  0  0  0  0  0  0  0  0  0
   -3.9745   -3.1748   -0.0538 H   0  0  0  0  0  0  0  0  0  0  0  0
   -2.4245   -2.2537    1.0882 C   0  0  0  0  0  0  0  0  0  0  0  0
   -1.5805   -2.7478    1.8242 O   0  0  0  0  0  0  0  0  0  0  0  0
   -2.2045   -1.1637    0.3562 N   0  0  0  0  0  0  0  0  0  0  0  0
   -2.9595   -0.7907   -0.2008 H   0  0  0  0  0  0  0  0  0  0  0  0
   -0.9485   -0.4087    0.3482 C   0  0  1  0  0  0  0  0  0  0  0  0
   -0.1790   -1.0076    0.8379 H   0  0  0  0  0  0  0  0  0  0  0  0
   -0.5148   -0.1592   -1.1064 C   0  0  0  0  0  0  0  0  0  0  0  0
   -1.3368    0.3132   -1.6461 H   0  0  0  0  0  0  0  0  0  0  0  0
    0.3238    0.5388   -1.1108 H   0  0  0  0  0  0  0  0  0  0  0  0
   -0.1222   -1.4180   -1.8561 C   0  0  0  0  0  0  0  0  0  0  0  0
    1.1601   -1.9754   -1.6919 C   0  0  0  0  0  0  0  0  0  0  0  0
    1.8819   -1.4953   -1.0463 H   0  0  0  0  0  0  0  0  0  0  0  0
    1.5028   -3.1661   -2.3587 C   0  0  0  0  0  0  0  0  0  0  0  0
    2.4889   -3.5910   -2.2332 H   0  0  0  0  0  0  0  0  0  0  0  0
    0.5643   -3.8023   -3.1888 C   0  0  0  0  0  0  0  0  0  0  0  0
    0.8285   -4.7158   -3.7029 H   0  0  0  0  0  0  0  0  0  0  0  0
   -0.7174   -3.2472   -3.3562 C   0  0  0  0  0  0  0  0  0  0  0  0
   -1.4371   -3.7331   -3.9986 H   0  0  0  0  0  0  0  0  0  0  0  0
   -1.0586   -2.0555   -2.6923 C   0  0  0  0  0  0  0  0  0  0  0  0
   -2.0438   -1.6276   -2.8247 H   0  0  0  0  0  0  0  0  0  0  0  0
   -1.0922    0.9049    1.1375 C   0  0  0  0  0  0  0  0  0  0  0  0
   -1.1783    1.9795    0.5413 O   0  0  0  0  0  0  0  0  0  0  0  0
   -1.1126    0.8226    2.4738 N   0  0  0  0  0  0  0  0  0  0  0  0
   -0.9807   -0.0871    2.8890 H   0  0  0  0  0  0  0  0  0  0  0  0
   -1.2334    1.9726    3.3667 C   0  0  0  0  0  0  0  0  0  0  0  0
   -2.0969    2.5756    3.0782 H   0  0  0  0  0  0  0  0  0  0  0  0
   -1.3565    1.6384    4.3973 H   0  0  0  0  0  0  0  0  0  0  0  0
   -0.3365    2.5907    3.2928 H   0  0  0  0  0  0  0  0  0  0  0  0
  5  6  2  0  0  0  0
  5  7  1  0  0  0  0
  2  3  1  0  0  0  0
  2  4  1  0  0  0  0
  2  5  1  0  0  0  0
  1  2  1  0  0  0  0
 25 26  2  0  0  0  0
 25 27  1  0  0  0  0
 23 24  1  0  0  0  0
 21 22  1  0  0  0  0
 21 23  2  0  0  0  0
 19 20  1  0  0  0  0
 19 21  1  0  0  0  0
 17 18  1  0  0  0  0
 17 19  2  0  0  0  0
 15 16  1  0  0  0  0
 15 17  1  0  0  0  0
 14 15  2  0  0  0  0
 14 23  1  0  0  0  0
 11 12  1  0  0  0  0
 11 13  1  0  0  0  0
 11 14  1  0  0  0  0
  9 10  1  0  0  0  0
  9 11  1  0  0  0  0
  9 25  1  0  0  0  0
  7  8  1  0  0  0  0
  7  9  1  0  0  0  0
 29 30  1  0  0  0  0
 29 31  1  0  0  0  0
 29 32  1  0  0  0  0
 27 28  1  0  0  0  0
 27 29  1  0  0  0  0
M  END
$$$$
default_name
  -OEChem-01062215323D

 32 32  0     1  0  0  0  0  0999 V2000
   -3.8405   -3.7518    1.6252 H   0  0  0  0  0  0  0  0  0  0  0  0
   -3.7965   -2.8768    0.9782 C   0  0  0  0  0  0  0  0  0  0  0  0
   -4.5465   -2.1527    1.2902 H   0  0  0  0  0  0  0  0  0  0  0  0
   -3.9745   -3.1748   -0.0538 H   0  0  0  0  0  0  0  0  0  0  0  0
   -2.4245   -2.2537    1.0882 C   0  0  0  0  0  0  0  0  0  0  0  0
   -1.5805   -2.7478    1.8242 O   0  0  0  0  0  0  0  0  0  0  0  0
   -2.2045   -1.1637    0.3562 N   0  0  0  0  0  0  0  0  0  0  0  0
   -2.9595   -0.7907   -0.2008 H   0  0  0  0  0  0  0  0  0  0  0  0
   -0.9485   -0.4087    0.3482 C   0  0  1  0  0  0  0  0  0  0  0  0
   -0.1790   -1.0076    0.8379 H   0  0  0  0  0  0  0  0  0  0  0  0
   -0.5148   -0.1592   -1.1064 C   0  0  0  0  0  0  0  0  0  0  0  0
   -1.3368    0.3132   -1.6461 H   0  0  0  0  0  0  0  0  0  0  0  0
    0.3238    0.5388   -1.1108 H   0  0  0  0  0  0  0  0  0  0  0  0
   -0.1222   -1.4180   -1.8561 C   0  0  0  0  0  0  0  0  0  0  0  0
    1.1601   -1.9754   -1.6919 C   0  0  0  0  0  0  0  0  0  0  0  0
    1.8819   -1.4953   -1.0463 H   0  0  0  0  0  0  0  0  0  0  0  0
    1.5028   -3.1661   -2.3587 C   0  0  0  0  0  0  0  0  0  0  0  0
    2.4889   -3.5910   -2.2332 H   0  0  0  0  0  0  0  0  0  0  0  0
    0.5643   -3.8023   -3.1888 C   0  0  0  0  0  0  0  0  0  0  0  0
    0.8285   -4.7158   -3.7029 H   0  0  0  0  0  0  0  0  0  0  0  0
   -0.7174   -3.2472   -3.3562 C   0  0  0  0  0  0  0  0  0  0  0  0
   -1.4371   -3.7331   -3.9986 H   0  0  0  0  0  0  0  0  0  0  0  0
   -1.0586   -2.0555   -2.6923 C   0  0  0  0  0  0  0  0  0  0  0  0
   -2.0438   -1.6276   -2.8247 H   0  0  0  0  0  0  0  0  0  0  0  0
   -1.0922    0.9049    1.1375 C   0  0  0  0  0  0  0  0  0  0  0  0
   -1.4517    1.9350    0.5655 O   0  0  0  0  0  0  0  0  0  0  0  0
   -0.8078    0.8729    2.4456 N   0  0  0  0  0  0  0  0  0  0  0  0
   -0.4661    0.0050    2.8294 H   0  0  0  0  0  0  0  0  0  0  0  0
   -0.8844    2.0314    3.3323 C   0  0  0  0  0  0  0  0  0  0  0  0
   -1.8637    2.5053    3.2376 H   0  0  0  0  0  0  0  0  0  0  0  0
   -0.7322    1.7246    4.3674 H   0  0  0  0  0  0  0  0  0  0  0  0
   -0.1177    2.7575    3.0550 H   0  0  0  0  0  0  0  0  0  0  0  0
  5  6  2  0  0  0  0
  5  7  1  0  0  0  0
  2  3  1  0  0  0  0
  2  4  1  0  0  0  0
  2  5  1  0  0  0  0
  1  2  1  0  0  0  0
 25 26  2  0  0  0  0
 25 27  1  0  0  0  0
 23 24  1  0  0  0  0
 21 22  1  0  0  0  0
 21 23  2  0  0  0  0
 19 20  1  0  0  0  0
 19 21  1  0  0  0  0
 17 18  1  0  0  0  0
 17 19  2  0  0  0  0
 15 16  1  0  0  0  0
 15 17  1  0  0  0  0
 14 15  2  0  0  0  0
 14 23  1  0  0  0  0
 11 12  1  0  0  0  0
 11 13  1  0  0  0  0
 11 14  1  0  0  0  0
  9 10  1  0  0  0  0
  9 11  1  0  0  0  0
  9 25  1  0  0  0  0
  7  8  1  0  0  0  0
  7  9  1  0  0  0  0
 29 30  1  0  0  0  0
 29 31  1  0  0  0  0
 29 32  1  0  0  0  0
 27 28  1  0  0  0  0
 27 29  1  0  0  0  0
M  END
$$$$
default_name
  -OEChem-01062215323D

 32 32  0     1  0  0  0  0  0999 V2000
   -3.8405   -3.7518    1.6252 H   0  0  0  0  0  0  0  0  0  0  0  0
   -3.7965   -2.8768    0.9782 C   0  0  0  0  0  0  0  0  0  0  0  0
   -4.5465   -2.1527    1.2902 H   0  0  0  0  0  0  0  0  0  0  0  0
   -3.9745   -3.1748   -0.0538 H   0  0  0  0  0  0  0  0  0  0  0  0
   -2.4245   -2.2537    1.0882 C   0  0  0  0  0  0  0  0  0  0  0  0
   -1.5805   -2.7478    1.8242 O   0  0  0  0  0  0  0  0  0  0  0  0
   -2.2045   -1.1637    0.3562 N   0  0  0  0  0  0  0  0  0  0  0  0
   -2.9595   -0.7907   -0.2008 H   0  0  0  0  0  0  0  0  0  0  0  0
   -0.9485   -0.4087    0.3482 C   0  0  1  0  0  0  0  0  0  0  0  0
   -0.1790   -1.0076    0.8379 H   0  0  0  0  0  0  0  0  0  0  0  0
   -0.5148   -0.1592   -1.1064 C   0  0  0  0  0  0  0  0  0  0  0  0
   -1.3368    0.3132   -1.6461 H   0  0  0  0  0  0  0  0  0  0  0  0
    0.3238    0.5388   -1.1108 H   0  0  0  0  0  0  0  0  0  0  0  0
   -0.1222   -1.4180   -1.8561 C   0  0  0  0  0  0  0  0  0  0  0  0
    1.1601   -1.9754   -1.6919 C   0  0  0  0  0  0  0  0  0  0  0  0
    1.8819   -1.4953   -1.0463 H   0  0  0  0  0  0  0  0  0  0  0  0
    1.5028   -3.1661   -2.3587 C   0  0  0  0  0  0  0  0  0  0  0  0
    2.4889   -3.5910   -2.2332 H   0  0  0  0  0  0  0  0  0  0  0  0
    0.5643   -3.8023   -3.1888 C   0  0  0  0  0  0  0  0  0  0  0  0
    0.8285   -4.7158   -3.7029 H   0  0  0  0  0  0  0  0  0  0  0  0
   -0.7174   -3.2472   -3.3562 C   0  0  0  0  0  0  0  0  0  0  0  0
   -1.4371   -3.7331   -3.9986 H   0  0  0  0  0  0  0  0  0  0  0  0
   -1.0586   -2.0555   -2.6923 C   0  0  0  0  0  0  0  0  0  0  0  0
   -2.0438   -1.6276   -2.8247 H   0  0  0  0  0  0  0  0  0  0  0  0
   -1.0922    0.9049    1.1375 C   0  0  0  0  0  0  0  0  0  0  0  0
   -1.7044    1.8564    0.6503 O   0  0  0  0  0  0  0  0  0  0  0  0
   -0.5262    0.9613    2.3497 N   0  0  0  0  0  0  0  0  0  0  0  0
    0.0056    0.1608    2.6559 H   0  0  0  0  0  0  0  0  0  0  0  0
   -0.5627    2.1338    3.2205 C   0  0  0  0  0  0  0  0  0  0  0  0
   -1.5939    2.4723    3.3417 H   0  0  0  0  0  0  0  0  0  0  0  0
   -0.1471    1.8900    4.1986 H   0  0  0  0  0  0  0  0  0  0  0  0
    0.0189    2.9420    2.7728 H   0  0  0  0  0  0  0  0  0  0  0  0
  5  6  2  0  0  0  0
  5  7  1  0  0  0  0
  2  3  1  0  0  0  0
  2  4  1  0  0  0  0
  2  5  1  0  0  0  0
  1  2  1  0  0  0  0
 25 26  2  0  0  0  0
 25 27  1  0  0  0  0
 23 24  1  0  0  0  0
 21 22  1  0  0  0  0
 21 23  2  0  0  0  0
 19 20  1  0  0  0  0
 19 21  1  0  0  0  0
 17 18  1  0  0  0  0
 17 19  2  0  0  0  0
 15 16  1  0  0  0  0
 15 17  1  0  0  0  0
 14 15  2  0  0  0  0
 14 23  1  0  0  0  0
 11 12  1  0  0  0  0
 11 13  1  0  0  0  0
 11 14  1  0  0  0  0
  9 10  1  0  0  0  0
  9 11  1  0  0  0  0
  9 25  1  0  0  0  0
  7  8  1  0  0  0  0
  7  9  1  0  0  0  0
 29 30  1  0  0  0  0
 29 31  1  0  0  0  0
 29 32  1  0  0  0  0
 27 28  1  0  0  0  0
 27 29  1  0  0  0  0
M  END
$$$$
default_name
  -OEChem-01062215323D

 32 32  0     1  0  0  0  0  0999 V2000
   -3.8405   -3.7518    1.6252 H   0  0  0  0  0  0  0  0  0  0  0  0
   -3.7965   -2.8768    0.9782 C   0  0  0  0  0  0  0  0  0  0  0  0
   -4.5465   -2.1527    1.2902 H   0  0  0  0  0  0  0  0  0  0  0  0
   -3.9745   -3.1748   -0.0538 H   0  0  0  0  0  0  0  0  0  0  0  0
   -2.4245   -2.2537    1.0882 C   0  0  0  0  0  0  0  0  0  0  0  0
   -1.5805   -2.7478    1.8242 O   0  0  0  0  0  0  0  0  0  0  0  0
   -2.2045   -1.1637    0.3562 N   0  0  0  0  0  0  0  0  0  0  0  0
   -2.9595   -0.7907   -0.2008 H   0  0  0  0  0  0  0  0  0  0  0  0
   -0.9485   -0.4087    0.3482 C   0  0  1  0  0  0  0  0  0  0  0  0
   -0.1790   -1.0076    0.8379 H   0  0  0  0  0  0  0  0  0  0  0  0
   -0.5148   -0.1592   -1.1064 C   0  0  0  0  0  0  0  0  0  0  0  0
   -1.3368    0.3132   -1.6461 H   0  0  0  0  0  0  0  0  0  0  0  0
    0.3238    0.5388   -1.1108 H   0  0  0  0  0  0  0  0  0  0  0  0
   -0.1222   -1.4180   -1.8561 C   0  0  0  0  0  0  0  0  0  0  0  0
    1.1601   -1.9754   -1.6919 C   0  0  0  0  0  0  0  0  0  0  0  0
    1.8819   -1.4953   -1.0463 H   0  0  0  0  0  0  0  0  0  0  0  0
    1.5028   -3.1661   -2.3587 C   0  0  0  0  0  0  0  0  0  0  0  0
    2.4889   -3.5910   -2.2332 H   0  0  0  0  0  0  0  0  0  0  0  0
    0.5643   -3.8023   -3.1888 C   0  0  0  0  0  0  0  0  0  0  0  0
    0.8285   -4.7158   -3.7029 H   0  0  0  0  0  0  0  0  0  0  0  0
   -0.7174   -3.2472   -3.3562 C   0  0  0  0  0  0  0  0  0  0  0  0
   -1.4371   -3.7331   -3.9986 H   0  0  0  0  0  0  0  0  0  0  0  0
   -1.0586   -2.0555   -2.6923 C   0  0  0  0  0  0  0  0  0  0  0  0
   -2.0438   -1.6276   -2.8247 H   0  0  0  0  0  0  0  0  0  0  0  0
   -1.0922    0.9049    1.1375 C   0  0  0  0  0  0  0  0  0  0  0  0
   -1.9194    1.7490    0.7900 O   0  0  0  0  0  0  0  0  0  0  0  0
   -0.2872    1.0817    2.1928 N   0  0  0  0  0  0  0  0  0  0  0  0
    0.4022    0.3698    2.3804 H   0  0  0  0  0  0  0  0  0  0  0  0
   -0.2903    2.2726    3.0390 C   0  0  0  0  0  0  0  0  0  0  0  0
   -1.3059    2.4787    3.3835 H   0  0  0  0  0  0  0  0  0  0  0  0
    0.3587    2.1234    3.9023 H   0  0  0  0  0  0  0  0  0  0  0  0
    0.0641    3.1315    2.4657 H   0  0  0  0  0  0  0  0  0  0  0  0
  5  6  2  0  0  0  0
  5  7  1  0  0  0  0
  2  3  1  0  0  0  0
  2  4  1  0  0  0  0
  2  5  1  0  0  0  0
  1  2  1  0  0  0  0
 25 26  2  0  0  0  0
 25 27  1  0  0  0  0
 23 24  1  0  0  0  0
 21 22  1  0  0  0  0
 21 23  2  0  0  0  0
 19 20  1  0  0  0  0
 19 21  1  0  0  0  0
 17 18  1  0  0  0  0
 17 19  2  0  0  0  0
 15 16  1  0  0  0  0
 15 17  1  0  0  0  0
 14 15  2  0  0  0  0
 14 23  1  0  0  0  0
 11 12  1  0  0  0  0
 11 13  1  0  0  0  0
 11 14  1  0  0  0  0
  9 10  1  0  0  0  0
  9 11  1  0  0  0  0
  9 25  1  0  0  0  0
  7  8  1  0  0  0  0
  7  9  1  0  0  0  0
 29 30  1  0  0  0  0
 29 31  1  0  0  0  0
 29 32  1  0  0  0  0
 27 28  1  0  0  0  0
 27 29  1  0  0  0  0
M  END
$$$$
default_name
  -OEChem-01062215323D

 32 32  0     1  0  0  0  0  0999 V2000
   -3.8405   -3.7518    1.6252 H   0  0  0  0  0  0  0  0  0  0  0  0
   -3.7965   -2.8768    0.9782 C   0  0  0  0  0  0  0  0  0  0  0  0
   -4.5465   -2.1527    1.2902 H   0  0  0  0  0  0  0  0  0  0  0  0
   -3.9745   -3.1748   -0.0538 H   0  0  0  0  0  0  0  0  0  0  0  0
   -2.4245   -2.2537    1.0882 C   0  0  0  0  0  0  0  0  0  0  0  0
   -1.5805   -2.7478    1.8242 O   0  0  0  0  0  0  0  0  0  0  0  0
   -2.2045   -1.1637    0.3562 N   0  0  0  0  0  0  0  0  0  0  0  0
   -2.9595   -0.7907   -0.2008 H   0  0  0  0  0  0  0  0  0  0  0  0
   -0.9485   -0.4087    0.3482 C   0  0  1  0  0  0  0  0  0  0  0  0
   -0.1790   -1.0076    0.8379 H   0  0  0  0  0  0  0  0  0  0  0  0
   -0.5148   -0.1592   -1.1064 C   0  0  0  0  0  0  0  0  0  0  0  0
   -1.3368    0.3132   -1.6461 H   0  0  0  0  0  0  0  0  0  0  0  0
    0.3238    0.5388   -1.1108 H   0  0  0  0  0  0  0  0  0  0  0  0
   -0.1222   -1.4180   -1.8561 C   0  0  0  0  0  0  0  0  0  0  0  0
    1.1601   -1.9754   -1.6919 C   0  0  0  0  0  0  0  0  0  0  0  0
    1.8819   -1.4953   -1.0463 H   0  0  0  0  0  0  0  0  0  0  0  0
    1.5028   -3.1661   -2.3587 C   0  0  0  0  0  0  0  0  0  0  0  0
    2.4889   -3.5910   -2.2332 H   0  0  0  0  0  0  0  0  0  0  0  0
    0.5643   -3.8023   -3.1888 C   0  0  0  0  0  0  0  0  0  0  0  0
    0.8285   -4.7158   -3.7029 H   0  0  0  0  0  0  0  0  0  0  0  0
   -0.7174   -3.2472   -3.3562 C   0  0  0  0  0  0  0  0  0  0  0  0
   -1.4371   -3.7331   -3.9986 H   0  0  0  0  0  0  0  0  0  0  0  0
   -1.0586   -2.0555   -2.6923 C   0  0  0  0  0  0  0  0  0  0  0  0
   -2.0438   -1.6276   -2.8247 H   0  0  0  0  0  0  0  0  0  0  0  0
   -1.0922    0.9049    1.1375 C   0  0  0  0  0  0  0  0  0  0  0  0
   -2.0820    1.6201    0.9750 O   0  0  0  0  0  0  0  0  0  0  0  0
   -0.1069    1.2260    1.9855 N   0  0  0  0  0  0  0  0  0  0  0  0
    0.6967    0.6175    2.0216 H   0  0  0  0  0  0  0  0  0  0  0  0
   -0.0857    2.4385    2.8002 C   0  0  0  0  0  0  0  0  0  0  0  0
   -1.0194    2.5241    3.3601 H   0  0  0  0  0  0  0  0  0  0  0  0
    0.7509    2.4087    3.4987 H   0  0  0  0  0  0  0  0  0  0  0  0
    0.0147    3.3131    2.1544 H   0  0  0  0  0  0  0  0  0  0  0  0
  5  6  2  0  0  0  0
  5  7  1  0  0  0  0
  2  3  1  0  0  0  0
  2  4  1  0  0  0  0
  2  5  1  0  0  0  0
  1  2  1  0  0  0  0
 25 26  2  0  0  0  0
 25 27  1  0  0  0  0
 23 24  1  0  0  0  0
 21 22  1  0  0  0  0
 21 23  2  0  0  0  0
 19 20  1  0  0  0  0
 19 21  1  0  0  0  0
 17 18  1  0  0  0  0
 17 19  2  0  0  0  0
 15 16  1  0  0  0  0
 15 17  1  0  0  0  0
 14 15  2  0  0  0  0
 14 23  1  0  0  0  0
 11 12  1  0  0  0  0
 11 13  1  0  0  0  0
 11 14  1  0  0  0  0
  9 10  1  0  0  0  0
  9 11  1  0  0  0  0
  9 25  1  0  0  0  0
  7  8  1  0  0  0  0
  7  9  1  0  0  0  0
 29 30  1  0  0  0  0
 29 31  1  0  0  0  0
 29 32  1  0  0  0  0
 27 28  1  0  0  0  0
 27 29  1  0  0  0  0
M  END
$$$$
default_name
  -OEChem-01062215323D

 32 32  0     1  0  0  0  0  0999 V2000
   -3.8405   -3.7518    1.6252 H   0  0  0  0  0  0  0  0  0  0  0  0
   -3.7965   -2.8768    0.9782 C   0  0  0  0  0  0  0  0  0  0  0  0
   -4.5465   -2.1527    1.2902 H   0  0  0  0  0  0  0  0  0  0  0  0
   -3.9745   -3.1748   -0.0538 H   0  0  0  0  0  0  0  0  0  0  0  0
   -2.4245   -2.2537    1.0882 C   0  0  0  0  0  0  0  0  0  0  0  0
   -1.5805   -2.7478    1.8242 O   0  0  0  0  0  0  0  0  0  0  0  0
   -2.2045   -1.1637    0.3562 N   0  0  0  0  0  0  0  0  0  0  0  0
   -2.9595   -0.7907   -0.2008 H   0  0  0  0  0  0  0  0  0  0  0  0
   -0.9485   -0.4087    0.3482 C   0  0  1  0  0  0  0  0  0  0  0  0
   -0.1790   -1.0076    0.8379 H   0  0  0  0  0  0  0  0  0  0  0  0
   -0.5148   -0.1592   -1.1064 C   0  0  0  0  0  0  0  0  0  0  0  0
   -1.3368    0.3132   -1.6461 H   0  0  0  0  0  0  0  0  0  0  0  0
    0.3238    0.5388   -1.1108 H   0  0  0  0  0  0  0  0  0  0  0  0
   -0.1222   -1.4180   -1.8561 C   0  0  0  0  0  0  0  0  0  0  0  0
    1.1601   -1.9754   -1.6919 C   0  0  0  0  0  0  0  0  0  0  0  0
    1.8819   -1.4953   -1.0463 H   0  0  0  0  0  0  0  0  0  0  0  0
    1.5028   -3.1661   -2.3587 C   0  0  0  0  0  0  0  0  0  0  0  0
    2.4889   -3.5910   -2.2332 H   0  0  0  0  0  0  0  0  0  0  0  0
    0.5643   -3.8023   -3.1888 C   0  0  0  0  0  0  0  0  0  0  0  0
    0.8285   -4.7158   -3.7029 H   0  0  0  0  0  0  0  0  0  0  0  0
   -0.7174   -3.2472   -3.3562 C   0  0  0  0  0  0  0  0  0  0  0  0
   -1.4371   -3.7331   -3.9986 H   0  0  0  0  0  0  0  0  0  0  0  0
   -1.0586   -2.0555   -2.6923 C   0  0  0  0  0  0  0  0  0  0  0  0
   -2.0438   -1.6276   -2.8247 H   0  0  0  0  0  0  0  0  0  0  0  0
   -1.0922    0.9049    1.1375 C   0  0  0  0  0  0  0  0  0  0  0  0
   -2.1810    1.4784    1.1927 O   0  0  0  0  0  0  0  0  0  0  0  0
    0.0023    1.3842    1.7420 N   0  0  0  0  0  0  0  0  0  0  0  0
    0.8691    0.8873    1.6039 H   0  0  0  0  0  0  0  0  0  0  0  0
    0.0372    2.6201    2.5203 C   0  0  0  0  0  0  0  0  0  0  0  0
   -0.7538    2.6054    3.2731 H   0  0  0  0  0  0  0  0  0  0  0  0
    1.0027    2.7267    3.0154 H   0  0  0  0  0  0  0  0  0  0  0  0
   -0.1258    3.4744    1.8603 H   0  0  0  0  0  0  0  0  0  0  0  0
  5  6  2  0  0  0  0
  5  7  1  0  0  0  0
  2  3  1  0  0  0  0
  2  4  1  0  0  0  0
  2  5  1  0  0  0  0
  1  2  1  0  0  0  0
 25 26  2  0  0  0  0
 25 27  1  0  0  0  0
 23 24  1  0  0  0  0
 21 22  1  0  0  0  0
 21 23  2  0  0  0  0
 19 20  1  0  0  0  0
 19 21  1  0  0  0  0
 17 18  1  0  0  0  0
 17 19  2  0  0  0  0
 15 16  1  0  0  0  0
 15 17  1  0  0  0  0
 14 15  2  0  0  0  0
 14 23  1  0  0  0  0
 11 12  1  0  0  0  0
 11 13  1  0  0  0  0
 11 14  1  0  0  0  0
  9 10  1  0  0  0  0
  9 11  1  0  0  0  0
  9 25  1  0  0  0  0
  7  8  1  0  0  0  0
  7  9  1  0  0  0  0
 29 30  1  0  0  0  0
 29 31  1  0  0  0  0
 29 32  1  0  0  0  0
 27 28  1  0  0  0  0
 27 29  1  0  0  0  0
M  END
$$$$
default_name
  -OEChem-01062215323D

 32 32  0     1  0  0  0  0  0999 V2000
   -3.8405   -3.7518    1.6252 H   0  0  0  0  0  0  0  0  0  0  0  0
   -3.7965   -2.8768    0.9782 C   0  0  0  0  0  0  0  0  0  0  0  0
   -4.5465   -2.1527    1.2902 H   0  0  0  0  0  0  0  0  0  0  0  0
   -3.9745   -3.1748   -0.0538 H   0  0  0  0  0  0  0  0  0  0  0  0
   -2.4245   -2.2537    1.0882 C   0  0  0  0  0  0  0  0  0  0  0  0
   -1.5805   -2.7478    1.8242 O   0  0  0  0  0  0  0  0  0  0  0  0
   -2.2045   -1.1637    0.3562 N   0  0  0  0  0  0  0  0  0  0  0  0
   -2.9595   -0.7907   -0.2008 H   0  0  0  0  0  0  0  0  0  0  0  0
   -0.9485   -0.4087    0.3482 C   0  0  1  0  0  0  0  0  0  0  0  0
   -0.1790   -1.0076    0.8379 H   0  0  0  0  0  0  0  0  0  0  0  0
   -0.5148   -0.1592   -1.1064 C   0  0  0  0  0  0  0  0  0  0  0  0
   -1.3368    0.3132   -1.6461 H   0  0  0  0  0  0  0  0  0  0  0  0
    0.3238    0.5388   -1.1108 H   0  0  0  0  0  0  0  0  0  0  0  0
   -0.1222   -1.4180   -1.8561 C   0  0  0  0  0  0  0  0  0  0  0  0
    1.1601   -1.9754   -1.6919 C   0  0  0  0  0  0  0  0  0  0  0  0
    1.8819   -1.4953   -1.0463 H   0  0  0  0  0  0  0  0  0  0  0  0
    1.5028   -3.1661   -2.3587 C   0  0  0  0  0  0  0  0  0  0  0  0
    2.4889   -3.5910   -2.2332 H   0  0  0  0  0  0  0  0  0  0  0  0
    0.5643   -3.8023   -3.1888 C   0  0  0  0  0  0  0  0  0  0  0  0
    0.8285   -4.7158   -3.7029 H   0  0  0  0  0  0  0  0  0  0  0  0
   -0.7174   -3.2472   -3.3562 C   0  0  0  0  0  0  0  0  0  0  0  0
   -1.4371   -3.7331   -3.9986 H   0  0  0  0  0  0  0  0  0  0  0  0
   -1.0586   -2.0555   -2.6923 C   0  0  0  0  0  0  0  0  0  0  0  0
   -2.0438   -1.6276   -2.8247 H   0  0  0  0  0  0  0  0  0  0  0  0
   -1.0922    0.9049    1.1375 C   0  0  0  0  0  0  0  0  0  0  0  0
   -2.2098    1.3337    1.4283 O   0  0  0  0  0  0  0  0  0  0  0  0
    0.0330    1.5457    1.4789 N   0  0  0  0  0  0  0  0  0  0  0  0
    0.9075    1.1606    1.1560 H   0  0  0  0  0  0  0  0  0  0  0  0
    0.0699    2.8051    2.2184 C   0  0  0  0  0  0  0  0  0  0  0  0
   -0.5272    2.7171    3.1284 H   0  0  0  0  0  0  0  0  0  0  0  0
    1.0970    3.0555    2.4852 H   0  0  0  0  0  0  0  0  0  0  0  0
   -0.3479    3.6045    1.6034 H   0  0  0  0  0  0  0  0  0  0  0  0
  5  6  2  0  0  0  0
  5  7  1  0  0  0  0
  2  3  1  0  0  0  0
  2  4  1  0  0  0  0
  2  5  1  0  0  0  0
  1  2  1  0  0  0  0
 25 26  2  0  0  0  0
 25 27  1  0  0  0  0
 23 24  1  0  0  0  0
 21 22  1  0  0  0  0
 21 23  2  0  0  0  0
 19 20  1  0  0  0  0
 19 21  1  0  0  0  0
 17 18  1  0  0  0  0
 17 19  2  0  0  0  0
 15 16  1  0  0  0  0
 15 17  1  0  0  0  0
 14 15  2  0  0  0  0
 14 23  1  0  0  0  0
 11 12  1  0  0  0  0
 11 13  1  0  0  0  0
 11 14  1  0  0  0  0
  9 10  1  0  0  0  0
  9 11  1  0  0  0  0
  9 25  1  0  0  0  0
  7  8  1  0  0  0  0
  7  9  1  0  0  0  0
 29 30  1  0  0  0  0
 29 31  1  0  0  0  0
 29 32  1  0  0  0  0
 27 28  1  0  0  0  0
 27 29  1  0  0  0  0
M  END
$$$$
default_name
  -OEChem-01062215323D

 32 32  0     1  0  0  0  0  0999 V2000
   -3.8405   -3.7518    1.6252 H   0  0  0  0  0  0  0  0  0  0  0  0
   -3.7965   -2.8768    0.9782 C   0  0  0  0  0  0  0  0  0  0  0  0
   -4.5465   -2.1527    1.2902 H   0  0  0  0  0  0  0  0  0  0  0  0
   -3.9745   -3.1748   -0.0538 H   0  0  0  0  0  0  0  0  0  0  0  0
   -2.4245   -2.2537    1.0882 C   0  0  0  0  0  0  0  0  0  0  0  0
   -1.5805   -2.7478    1.8242 O   0  0  0  0  0  0  0  0  0  0  0  0
   -2.2045   -1.1637    0.3562 N   0  0  0  0  0  0  0  0  0  0  0  0
   -2.9595   -0.7907   -0.2008 H   0  0  0  0  0  0  0  0  0  0  0  0
   -0.9485   -0.4087    0.3482 C   0  0  1  0  0  0  0  0  0  0  0  0
   -0.1306   -1.0909    0.5857 H   0  0  0  0  0  0  0  0  0  0  0  0
   -0.7083    0.1633   -1.0594 C   0  0  0  0  0  0  0  0  0  0  0  0
   -1.5870    0.7324   -1.3662 H   0  0  0  0  0  0  0  0  0  0  0  0
    0.1336    0.8562   -1.0208 H   0  0  0  0  0  0  0  0  0  0  0  0
   -0.4399   -0.8923   -2.1151 C   0  0  0  0  0  0  0  0  0  0  0  0
    0.8435   -1.4547   -2.2512 C   0  0  0  0  0  0  0  0  0  0  0  0
    1.6527   -1.1201   -1.6176 H   0  0  0  0  0  0  0  0  0  0  0  0
    1.0748   -2.4630   -3.2051 C   0  0  0  0  0  0  0  0  0  0  0  0
    2.0616   -2.8916   -3.3097 H   0  0  0  0  0  0  0  0  0  0  0  0
    0.0237   -2.9118   -4.0227 C   0  0  0  0  0  0  0  0  0  0  0  0
    0.2020   -3.6848   -4.7571 H   0  0  0  0  0  0  0  0  0  0  0  0
   -1.2596   -2.3509   -3.8902 C   0  0  0  0  0  0  0  0  0  0  0  0
   -2.0663   -2.6920   -4.5223 H   0  0  0  0  0  0  0  0  0  0  0  0
   -1.4896   -1.3410   -2.9392 C   0  0  0  0  0  0  0  0  0  0  0  0
   -2.4765   -0.9079   -2.8406 H   0  0  0  0  0  0  0  0  0  0  0  0
   -0.9642    0.6949    1.4210 C   0  0  0  0  0  0  0  0  0  0  0  0
   -1.9534    0.8467    2.1392 O   0  0  0  0  0  0  0  0  0  0  0  0
    0.1246    1.4672    1.5276 N   0  0  0  0  0  0  0  0  0  0  0  0
    0.8715    1.3173    0.8665 H   0  0  0  0  0  0  0  0  0  0  0  0
    0.2661    2.5613    2.4852 C   0  0  0  0  0  0  0  0  0  0  0  0
    0.0377    2.2038    3.4914 H   0  0  0  0  0  0  0  0  0  0  0  0
    1.2843    2.9509    2.4647 H   0  0  0  0  0  0  0  0  0  0  0  0
   -0.4316    3.3623    2.2334 H   0  0  0  0  0  0  0  0  0  0  0  0
  5  6  2  0  0  0  0
  5  7  1  0  0  0  0
  2  3  1  0  0  0  0
  2  4  1  0  0  0  0
  2  5  1  0  0  0  0
  1  2  1  0  0  0  0
 25 26  2  0  0  0  0
 25 27  1  0  0  0  0
 23 24  1  0  0  0  0
 21 22  1  0  0  0  0
 21 23  2  0  0  0  0
 19 20  1  0  0  0  0
 19 21  1  0  0  0  0
 17 18  1  0  0  0  0
 17 19  2  0  0  0  0
 15 16  1  0  0  0  0
 15 17  1  0  0  0  0
 14 15  2  0  0  0  0
 14 23  1  0  0  0  0
 11 12  1  0  0  0  0
 11 13  1  0  0  0  0
 11 14  1  0  0  0  0
  9 10  1  0  0  0  0
  9 11  1  0  0  0  0
  9 25  1  0  0  0  0
  7  8  1  0  0  0  0
  7  9  1  0  0  0  0
 29 30  1  0  0  0  0
 29 31  1  0  0  0  0
 29 32  1  0  0  0  0
 27 28  1  0  0  0  0
 27 29  1  0  0  0  0
M  END
$$$$
default_name
  -OEChem-01062215323D

 32 32  0     1  0  0  0  0  0999 V2000
   -3.8405   -3.7518    1.6252 H   0  0  0  0  0  0  0  0  0  0  0  0
   -3.7965   -2.8768    0.9782 C   0  0  0  0  0  0  0  0  0  0  0  0
   -4.5465   -2.1527    1.2902 H   0  0  0  0  0  0  0  0  0  0  0  0
   -3.9745   -3.1748   -0.0538 H   0  0  0  0  0  0  0  0  0  0  0  0
   -2.4245   -2.2537    1.0882 C   0  0  0  0  0  0  0  0  0  0  0  0
   -1.5805   -2.7478    1.8242 O   0  0  0  0  0  0  0  0  0  0  0  0
   -2.2045   -1.1637    0.3562 N   0  0  0  0  0  0  0  0  0  0  0  0
   -2.9595   -0.7907   -0.2008 H   0  0  0  0  0  0  0  0  0  0  0  0
   -0.9485   -0.4087    0.3482 C   0  0  1  0  0  0  0  0  0  0  0  0
   -0.1306   -1.0909    0.5857 H   0  0  0  0  0  0  0  0  0  0  0  0
   -0.7083    0.1633   -1.0594 C   0  0  0  0  0  0  0  0  0  0  0  0
   -1.5870    0.7324   -1.3662 H   0  0  0  0  0  0  0  0  0  0  0  0
    0.1336    0.8562   -1.0208 H   0  0  0  0  0  0  0  0  0  0  0  0
   -0.4399   -0.8923   -2.1151 C   0  0  0  0  0  0  0  0  0  0  0  0
    0.8435   -1.4547   -2.2512 C   0  0  0  0  0  0  0  0  0  0  0  0
    1.6527   -1.1201   -1.6176 H   0  0  0  0  0  0  0  0  0  0  0  0
    1.0748   -2.4630   -3.2051 C   0  0  0  0  0  0  0  0  0  0  0  0
    2.0616   -2.8916   -3.3097 H   0  0  0  0  0  0  0  0  0  0  0  0
    0.0237   -2.9118   -4.0227 C   0  0  0  0  0  0  0  0  0  0  0  0
    0.2020   -3.6848   -4.7571 H   0  0  0  0  0  0  0  0  0  0  0  0
   -1.2596   -2.3509   -3.8902 C   0  0  0  0  0  0  0  0  0  0  0  0
   -2.0663   -2.6920   -4.5223 H   0  0  0  0  0  0  0  0  0  0  0  0
   -1.4896   -1.3410   -2.9392 C   0  0  0  0  0  0  0  0  0  0  0  0
   -2.4765   -0.9079   -2.8406 H   0  0  0  0  0  0  0  0  0  0  0  0
   -0.9642    0.6949    1.4210 C   0  0  0  0  0  0  0  0  0  0  0  0
   -1.8141    0.6801    2.3126 O   0  0  0  0  0  0  0  0  0  0  0  0
   -0.0322    1.6526    1.3345 N   0  0  0  0  0  0  0  0  0  0  0  0
    0.5938    1.6267    0.5441 H   0  0  0  0  0  0  0  0  0  0  0  0
    0.0843    2.7730    2.2648 C   0  0  0  0  0  0  0  0  0  0  0  0
    0.1148    2.4000    3.2907 H   0  0  0  0  0  0  0  0  0  0  0  0
    0.9936    3.3391    2.0611 H   0  0  0  0  0  0  0  0  0  0  0  0
   -0.7810    3.4301    2.1586 H   0  0  0  0  0  0  0  0  0  0  0  0
  5  6  2  0  0  0  0
  5  7  1  0  0  0  0
  2  3  1  0  0  0  0
  2  4  1  0  0  0  0
  2  5  1  0  0  0  0
  1  2  1  0  0  0  0
 25 26  2  0  0  0  0
 25 27  1  0  0  0  0
 23 24  1  0  0  0  0
 21 22  1  0  0  0  0
 21 23  2  0  0  0  0
 19 20  1  0  0  0  0
 19 21  1  0  0  0  0
 17 18  1  0  0  0  0
 17 19  2  0  0  0  0
 15 16  1  0  0  0  0
 15 17  1  0  0  0  0
 14 15  2  0  0  0  0
 14 23  1  0  0  0  0
 11 12  1  0  0  0  0
 11 13  1  0  0  0  0
 11 14  1  0  0  0  0
  9 10  1  0  0  0  0
  9 11  1  0  0  0  0
  9 25  1  0  0  0  0
  7  8  1  0  0  0  0
  7  9  1  0  0  0  0
 29 30  1  0  0  0  0
 29 31  1  0  0  0  0
 29 32  1  0  0  0  0
 27 28  1  0  0  0  0
 27 29  1  0  0  0  0
M  END
$$$$
default_name
  -OEChem-01062215323D

 32 32  0     1  0  0  0  0  0999 V2000
   -3.8405   -3.7518    1.6252 H   0  0  0  0  0  0  0  0  0  0  0  0
   -3.7965   -2.8768    0.9782 C   0  0  0  0  0  0  0  0  0  0  0  0
   -4.5465   -2.1527    1.2902 H   0  0  0  0  0  0  0  0  0  0  0  0
   -3.9745   -3.1748   -0.0538 H   0  0  0  0  0  0  0  0  0  0  0  0
   -2.4245   -2.2537    1.0882 C   0  0  0  0  0  0  0  0  0  0  0  0
   -1.5805   -2.7478    1.8242 O   0  0  0  0  0  0  0  0  0  0  0  0
   -2.2045   -1.1637    0.3562 N   0  0  0  0  0  0  0  0  0  0  0  0
   -2.9595   -0.7907   -0.2008 H   0  0  0  0  0  0  0  0  0  0  0  0
   -0.9485   -0.4087    0.3482 C   0  0  1  0  0  0  0  0  0  0  0  0
   -0.1306   -1.0909    0.5857 H   0  0  0  0  0  0  0  0  0  0  0  0
   -0.7083    0.1633   -1.0594 C   0  0  0  0  0  0  0  0  0  0  0  0
   -1.5870    0.7324   -1.3662 H   0  0  0  0  0  0  0  0  0  0  0  0
    0.1336    0.8562   -1.0208 H   0  0  0  0  0  0  0  0  0  0  0  0
   -0.4399   -0.8923   -2.1151 C   0  0  0  0  0  0  0  0  0  0  0  0
    0.8435   -1.4547   -2.2512 C   0  0  0  0  0  0  0  0  0  0  0  0
    1.6527   -1.1201   -1.6176 H   0  0  0  0  0  0  0  0  0  0  0  0
    1.0748   -2.4630   -3.2051 C   0  0  0  0  0  0  0  0  0  0  0  0
    2.0616   -2.8916   -3.3097 H   0  0  0  0  0  0  0  0  0  0  0  0
    0.0237   -2.9118   -4.0227 C   0  0  0  0  0  0  0  0  0  0  0  0
    0.2020   -3.6848   -4.7571 H   0  0  0  0  0  0  0  0  0  0  0  0
   -1.2596   -2.3509   -3.8902 C   0  0  0  0  0  0  0  0  0  0  0  0
   -2.0663   -2.6920   -4.5223 H   0  0  0  0  0  0  0  0  0  0  0  0
   -1.4896   -1.3410   -2.9392 C   0  0  0  0  0  0  0  0  0  0  0  0
   -2.4765   -0.9079   -2.8406 H   0  0  0  0  0  0  0  0  0  0  0  0
   -0.9642    0.6949    1.4210 C   0  0  0  0  0  0  0  0  0  0  0  0
   -1.6172    0.5448    2.4547 O   0  0  0  0  0  0  0  0  0  0  0  0
   -0.2530    1.8029    1.1766 N   0  0  0  0  0  0  0  0  0  0  0  0
    0.2098    1.8747    0.2834 H   0  0  0  0  0  0  0  0  0  0  0  0
   -0.1704    2.9440    2.0851 C   0  0  0  0  0  0  0  0  0  0  0  0
    0.1165    2.6029    3.0820 H   0  0  0  0  0  0  0  0  0  0  0  0
    0.5679    3.6606    1.7241 H   0  0  0  0  0  0  0  0  0  0  0  0
   -1.1446    3.4323    2.1510 H   0  0  0  0  0  0  0  0  0  0  0  0
  5  6  2  0  0  0  0
  5  7  1  0  0  0  0
  2  3  1  0  0  0  0
  2  4  1  0  0  0  0
  2  5  1  0  0  0  0
  1  2  1  0  0  0  0
 25 26  2  0  0  0  0
 25 27  1  0  0  0  0
 23 24  1  0  0  0  0
 21 22  1  0  0  0  0
 21 23  2  0  0  0  0
 19 20  1  0  0  0  0
 19 21  1  0  0  0  0
 17 18  1  0  0  0  0
 17 19  2  0  0  0  0
 15 16  1  0  0  0  0
 15 17  1  0  0  0  0
 14 15  2  0  0  0  0
 14 23  1  0  0  0  0
 11 12  1  0  0  0  0
 11 13  1  0  0  0  0
 11 14  1  0  0  0  0
  9 10  1  0  0  0  0
  9 11  1  0  0  0  0
  9 25  1  0  0  0  0
  7  8  1  0  0  0  0
  7  9  1  0  0  0  0
 29 30  1  0  0  0  0
 29 31  1  0  0  0  0
 29 32  1  0  0  0  0
 27 28  1  0  0  0  0
 27 29  1  0  0  0  0
M  END
$$$$
default_name
  -OEChem-01062215323D

 32 32  0     1  0  0  0  0  0999 V2000
   -3.8405   -3.7518    1.6252 H   0  0  0  0  0  0  0  0  0  0  0  0
   -3.7965   -2.8768    0.9782 C   0  0  0  0  0  0  0  0  0  0  0  0
   -4.5465   -2.1527    1.2902 H   0  0  0  0  0  0  0  0  0  0  0  0
   -3.9745   -3.1748   -0.0538 H   0  0  0  0  0  0  0  0  0  0  0  0
   -2.4245   -2.2537    1.0882 C   0  0  0  0  0  0  0  0  0  0  0  0
   -1.5805   -2.7478    1.8242 O   0  0  0  0  0  0  0  0  0  0  0  0
   -2.2045   -1.1637    0.3562 N   0  0  0  0  0  0  0  0  0  0  0  0
   -2.9595   -0.7907   -0.2008 H   0  0  0  0  0  0  0  0  0  0  0  0
   -0.9485   -0.4087    0.3482 C   0  0  1  0  0  0  0  0  0  0  0  0
   -0.1306   -1.0909    0.5857 H   0  0  0  0  0  0  0  0  0  0  0  0
   -0.7083    0.1633   -1.0594 C   0  0  0  0  0  0  0  0  0  0  0  0
   -1.5870    0.7324   -1.3662 H   0  0  0  0  0  0  0  0  0  0  0  0
    0.1336    0.8562   -1.0208 H   0  0  0  0  0  0  0  0  0  0  0  0
   -0.4399   -0.8923   -2.1151 C   0  0  0  0  0  0  0  0  0  0  0  0
    0.8435   -1.4547   -2.2512 C   0  0  0  0  0  0  0  0  0  0  0  0
    1.6527   -1.1201   -1.6176 H   0  0  0  0  0  0  0  0  0  0  0  0
    1.0748   -2.4630   -3.2051 C   0  0  0  0  0  0  0  0  0  0  0  0
    2.0616   -2.8916   -3.3097 H   0  0  0  0  0  0  0  0  0  0  0  0
    0.0237   -2.9118   -4.0227 C   0  0  0  0  0  0  0  0  0  0  0  0
    0.2020   -3.6848   -4.7571 H   0  0  0  0  0  0  0  0  0  0  0  0
   -1.2596   -2.3509   -3.8902 C   0  0  0  0  0  0  0  0  0  0  0  0
   -2.0663   -2.6920   -4.5223 H   0  0  0  0  0  0  0  0  0  0  0  0
   -1.4896   -1.3410   -2.9392 C   0  0  0  0  0  0  0  0  0  0  0  0
   -2.4765   -0.9079   -2.8406 H   0  0  0  0  0  0  0  0  0  0  0  0
   -0.9642    0.6949    1.4210 C   0  0  0  0  0  0  0  0  0  0  0  0
   -1.3762    0.4499    2.5558 O   0  0  0  0  0  0  0  0  0  0  0  0
   -0.5227    1.9079    1.0647 N   0  0  0  0  0  0  0  0  0  0  0  0
   -0.2541    2.0443    0.1021 H   0  0  0  0  0  0  0  0  0  0  0  0
   -0.4806    3.0628    1.9584 C   0  0  0  0  0  0  0  0  0  0  0  0
    0.0429    2.7986    2.8796 H   0  0  0  0  0  0  0  0  0  0  0  0
    0.0361    3.8934    1.4768 H   0  0  0  0  0  0  0  0  0  0  0  0
   -1.4977    3.3688    2.2111 H   0  0  0  0  0  0  0  0  0  0  0  0
  5  6  2  0  0  0  0
  5  7  1  0  0  0  0
  2  3  1  0  0  0  0
  2  4  1  0  0  0  0
  2  5  1  0  0  0  0
  1  2  1  0  0  0  0
 25 26  2  0  0  0  0
 25 27  1  0  0  0  0
 23 24  1  0  0  0  0
 21 22  1  0  0  0  0
 21 23  2  0  0  0  0
 19 20  1  0  0  0  0
 19 21  1  0  0  0  0
 17 18  1  0  0  0  0
 17 19  2  0  0  0  0
 15 16  1  0  0  0  0
 15 17  1  0  0  0  0
 14 15  2  0  0  0  0
 14 23  1  0  0  0  0
 11 12  1  0  0  0  0
 11 13  1  0  0  0  0
 11 14  1  0  0  0  0
  9 10  1  0  0  0  0
  9 11  1  0  0  0  0
  9 25  1  0  0  0  0
  7  8  1  0  0  0  0
  7  9  1  0  0  0  0
 29 30  1  0  0  0  0
 29 31  1  0  0  0  0
 29 32  1  0  0  0  0
 27 28  1  0  0  0  0
 27 29  1  0  0  0  0
M  END
$$$$
default_name
  -OEChem-01062215323D

 32 32  0     1  0  0  0  0  0999 V2000
   -3.8405   -3.7518    1.6252 H   0  0  0  0  0  0  0  0  0  0  0  0
   -3.7965   -2.8768    0.9782 C   0  0  0  0  0  0  0  0  0  0  0  0
   -4.5465   -2.1527    1.2902 H   0  0  0  0  0  0  0  0  0  0  0  0
   -3.9745   -3.1748   -0.0538 H   0  0  0  0  0  0  0  0  0  0  0  0
   -2.4245   -2.2537    1.0882 C   0  0  0  0  0  0  0  0  0  0  0  0
   -1.5805   -2.7478    1.8242 O   0  0  0  0  0  0  0  0  0  0  0  0
   -2.2045   -1.1637    0.3562 N   0  0  0  0  0  0  0  0  0  0  0  0
   -2.9595   -0.7907   -0.2008 H   0  0  0  0  0  0  0  0  0  0  0  0
   -0.9485   -0.4087    0.3482 C   0  0  1  0  0  0  0  0  0  0  0  0
   -0.1306   -1.0909    0.5857 H   0  0  0  0  0  0  0  0  0  0  0  0
   -0.7083    0.1633   -1.0594 C   0  0  0  0  0  0  0  0  0  0  0  0
   -1.5870    0.7324   -1.3662 H   0  0  0  0  0  0  0  0  0  0  0  0
    0.1336    0.8562   -1.0208 H   0  0  0  0  0  0  0  0  0  0  0  0
   -0.4399   -0.8923   -2.1151 C   0  0  0  0  0  0  0  0  0  0  0  0
    0.8435   -1.4547   -2.2512 C   0  0  0  0  0  0  0  0  0  0  0  0
    1.6527   -1.1201   -1.6176 H   0  0  0  0  0  0  0  0  0  0  0  0
    1.0748   -2.4630   -3.2051 C   0  0  0  0  0  0  0  0  0  0  0  0
    2.0616   -2.8916   -3.3097 H   0  0  0  0  0  0  0  0  0  0  0  0
    0.0237   -2.9118   -4.0227 C   0  0  0  0  0  0  0  0  0  0  0  0
    0.2020   -3.6848   -4.7571 H   0  0  0  0  0  0  0  0  0  0  0  0
   -1.2596   -2.3509   -3.8902 C   0  0  0  0  0  0  0  0  0  0  0  0
   -2.0663   -2.6920   -4.5223 H   0  0  0  0  0  0  0  0  0  0  0  0
   -1.4896   -1.3410   -2.9392 C   0  0  0  0  0  0  0  0  0  0  0  0
   -2.4765   -0.9079   -2.8406 H   0  0  0  0  0  0  0  0  0  0  0  0
   -0.9642    0.6949    1.4210 C   0  0  0  0  0  0  0  0  0  0  0  0
   -1.1076    0.4021    2.6089 O   0  0  0  0  0  0  0  0  0  0  0  0
   -0.8229    1.9603    1.0064 N   0  0  0  0  0  0  0  0  0  0  0  0
   -0.7665    2.1239    0.0127 H   0  0  0  0  0  0  0  0  0  0  0  0
   -0.8253    3.1213    1.8932 C   0  0  0  0  0  0  0  0  0  0  0  0
   -0.1011    2.9739    2.6972 H   0  0  0  0  0  0  0  0  0  0  0  0
   -0.5654    4.0218    1.3360 H   0  0  0  0  0  0  0  0  0  0  0  0
   -1.8161    3.2440    2.3349 H   0  0  0  0  0  0  0  0  0  0  0  0
  5  6  2  0  0  0  0
  5  7  1  0  0  0  0
  2  3  1  0  0  0  0
  2  4  1  0  0  0  0
  2  5  1  0  0  0  0
  1  2  1  0  0  0  0
 25 26  2  0  0  0  0
 25 27  1  0  0  0  0
 23 24  1  0  0  0  0
 21 22  1  0  0  0  0
 21 23  2  0  0  0  0
 19 20  1  0  0  0  0
 19 21  1  0  0  0  0
 17 18  1  0  0  0  0
 17 19  2  0  0  0  0
 15 16  1  0  0  0  0
 15 17  1  0  0  0  0
 14 15  2  0  0  0  0
 14 23  1  0  0  0  0
 11 12  1  0  0  0  0
 11 13  1  0  0  0  0
 11 14  1  0  0  0  0
  9 10  1  0  0  0  0
  9 11  1  0  0  0  0
  9 25  1  0  0  0  0
  7  8  1  0  0  0  0
  7  9  1  0  0  0  0
 29 30  1  0  0  0  0
 29 31  1  0  0  0  0
 29 32  1  0  0  0  0
 27 28  1  0  0  0  0
 27 29  1  0  0  0  0
M  END
$$$$
default_name
  -OEChem-01062215323D

 32 32  0     1  0  0  0  0  0999 V2000
   -3.8405   -3.7518    1.6252 H   0  0  0  0  0  0  0  0  0  0  0  0
   -3.7965   -2.8768    0.9782 C   0  0  0  0  0  0  0  0  0  0  0  0
   -4.5465   -2.1527    1.2902 H   0  0  0  0  0  0  0  0  0  0  0  0
   -3.9745   -3.1748   -0.0538 H   0  0  0  0  0  0  0  0  0  0  0  0
   -2.4245   -2.2537    1.0882 C   0  0  0  0  0  0  0  0  0  0  0  0
   -1.5805   -2.7478    1.8242 O   0  0  0  0  0  0  0  0  0  0  0  0
   -2.2045   -1.1637    0.3562 N   0  0  0  0  0  0  0  0  0  0  0  0
   -2.9595   -0.7907   -0.2008 H   0  0  0  0  0  0  0  0  0  0  0  0
   -0.9485   -0.4087    0.3482 C   0  0  1  0  0  0  0  0  0  0  0  0
   -0.1306   -1.0909    0.5857 H   0  0  0  0  0  0  0  0  0  0  0  0
   -0.7083    0.1633   -1.0594 C   0  0  0  0  0  0  0  0  0  0  0  0
   -1.5870    0.7324   -1.3662 H   0  0  0  0  0  0  0  0  0  0  0  0
    0.1336    0.8562   -1.0208 H   0  0  0  0  0  0  0  0  0  0  0  0
   -0.4399   -0.8923   -2.1151 C   0  0  0  0  0  0  0  0  0  0  0  0
    0.8435   -1.4547   -2.2512 C   0  0  0  0  0  0  0  0  0  0  0  0
    1.6527   -1.1201   -1.6176 H   0  0  0  0  0  0  0  0  0  0  0  0
    1.0748   -2.4630   -3.2051 C   0  0  0  0  0  0  0  0  0  0  0  0
    2.0616   -2.8916   -3.3097 H   0  0  0  0  0  0  0  0  0  0  0  0
    0.0237   -2.9118   -4.0227 C   0  0  0  0  0  0  0  0  0  0  0  0
    0.2020   -3.6848   -4.7571 H   0  0  0  0  0  0  0  0  0  0  0  0
   -1.2596   -2.3509   -3.8902 C   0  0  0  0  0  0  0  0  0  0  0  0
   -2.0663   -2.6920   -4.5223 H   0  0  0  0  0  0  0  0  0  0  0  0
   -1.4896   -1.3410   -2.9392 C   0  0  0  0  0  0  0  0  0  0  0  0
   -2.4765   -0.9079   -2.8406 H   0  0  0  0  0  0  0  0  0  0  0  0
   -0.9642    0.6949    1.4210 C   0  0  0  0  0  0  0  0  0  0  0  0
   -0.8297    0.4044    2.6106 O   0  0  0  0  0  0  0  0  0  0  0  0
   -1.1331    1.9567    1.0056 N   0  0  0  0  0  0  0  0  0  0  0  0
   -1.2924    2.1082    0.0212 H   0  0  0  0  0  0  0  0  0  0  0  0
   -1.1808    3.1154    1.8940 C   0  0  0  0  0  0  0  0  0  0  0  0
   -0.3056    3.1167    2.5472 H   0  0  0  0  0  0  0  0  0  0  0  0
   -1.1957    4.0369    1.3113 H   0  0  0  0  0  0  0  0  0  0  0  0
   -2.0781    3.0663    2.5139 H   0  0  0  0  0  0  0  0  0  0  0  0
  5  6  2  0  0  0  0
  5  7  1  0  0  0  0
  2  3  1  0  0  0  0
  2  4  1  0  0  0  0
  2  5  1  0  0  0  0
  1  2  1  0  0  0  0
 25 26  2  0  0  0  0
 25 27  1  0  0  0  0
 23 24  1  0  0  0  0
 21 22  1  0  0  0  0
 21 23  2  0  0  0  0
 19 20  1  0  0  0  0
 19 21  1  0  0  0  0
 17 18  1  0  0  0  0
 17 19  2  0  0  0  0
 15 16  1  0  0  0  0
 15 17  1  0  0  0  0
 14 15  2  0  0  0  0
 14 23  1  0  0  0  0
 11 12  1  0  0  0  0
 11 13  1  0  0  0  0
 11 14  1  0  0  0  0
  9 10  1  0  0  0  0
  9 11  1  0  0  0  0
  9 25  1  0  0  0  0
  7  8  1  0  0  0  0
  7  9  1  0  0  0  0
 29 30  1  0  0  0  0
 29 31  1  0  0  0  0
 29 32  1  0  0  0  0
 27 28  1  0  0  0  0
 27 29  1  0  0  0  0
M  END
$$$$
default_name
  -OEChem-01062215323D

 32 32  0     1  0  0  0  0  0999 V2000
   -3.8405   -3.7518    1.6252 H   0  0  0  0  0  0  0  0  0  0  0  0
   -3.7965   -2.8768    0.9782 C   0  0  0  0  0  0  0  0  0  0  0  0
   -4.5465   -2.1527    1.2902 H   0  0  0  0  0  0  0  0  0  0  0  0
   -3.9745   -3.1748   -0.0538 H   0  0  0  0  0  0  0  0  0  0  0  0
   -2.4245   -2.2537    1.0882 C   0  0  0  0  0  0  0  0  0  0  0  0
   -1.5805   -2.7478    1.8242 O   0  0  0  0  0  0  0  0  0  0  0  0
   -2.2045   -1.1637    0.3562 N   0  0  0  0  0  0  0  0  0  0  0  0
   -2.9595   -0.7907   -0.2008 H   0  0  0  0  0  0  0  0  0  0  0  0
   -0.9485   -0.4087    0.3482 C   0  0  1  0  0  0  0  0  0  0  0  0
   -0.1306   -1.0909    0.5857 H   0  0  0  0  0  0  0  0  0  0  0  0
   -0.7083    0.1633   -1.0594 C   0  0  0  0  0  0  0  0  0  0  0  0
   -1.5870    0.7324   -1.3662 H   0  0  0  0  0  0  0  0  0  0  0  0
    0.1336    0.8562   -1.0208 H   0  0  0  0  0  0  0  0  0  0  0  0
   -0.4399   -0.8923   -2.1151 C   0  0  0  0  0  0  0  0  0  0  0  0
    0.8435   -1.4547   -2.2512 C   0  0  0  0  0  0  0  0  0  0  0  0
    1.6527   -1.1201   -1.6176 H   0  0  0  0  0  0  0  0  0  0  0  0
    1.0748   -2.4630   -3.2051 C   0  0  0  0  0  0  0  0  0  0  0  0
    2.0616   -2.8916   -3.3097 H   0  0  0  0  0  0  0  0  0  0  0  0
    0.0237   -2.9118   -4.0227 C   0  0  0  0  0  0  0  0  0  0  0  0
    0.2020   -3.6848   -4.7571 H   0  0  0  0  0  0  0  0  0  0  0  0
   -1.2596   -2.3509   -3.8902 C   0  0  0  0  0  0  0  0  0  0  0  0
   -2.0663   -2.6920   -4.5223 H   0  0  0  0  0  0  0  0  0  0  0  0
   -1.4896   -1.3410   -2.9392 C   0  0  0  0  0  0  0  0  0  0  0  0
   -2.4765   -0.9079   -2.8406 H   0  0  0  0  0  0  0  0  0  0  0  0
   -0.9642    0.6949    1.4210 C   0  0  0  0  0  0  0  0  0  0  0  0
   -0.5613    0.4569    2.5605 O   0  0  0  0  0  0  0  0  0  0  0  0
   -1.4323    1.8972    1.0625 N   0  0  0  0  0  0  0  0  0  0  0  0
   -1.7959    1.9981    0.1271 H   0  0  0  0  0  0  0  0  0  0  0  0
   -1.5230    3.0456    1.9609 C   0  0  0  0  0  0  0  0  0  0  0  0
   -0.5568    3.2174    2.4400 H   0  0  0  0  0  0  0  0  0  0  0  0
   -1.8118    3.9377    1.4044 H   0  0  0  0  0  0  0  0  0  0  0  0
   -2.2660    2.8478    2.7359 H   0  0  0  0  0  0  0  0  0  0  0  0
  5  6  2  0  0  0  0
  5  7  1  0  0  0  0
  2  3  1  0  0  0  0
  2  4  1  0  0  0  0
  2  5  1  0  0  0  0
  1  2  1  0  0  0  0
 25 26  2  0  0  0  0
 25 27  1  0  0  0  0
 23 24  1  0  0  0  0
 21 22  1  0  0  0  0
 21 23  2  0  0  0  0
 19 20  1  0  0  0  0
 19 21  1  0  0  0  0
 17 18  1  0  0  0  0
 17 19  2  0  0  0  0
 15 16  1  0  0  0  0
 15 17  1  0  0  0  0
 14 15  2  0  0  0  0
 14 23  1  0  0  0  0
 11 12  1  0  0  0  0
 11 13  1  0  0  0  0
 11 14  1  0  0  0  0
  9 10  1  0  0  0  0
  9 11  1  0  0  0  0
  9 25  1  0  0  0  0
  7  8  1  0  0  0  0
  7  9  1  0  0  0  0
 29 30  1  0  0  0  0
 29 31  1  0  0  0  0
 29 32  1  0  0  0  0
 27 28  1  0  0  0  0
 27 29  1  0  0  0  0
M  END
$$$$
default_name
  -OEChem-01062215323D

 32 32  0     1  0  0  0  0  0999 V2000
   -3.8405   -3.7518    1.6252 H   0  0  0  0  0  0  0  0  0  0  0  0
   -3.7965   -2.8768    0.9782 C   0  0  0  0  0  0  0  0  0  0  0  0
   -4.5465   -2.1527    1.2902 H   0  0  0  0  0  0  0  0  0  0  0  0
   -3.9745   -3.1748   -0.0538 H   0  0  0  0  0  0  0  0  0  0  0  0
   -2.4245   -2.2537    1.0882 C   0  0  0  0  0  0  0  0  0  0  0  0
   -1.5805   -2.7478    1.8242 O   0  0  0  0  0  0  0  0  0  0  0  0
   -2.2045   -1.1637    0.3562 N   0  0  0  0  0  0  0  0  0  0  0  0
   -2.9595   -0.7907   -0.2008 H   0  0  0  0  0  0  0  0  0  0  0  0
   -0.9485   -0.4087    0.3482 C   0  0  1  0  0  0  0  0  0  0  0  0
   -0.1306   -1.0909    0.5857 H   0  0  0  0  0  0  0  0  0  0  0  0
   -0.7083    0.1633   -1.0594 C   0  0  0  0  0  0  0  0  0  0  0  0
   -1.5870    0.7324   -1.3662 H   0  0  0  0  0  0  0  0  0  0  0  0
    0.1336    0.8562   -1.0208 H   0  0  0  0  0  0  0  0  0  0  0  0
   -0.4399   -0.8923   -2.1151 C   0  0  0  0  0  0  0  0  0  0  0  0
    0.8435   -1.4547   -2.2512 C   0  0  0  0  0  0  0  0  0  0  0  0
    1.6527   -1.1201   -1.6176 H   0  0  0  0  0  0  0  0  0  0  0  0
    1.0748   -2.4630   -3.2051 C   0  0  0  0  0  0  0  0  0  0  0  0
    2.0616   -2.8916   -3.3097 H   0  0  0  0  0  0  0  0  0  0  0  0
    0.0237   -2.9118   -4.0227 C   0  0  0  0  0  0  0  0  0  0  0  0
    0.2020   -3.6848   -4.7571 H   0  0  0  0  0  0  0  0  0  0  0  0
   -1.2596   -2.3509   -3.8902 C   0  0  0  0  0  0  0  0  0  0  0  0
   -2.0663   -2.6920   -4.5223 H   0  0  0  0  0  0  0  0  0  0  0  0
   -1.4896   -1.3410   -2.9392 C   0  0  0  0  0  0  0  0  0  0  0  0
   -2.4765   -0.9079   -2.8406 H   0  0  0  0  0  0  0  0  0  0  0  0
   -0.9642    0.6949    1.4210 C   0  0  0  0  0  0  0  0  0  0  0  0
   -0.3208    0.5558    2.4623 O   0  0  0  0  0  0  0  0  0  0  0  0
   -1.6999    1.7859    1.1730 N   0  0  0  0  0  0  0  0  0  0  0  0
   -2.2428    1.8013    0.3231 H   0  0  0  0  0  0  0  0  0  0  0  0
   -1.8285    2.9167    2.0891 C   0  0  0  0  0  0  0  0  0  0  0  0
   -0.8375    3.2690    2.3828 H   0  0  0  0  0  0  0  0  0  0  0  0
   -2.3718    3.7310    1.6089 H   0  0  0  0  0  0  0  0  0  0  0  0
   -2.3668    2.6035    2.9858 H   0  0  0  0  0  0  0  0  0  0  0  0
  5  6  2  0  0  0  0
  5  7  1  0  0  0  0
  2  3  1  0  0  0  0
  2  4  1  0  0  0  0
  2  5  1  0  0  0  0
  1  2  1  0  0  0  0
 25 26  2  0  0  0  0
 25 27  1  0  0  0  0
 23 24  1  0  0  0  0
 21 22  1  0  0  0  0
 21 23  2  0  0  0  0
 19 20  1  0  0  0  0
 19 21  1  0  0  0  0
 17 18  1  0  0  0  0
 17 19  2  0  0  0  0
 15 16  1  0  0  0  0
 15 17  1  0  0  0  0
 14 15  2  0  0  0  0
 14 23  1  0  0  0  0
 11 12  1  0  0  0  0
 11 13  1  0  0  0  0
 11 14  1  0  0  0  0
  9 10  1  0  0  0  0
  9 11  1  0  0  0  0
  9 25  1  0  0  0  0
  7  8  1  0  0  0  0
  7  9  1  0  0  0  0
 29 30  1  0  0  0  0
 29 31  1  0  0  0  0
 29 32  1  0  0  0  0
 27 28  1  0  0  0  0
 27 29  1  0  0  0  0
M  END
$$$$
default_name
  -OEChem-01062215323D

 32 32  0     1  0  0  0  0  0999 V2000
   -3.8405   -3.7518    1.6252 H   0  0  0  0  0  0  0  0  0  0  0  0
   -3.7965   -2.8768    0.9782 C   0  0  0  0  0  0  0  0  0  0  0  0
   -4.5465   -2.1527    1.2902 H   0  0  0  0  0  0  0  0  0  0  0  0
   -3.9745   -3.1748   -0.0538 H   0  0  0  0  0  0  0  0  0  0  0  0
   -2.4245   -2.2537    1.0882 C   0  0  0  0  0  0  0  0  0  0  0  0
   -1.5805   -2.7478    1.8242 O   0  0  0  0  0  0  0  0  0  0  0  0
   -2.2045   -1.1637    0.3562 N   0  0  0  0  0  0  0  0  0  0  0  0
   -2.9595   -0.7907   -0.2008 H   0  0  0  0  0  0  0  0  0  0  0  0
   -0.9485   -0.4087    0.3482 C   0  0  1  0  0  0  0  0  0  0  0  0
   -0.1306   -1.0909    0.5857 H   0  0  0  0  0  0  0  0  0  0  0  0
   -0.7083    0.1633   -1.0594 C   0  0  0  0  0  0  0  0  0  0  0  0
   -1.5870    0.7324   -1.3662 H   0  0  0  0  0  0  0  0  0  0  0  0
    0.1336    0.8562   -1.0208 H   0  0  0  0  0  0  0  0  0  0  0  0
   -0.4399   -0.8923   -2.1151 C   0  0  0  0  0  0  0  0  0  0  0  0
    0.8435   -1.4547   -2.2512 C   0  0  0  0  0  0  0  0  0  0  0  0
    1.6527   -1.1201   -1.6176 H   0  0  0  0  0  0  0  0  0  0  0  0
    1.0748   -2.4630   -3.2051 C   0  0  0  0  0  0  0  0  0  0  0  0
    2.0616   -2.8916   -3.3097 H   0  0  0  0  0  0  0  0  0  0  0  0
    0.0237   -2.9118   -4.0227 C   0  0  0  0  0  0  0  0  0  0  0  0
    0.2020   -3.6848   -4.7571 H   0  0  0  0  0  0  0  0  0  0  0  0
   -1.2596   -2.3509   -3.8902 C   0  0  0  0  0  0  0  0  0  0  0  0
   -2.0663   -2.6920   -4.5223 H   0  0  0  0  0  0  0  0  0  0  0  0
   -1.4896   -1.3410   -2.9392 C   0  0  0  0  0  0  0  0  0  0  0  0
   -2.4765   -0.9079   -2.8406 H   0  0  0  0  0  0  0  0  0  0  0  0
   -0.9642    0.6949    1.4210 C   0  0  0  0  0  0  0  0  0  0  0  0
   -0.1246    0.6944    2.3225 O   0  0  0  0  0  0  0  0  0  0  0  0
   -1.9179    1.6304    1.3298 N   0  0  0  0  0  0  0  0  0  0  0  0
   -2.6026    1.5310    0.5959 H   0  0  0  0  0  0  0  0  0  0  0  0
   -2.0766    2.7373    2.2700 C   0  0  0  0  0  0  0  0  0  0  0  0
   -1.1286    3.2681    2.3794 H   0  0  0  0  0  0  0  0  0  0  0  0
   -2.8374    3.4308    1.9108 H   0  0  0  0  0  0  0  0  0  0  0  0
   -2.3738    2.3500    3.2465 H   0  0  0  0  0  0  0  0  0  0  0  0
  5  6  2  0  0  0  0
  5  7  1  0  0  0  0
  2  3  1  0  0  0  0
  2  4  1  0  0  0  0
  2  5  1  0  0  0  0
  1  2  1  0  0  0  0
 25 26  2  0  0  0  0
 25 27  1  0  0  0  0
 23 24  1  0  0  0  0
 21 22  1  0  0  0  0
 21 23  2  0  0  0  0
 19 20  1  0  0  0  0
 19 21  1  0  0  0  0
 17 18  1  0  0  0  0
 17 19  2  0  0  0  0
 15 16  1  0  0  0  0
 15 17  1  0  0  0  0
 14 15  2  0  0  0  0
 14 23  1  0  0  0  0
 11 12  1  0  0  0  0
 11 13  1  0  0  0  0
 11 14  1  0  0  0  0
  9 10  1  0  0  0  0
  9 11  1  0  0  0  0
  9 25  1  0  0  0  0
  7  8  1  0  0  0  0
  7  9  1  0  0  0  0
 29 30  1  0  0  0  0
 29 31  1  0  0  0  0
 29 32  1  0  0  0  0
 27 28  1  0  0  0  0
 27 29  1  0  0  0  0
M  END
$$$$
default_name
  -OEChem-01062215323D

 32 32  0     1  0  0  0  0  0999 V2000
   -3.8405   -3.7518    1.6252 H   0  0  0  0  0  0  0  0  0  0  0  0
   -3.7965   -2.8768    0.9782 C   0  0  0  0  0  0  0  0  0  0  0  0
   -4.5465   -2.1527    1.2902 H   0  0  0  0  0  0  0  0  0  0  0  0
   -3.9745   -3.1748   -0.0538 H   0  0  0  0  0  0  0  0  0  0  0  0
   -2.4245   -2.2537    1.0882 C   0  0  0  0  0  0  0  0  0  0  0  0
   -1.5805   -2.7478    1.8242 O   0  0  0  0  0  0  0  0  0  0  0  0
   -2.2045   -1.1637    0.3562 N   0  0  0  0  0  0  0  0  0  0  0  0
   -2.9595   -0.7907   -0.2008 H   0  0  0  0  0  0  0  0  0  0  0  0
   -0.9485   -0.4087    0.3482 C   0  0  1  0  0  0  0  0  0  0  0  0
   -0.1306   -1.0909    0.5857 H   0  0  0  0  0  0  0  0  0  0  0  0
   -0.7083    0.1633   -1.0594 C   0  0  0  0  0  0  0  0  0  0  0  0
   -1.5870    0.7324   -1.3662 H   0  0  0  0  0  0  0  0  0  0  0  0
    0.1336    0.8562   -1.0208 H   0  0  0  0  0  0  0  0  0  0  0  0
   -0.4399   -0.8923   -2.1151 C   0  0  0  0  0  0  0  0  0  0  0  0
    0.8435   -1.4547   -2.2512 C   0  0  0  0  0  0  0  0  0  0  0  0
    1.6527   -1.1201   -1.6176 H   0  0  0  0  0  0  0  0  0  0  0  0
    1.0748   -2.4630   -3.2051 C   0  0  0  0  0  0  0  0  0  0  0  0
    2.0616   -2.8916   -3.3097 H   0  0  0  0  0  0  0  0  0  0  0  0
    0.0237   -2.9118   -4.0227 C   0  0  0  0  0  0  0  0  0  0  0  0
    0.2020   -3.6848   -4.7571 H   0  0  0  0  0  0  0  0  0  0  0  0
   -1.2596   -2.3509   -3.8902 C   0  0  0  0  0  0  0  0  0  0  0  0
   -2.0663   -2.6920   -4.5223 H   0  0  0  0  0  0  0  0  0  0  0  0
   -1.4896   -1.3410   -2.9392 C   0  0  0  0  0  0  0  0  0  0  0  0
   -2.4765   -0.9079   -2.8406 H   0  0  0  0  0  0  0  0  0  0  0  0
   -0.9642    0.6949    1.4210 C   0  0  0  0  0  0  0  0  0  0  0  0
    0.0139    0.8634    2.1507 O   0  0  0  0  0  0  0  0  0  0  0  0
   -2.0713    1.4413    1.5221 N   0  0  0  0  0  0  0  0  0  0  0  0
   -2.8507    1.2058    0.9268 H   0  0  0  0  0  0  0  0  0  0  0  0
   -2.2503    2.5198    2.4912 C   0  0  0  0  0  0  0  0  0  0  0  0
   -1.4101    3.2148    2.4302 H   0  0  0  0  0  0  0  0  0  0  0  0
   -3.1770    3.0577    2.2897 H   0  0  0  0  0  0  0  0  0  0  0  0
   -2.2864    2.1046    3.5002 H   0  0  0  0  0  0  0  0  0  0  0  0
  5  6  2  0  0  0  0
  5  7  1  0  0  0  0
  2  3  1  0  0  0  0
  2  4  1  0  0  0  0
  2  5  1  0  0  0  0
  1  2  1  0  0  0  0
 25 26  2  0  0  0  0
 25 27  1  0  0  0  0
 23 24  1  0  0  0  0
 21 22  1  0  0  0  0
 21 23  2  0  0  0  0
 19 20  1  0  0  0  0
 19 21  1  0  0  0  0
 17 18  1  0  0  0  0
 17 19  2  0  0  0  0
 15 16  1  0  0  0  0
 15 17  1  0  0  0  0
 14 15  2  0  0  0  0
 14 23  1  0  0  0  0
 11 12  1  0  0  0  0
 11 13  1  0  0  0  0
 11 14  1  0  0  0  0
  9 10  1  0  0  0  0
  9 11  1  0  0  0  0
  9 25  1  0  0  0  0
  7  8  1  0  0  0  0
  7  9  1  0  0  0  0
 29 30  1  0  0  0  0
 29 31  1  0  0  0  0
 29 32  1  0  0  0  0
 27 28  1  0  0  0  0
 27 29  1  0  0  0  0
M  END
$$$$
default_name
  -OEChem-01062215323D

 32 32  0     1  0  0  0  0  0999 V2000
   -3.8405   -3.7518    1.6252 H   0  0  0  0  0  0  0  0  0  0  0  0
   -3.7965   -2.8768    0.9782 C   0  0  0  0  0  0  0  0  0  0  0  0
   -4.5465   -2.1527    1.2902 H   0  0  0  0  0  0  0  0  0  0  0  0
   -3.9745   -3.1748   -0.0538 H   0  0  0  0  0  0  0  0  0  0  0  0
   -2.4245   -2.2537    1.0882 C   0  0  0  0  0  0  0  0  0  0  0  0
   -1.5805   -2.7478    1.8242 O   0  0  0  0  0  0  0  0  0  0  0  0
   -2.2045   -1.1637    0.3562 N   0  0  0  0  0  0  0  0  0  0  0  0
   -2.9595   -0.7907   -0.2008 H   0  0  0  0  0  0  0  0  0  0  0  0
   -0.9485   -0.4087    0.3482 C   0  0  1  0  0  0  0  0  0  0  0  0
   -0.1306   -1.0909    0.5857 H   0  0  0  0  0  0  0  0  0  0  0  0
   -0.7083    0.1633   -1.0594 C   0  0  0  0  0  0  0  0  0  0  0  0
   -1.5870    0.7324   -1.3662 H   0  0  0  0  0  0  0  0  0  0  0  0
    0.1336    0.8562   -1.0208 H   0  0  0  0  0  0  0  0  0  0  0  0
   -0.4399   -0.8923   -2.1151 C   0  0  0  0  0  0  0  0  0  0  0  0
    0.8435   -1.4547   -2.2512 C   0  0  0  0  0  0  0  0  0  0  0  0
    1.6527   -1.1201   -1.6176 H   0  0  0  0  0  0  0  0  0  0  0  0
    1.0748   -2.4630   -3.2051 C   0  0  0  0  0  0  0  0  0  0  0  0
    2.0616   -2.8916   -3.3097 H   0  0  0  0  0  0  0  0  0  0  0  0
    0.0237   -2.9118   -4.0227 C   0  0  0  0  0  0  0  0  0  0  0  0
    0.2020   -3.6848   -4.7571 H   0  0  0  0  0  0  0  0  0  0  0  0
   -1.2596   -2.3509   -3.8902 C   0  0  0  0  0  0  0  0  0  0  0  0
   -2.0663   -2.6920   -4.5223 H   0  0  0  0  0  0  0  0  0  0  0  0
   -1.4896   -1.3410   -2.9392 C   0  0  0  0  0  0  0  0  0  0  0  0
   -2.4765   -0.9079   -2.8406 H   0  0  0  0  0  0  0  0  0  0  0  0
   -0.9642    0.6949    1.4210 C   0  0  0  0  0  0  0  0  0  0  0  0
    0.0854    1.0512    1.9586 O   0  0  0  0  0  0  0  0  0  0  0  0
   -2.1497    1.2315    1.7368 N   0  0  0  0  0  0  0  0  0  0  0  0
   -2.9703    0.8478    1.2934 H   0  0  0  0  0  0  0  0  0  0  0  0
   -2.3377    2.2789    2.7377 C   0  0  0  0  0  0  0  0  0  0  0  0
   -1.6631    3.1126    2.5317 H   0  0  0  0  0  0  0  0  0  0  0  0
   -3.3675    2.6370    2.7197 H   0  0  0  0  0  0  0  0  0  0  0  0
   -2.1106    1.8839    3.7298 H   0  0  0  0  0  0  0  0  0  0  0  0
  5  6  2  0  0  0  0
  5  7  1  0  0  0  0
  2  3  1  0  0  0  0
  2  4  1  0  0  0  0
  2  5  1  0  0  0  0
  1  2  1  0  0  0  0
 25 26  2  0  0  0  0
 25 27  1  0  0  0  0
 23 24  1  0  0  0  0
 21 22  1  0  0  0  0
 21 23  2  0  0  0  0
 19 20  1  0  0  0  0
 19 21  1  0  0  0  0
 17 18  1  0  0  0  0
 17 19  2  0  0  0  0
 15 16  1  0  0  0  0
 15 17  1  0  0  0  0
 14 15  2  0  0  0  0
 14 23  1  0  0  0  0
 11 12  1  0  0  0  0
 11 13  1  0  0  0  0
 11 14  1  0  0  0  0
  9 10  1  0  0  0  0
  9 11  1  0  0  0  0
  9 25  1  0  0  0  0
  7  8  1  0  0  0  0
  7  9  1  0  0  0  0
 29 30  1  0  0  0  0
 29 31  1  0  0  0  0
 29 32  1  0  0  0  0
 27 28  1  0  0  0  0
 27 29  1  0  0  0  0
M  END
$$$$
default_name
  -OEChem-01062215323D

 32 32  0     1  0  0  0  0  0999 V2000
   -3.8405   -3.7518    1.6252 H   0  0  0  0  0  0  0  0  0  0  0  0
   -3.7965   -2.8768    0.9782 C   0  0  0  0  0  0  0  0  0  0  0  0
   -4.5465   -2.1527    1.2902 H   0  0  0  0  0  0  0  0  0  0  0  0
   -3.9745   -3.1748   -0.0538 H   0  0  0  0  0  0  0  0  0  0  0  0
   -2.4245   -2.2537    1.0882 C   0  0  0  0  0  0  0  0  0  0  0  0
   -1.5805   -2.7478    1.8242 O   0  0  0  0  0  0  0  0  0  0  0  0
   -2.2045   -1.1637    0.3562 N   0  0  0  0  0  0  0  0  0  0  0  0
   -2.9595   -0.7907   -0.2008 H   0  0  0  0  0  0  0  0  0  0  0  0
   -0.9485   -0.4087    0.3482 C   0  0  1  0  0  0  0  0  0  0  0  0
   -0.1306   -1.0909    0.5857 H   0  0  0  0  0  0  0  0  0  0  0  0
   -0.7083    0.1633   -1.0594 C   0  0  0  0  0  0  0  0  0  0  0  0
   -1.5870    0.7324   -1.3662 H   0  0  0  0  0  0  0  0  0  0  0  0
    0.1336    0.8562   -1.0208 H   0  0  0  0  0  0  0  0  0  0  0  0
   -0.4399   -0.8923   -2.1151 C   0  0  0  0  0  0  0  0  0  0  0  0
    0.8435   -1.4547   -2.2512 C   0  0  0  0  0  0  0  0  0  0  0  0
    1.6527   -1.1201   -1.6176 H   0  0  0  0  0  0  0  0  0  0  0  0
    1.0748   -2.4630   -3.2051 C   0  0  0  0  0  0  0  0  0  0  0  0
    2.0616   -2.8916   -3.3097 H   0  0  0  0  0  0  0  0  0  0  0  0
    0.0237   -2.9118   -4.0227 C   0  0  0  0  0  0  0  0  0  0  0  0
    0.2020   -3.6848   -4.7571 H   0  0  0  0  0  0  0  0  0  0  0  0
   -1.2596   -2.3509   -3.8902 C   0  0  0  0  0  0  0  0  0  0  0  0
   -2.0663   -2.6920   -4.5223 H   0  0  0  0  0  0  0  0  0  0  0  0
   -1.4896   -1.3410   -2.9392 C   0  0  0  0  0  0  0  0  0  0  0  0
   -2.4765   -0.9079   -2.8406 H   0  0  0  0  0  0  0  0  0  0  0  0
   -0.9642    0.6949    1.4210 C   0  0  0  0  0  0  0  0  0  0  0  0
    0.0849    1.2449    1.7593 O   0  0  0  0  0  0  0  0  0  0  0  0
   -2.1477    1.0153    1.9593 N   0  0  0  0  0  0  0  0  0  0  0  0
   -2.9533    0.4814    1.6706 H   0  0  0  0  0  0  0  0  0  0  0  0
   -2.3330    2.0311    2.9927 C   0  0  0  0  0  0  0  0  0  0  0  0
   -1.8701    2.9685    2.6769 H   0  0  0  0  0  0  0  0  0  0  0  0
   -3.3957    2.1974    3.1715 H   0  0  0  0  0  0  0  0  0  0  0  0
   -1.8585    1.7031    3.9195 H   0  0  0  0  0  0  0  0  0  0  0  0
  5  6  2  0  0  0  0
  5  7  1  0  0  0  0
  2  3  1  0  0  0  0
  2  4  1  0  0  0  0
  2  5  1  0  0  0  0
  1  2  1  0  0  0  0
 25 26  2  0  0  0  0
 25 27  1  0  0  0  0
 23 24  1  0  0  0  0
 21 22  1  0  0  0  0
 21 23  2  0  0  0  0
 19 20  1  0  0  0  0
 19 21  1  0  0  0  0
 17 18  1  0  0  0  0
 17 19  2  0  0  0  0
 15 16  1  0  0  0  0
 15 17  1  0  0  0  0
 14 15  2  0  0  0  0
 14 23  1  0  0  0  0
 11 12  1  0  0  0  0
 11 13  1  0  0  0  0
 11 14  1  0  0  0  0
  9 10  1  0  0  0  0
  9 11  1  0  0  0  0
  9 25  1  0  0  0  0
  7  8  1  0  0  0  0
  7  9  1  0  0  0  0
 29 30  1  0  0  0  0
 29 31  1  0  0  0  0
 29 32  1  0  0  0  0
 27 28  1  0  0  0  0
 27 29  1  0  0  0  0
M  END
$$$$
default_name
  -OEChem-01062215323D

 32 32  0     1  0  0  0  0  0999 V2000
   -3.8405   -3.7518    1.6252 H   0  0  0  0  0  0  0  0  0  0  0  0
   -3.7965   -2.8768    0.9782 C   0  0  0  0  0  0  0  0  0  0  0  0
   -4.5465   -2.1527    1.2902 H   0  0  0  0  0  0  0  0  0  0  0  0
   -3.9745   -3.1748   -0.0538 H   0  0  0  0  0  0  0  0  0  0  0  0
   -2.4245   -2.2537    1.0882 C   0  0  0  0  0  0  0  0  0  0  0  0
   -1.5805   -2.7478    1.8242 O   0  0  0  0  0  0  0  0  0  0  0  0
   -2.2045   -1.1637    0.3562 N   0  0  0  0  0  0  0  0  0  0  0  0
   -2.9595   -0.7907   -0.2008 H   0  0  0  0  0  0  0  0  0  0  0  0
   -0.9485   -0.4087    0.3482 C   0  0  1  0  0  0  0  0  0  0  0  0
   -0.1306   -1.0909    0.5857 H   0  0  0  0  0  0  0  0  0  0  0  0
   -0.7083    0.1633   -1.0594 C   0  0  0  0  0  0  0  0  0  0  0  0
   -1.5870    0.7324   -1.3662 H   0  0  0  0  0  0  0  0  0  0  0  0
    0.1336    0.8562   -1.0208 H   0  0  0  0  0  0  0  0  0  0  0  0
   -0.4399   -0.8923   -2.1151 C   0  0  0  0  0  0  0  0  0  0  0  0
    0.8435   -1.4547   -2.2512 C   0  0  0  0  0  0  0  0  0  0  0  0
    1.6527   -1.1201   -1.6176 H   0  0  0  0  0  0  0  0  0  0  0  0
    1.0748   -2.4630   -3.2051 C   0  0  0  0  0  0  0  0  0  0  0  0
    2.0616   -2.8916   -3.3097 H   0  0  0  0  0  0  0  0  0  0  0  0
    0.0237   -2.9118   -4.0227 C   0  0  0  0  0  0  0  0  0  0  0  0
    0.2020   -3.6848   -4.7571 H   0  0  0  0  0  0  0  0  0  0  0  0
   -1.2596   -2.3509   -3.8902 C   0  0  0  0  0  0  0  0  0  0  0  0
   -2.0663   -2.6920   -4.5223 H   0  0  0  0  0  0  0  0  0  0  0  0
   -1.4896   -1.3410   -2.9392 C   0  0  0  0  0  0  0  0  0  0  0  0
   -2.4765   -0.9079   -2.8406 H   0  0  0  0  0  0  0  0  0  0  0  0
   -0.9642    0.6949    1.4210 C   0  0  0  0  0  0  0  0  0  0  0  0
    0.0125    1.4314    1.5663 O   0  0  0  0  0  0  0  0  0  0  0  0
   -2.0655    0.8074    2.1744 N   0  0  0  0  0  0  0  0  0  0  0  0
   -2.8006    0.1315    2.0328 H   0  0  0  0  0  0  0  0  0  0  0  0
   -2.2365    1.7933    3.2388 C   0  0  0  0  0  0  0  0  0  0  0  0
   -2.0172    2.7923    2.8560 H   0  0  0  0  0  0  0  0  0  0  0  0
   -3.2598    1.7690    3.6143 H   0  0  0  0  0  0  0  0  0  0  0  0
   -1.5470    1.5744    4.0564 H   0  0  0  0  0  0  0  0  0  0  0  0
  5  6  2  0  0  0  0
  5  7  1  0  0  0  0
  2  3  1  0  0  0  0
  2  4  1  0  0  0  0
  2  5  1  0  0  0  0
  1  2  1  0  0  0  0
 25 26  2  0  0  0  0
 25 27  1  0  0  0  0
 23 24  1  0  0  0  0
 21 22  1  0  0  0  0
 21 23  2  0  0  0  0
 19 20  1  0  0  0  0
 19 21  1  0  0  0  0
 17 18  1  0  0  0  0
 17 19  2  0  0  0  0
 15 16  1  0  0  0  0
 15 17  1  0  0  0  0
 14 15  2  0  0  0  0
 14 23  1  0  0  0  0
 11 12  1  0  0  0  0
 11 13  1  0  0  0  0
 11 14  1  0  0  0  0
  9 10  1  0  0  0  0
  9 11  1  0  0  0  0
  9 25  1  0  0  0  0
  7  8  1  0  0  0  0
  7  9  1  0  0  0  0
 29 30  1  0  0  0  0
 29 31  1  0  0  0  0
 29 32  1  0  0  0  0
 27 28  1  0  0  0  0
 27 29  1  0  0  0  0
M  END
$$$$
default_name
  -OEChem-01062215323D

 32 32  0     1  0  0  0  0  0999 V2000
   -3.8405   -3.7518    1.6252 H   0  0  0  0  0  0  0  0  0  0  0  0
   -3.7965   -2.8768    0.9782 C   0  0  0  0  0  0  0  0  0  0  0  0
   -4.5465   -2.1527    1.2902 H   0  0  0  0  0  0  0  0  0  0  0  0
   -3.9745   -3.1748   -0.0538 H   0  0  0  0  0  0  0  0  0  0  0  0
   -2.4245   -2.2537    1.0882 C   0  0  0  0  0  0  0  0  0  0  0  0
   -1.5805   -2.7478    1.8242 O   0  0  0  0  0  0  0  0  0  0  0  0
   -2.2045   -1.1637    0.3562 N   0  0  0  0  0  0  0  0  0  0  0  0
   -2.9595   -0.7907   -0.2008 H   0  0  0  0  0  0  0  0  0  0  0  0
   -0.9485   -0.4087    0.3482 C   0  0  1  0  0  0  0  0  0  0  0  0
   -0.1306   -1.0909    0.5857 H   0  0  0  0  0  0  0  0  0  0  0  0
   -0.7083    0.1633   -1.0594 C   0  0  0  0  0  0  0  0  0  0  0  0
   -1.5870    0.7324   -1.3662 H   0  0  0  0  0  0  0  0  0  0  0  0
    0.1336    0.8562   -1.0208 H   0  0  0  0  0  0  0  0  0  0  0  0
   -0.4399   -0.8923   -2.1151 C   0  0  0  0  0  0  0  0  0  0  0  0
    0.8435   -1.4547   -2.2512 C   0  0  0  0  0  0  0  0  0  0  0  0
    1.6527   -1.1201   -1.6176 H   0  0  0  0  0  0  0  0  0  0  0  0
    1.0748   -2.4630   -3.2051 C   0  0  0  0  0  0  0  0  0  0  0  0
    2.0616   -2.8916   -3.3097 H   0  0  0  0  0  0  0  0  0  0  0  0
    0.0237   -2.9118   -4.0227 C   0  0  0  0  0  0  0  0  0  0  0  0
    0.2020   -3.6848   -4.7571 H   0  0  0  0  0  0  0  0  0  0  0  0
   -1.2596   -2.3509   -3.8902 C   0  0  0  0  0  0  0  0  0  0  0  0
   -2.0663   -2.6920   -4.5223 H   0  0  0  0  0  0  0  0  0  0  0  0
   -1.4896   -1.3410   -2.9392 C   0  0  0  0  0  0  0  0  0  0  0  0
   -2.4765   -0.9079   -2.8406 H   0  0  0  0  0  0  0  0  0  0  0  0
   -0.9642    0.6949    1.4210 C   0  0  0  0  0  0  0  0  0  0  0  0
   -0.1269    1.5980    1.3929 O   0  0  0  0  0  0  0  0  0  0  0  0
   -1.9086    0.6219    2.3675 N   0  0  0  0  0  0  0  0  0  0  0  0
   -2.5229   -0.1780    2.3552 H   0  0  0  0  0  0  0  0  0  0  0  0
   -2.0547    1.5817    3.4591 C   0  0  0  0  0  0  0  0  0  0  0  0
   -2.0942    2.5961    3.0567 H   0  0  0  0  0  0  0  0  0  0  0  0
   -2.9691    1.3808    4.0179 H   0  0  0  0  0  0  0  0  0  0  0  0
   -1.1976    1.5067    4.1312 H   0  0  0  0  0  0  0  0  0  0  0  0
  5  6  2  0  0  0  0
  5  7  1  0  0  0  0
  2  3  1  0  0  0  0
  2  4  1  0  0  0  0
  2  5  1  0  0  0  0
  1  2  1  0  0  0  0
 25 26  2  0  0  0  0
 25 27  1  0  0  0  0
 23 24  1  0  0  0  0
 21 22  1  0  0  0  0
 21 23  2  0  0  0  0
 19 20  1  0  0  0  0
 19 21  1  0  0  0  0
 17 18  1  0  0  0  0
 17 19  2  0  0  0  0
 15 16  1  0  0  0  0
 15 17  1  0  0  0  0
 14 15  2  0  0  0  0
 14 23  1  0  0  0  0
 11 12  1  0  0  0  0
 11 13  1  0  0  0  0
 11 14  1  0  0  0  0
  9 10  1  0  0  0  0
  9 11  1  0  0  0  0
  9 25  1  0  0  0  0
  7  8  1  0  0  0  0
  7  9  1  0  0  0  0
 29 30  1  0  0  0  0
 29 31  1  0  0  0  0
 29 32  1  0  0  0  0
 27 28  1  0  0  0  0
 27 29  1  0  0  0  0
M  END
$$$$
default_name
  -OEChem-01062215323D

 32 32  0     1  0  0  0  0  0999 V2000
   -3.8405   -3.7518    1.6252 H   0  0  0  0  0  0  0  0  0  0  0  0
   -3.7965   -2.8768    0.9782 C   0  0  0  0  0  0  0  0  0  0  0  0
   -4.5465   -2.1527    1.2902 H   0  0  0  0  0  0  0  0  0  0  0  0
   -3.9745   -3.1748   -0.0538 H   0  0  0  0  0  0  0  0  0  0  0  0
   -2.4245   -2.2537    1.0882 C   0  0  0  0  0  0  0  0  0  0  0  0
   -1.5805   -2.7478    1.8242 O   0  0  0  0  0  0  0  0  0  0  0  0
   -2.2045   -1.1637    0.3562 N   0  0  0  0  0  0  0  0  0  0  0  0
   -2.9595   -0.7907   -0.2008 H   0  0  0  0  0  0  0  0  0  0  0  0
   -0.9485   -0.4087    0.3482 C   0  0  1  0  0  0  0  0  0  0  0  0
   -0.1306   -1.0909    0.5857 H   0  0  0  0  0  0  0  0  0  0  0  0
   -0.7083    0.1633   -1.0594 C   0  0  0  0  0  0  0  0  0  0  0  0
   -1.5870    0.7324   -1.3662 H   0  0  0  0  0  0  0  0  0  0  0  0
    0.1336    0.8562   -1.0208 H   0  0  0  0  0  0  0  0  0  0  0  0
   -0.4399   -0.8923   -2.1151 C   0  0  0  0  0  0  0  0  0  0  0  0
    0.8435   -1.4547   -2.2512 C   0  0  0  0  0  0  0  0  0  0  0  0
    1.6527   -1.1201   -1.6176 H   0  0  0  0  0  0  0  0  0  0  0  0
    1.0748   -2.4630   -3.2051 C   0  0  0  0  0  0  0  0  0  0  0  0
    2.0616   -2.8916   -3.3097 H   0  0  0  0  0  0  0  0  0  0  0  0
    0.0237   -2.9118   -4.0227 C   0  0  0  0  0  0  0  0  0  0  0  0
    0.2020   -3.6848   -4.7571 H   0  0  0  0  0  0  0  0  0  0  0  0
   -1.2596   -2.3509   -3.8902 C   0  0  0  0  0  0  0  0  0  0  0  0
   -2.0663   -2.6920   -4.5223 H   0  0  0  0  0  0  0  0  0  0  0  0
   -1.4896   -1.3410   -2.9392 C   0  0  0  0  0  0  0  0  0  0  0  0
   -2.4765   -0.9079   -2.8406 H   0  0  0  0  0  0  0  0  0  0  0  0
   -0.9642    0.6949    1.4210 C   0  0  0  0  0  0  0  0  0  0  0  0
   -0.3237    1.7334    1.2508 O   0  0  0  0  0  0  0  0  0  0  0  0
   -1.6879    0.4716    2.5253 N   0  0  0  0  0  0  0  0  0  0  0  0
   -2.1390   -0.4260    2.6159 H   0  0  0  0  0  0  0  0  0  0  0  0
   -1.8000    1.4106    3.6388 C   0  0  0  0  0  0  0  0  0  0  0  0
   -2.0960    2.3932    3.2654 H   0  0  0  0  0  0  0  0  0  0  0  0
   -2.5434    1.0593    4.3549 H   0  0  0  0  0  0  0  0  0  0  0  0
   -0.8340    1.5045    4.1388 H   0  0  0  0  0  0  0  0  0  0  0  0
  5  6  2  0  0  0  0
  5  7  1  0  0  0  0
  2  3  1  0  0  0  0
  2  4  1  0  0  0  0
  2  5  1  0  0  0  0
  1  2  1  0  0  0  0
 25 26  2  0  0  0  0
 25 27  1  0  0  0  0
 23 24  1  0  0  0  0
 21 22  1  0  0  0  0
 21 23  2  0  0  0  0
 19 20  1  0  0  0  0
 19 21  1  0  0  0  0
 17 18  1  0  0  0  0
 17 19  2  0  0  0  0
 15 16  1  0  0  0  0
 15 17  1  0  0  0  0
 14 15  2  0  0  0  0
 14 23  1  0  0  0  0
 11 12  1  0  0  0  0
 11 13  1  0  0  0  0
 11 14  1  0  0  0  0
  9 10  1  0  0  0  0
  9 11  1  0  0  0  0
  9 25  1  0  0  0  0
  7  8  1  0  0  0  0
  7  9  1  0  0  0  0
 29 30  1  0  0  0  0
 29 31  1  0  0  0  0
 29 32  1  0  0  0  0
 27 28  1  0  0  0  0
 27 29  1  0  0  0  0
M  END
$$$$
default_name
  -OEChem-01062215323D

 32 32  0     1  0  0  0  0  0999 V2000
   -3.8405   -3.7518    1.6252 H   0  0  0  0  0  0  0  0  0  0  0  0
   -3.7965   -2.8768    0.9782 C   0  0  0  0  0  0  0  0  0  0  0  0
   -4.5465   -2.1527    1.2902 H   0  0  0  0  0  0  0  0  0  0  0  0
   -3.9745   -3.1748   -0.0538 H   0  0  0  0  0  0  0  0  0  0  0  0
   -2.4245   -2.2537    1.0882 C   0  0  0  0  0  0  0  0  0  0  0  0
   -1.5805   -2.7478    1.8242 O   0  0  0  0  0  0  0  0  0  0  0  0
   -2.2045   -1.1637    0.3562 N   0  0  0  0  0  0  0  0  0  0  0  0
   -2.9595   -0.7907   -0.2008 H   0  0  0  0  0  0  0  0  0  0  0  0
   -0.9485   -0.4087    0.3482 C   0  0  1  0  0  0  0  0  0  0  0  0
   -0.1306   -1.0909    0.5857 H   0  0  0  0  0  0  0  0  0  0  0  0
   -0.7083    0.1633   -1.0594 C   0  0  0  0  0  0  0  0  0  0  0  0
   -1.5870    0.7324   -1.3662 H   0  0  0  0  0  0  0  0  0  0  0  0
    0.1336    0.8562   -1.0208 H   0  0  0  0  0  0  0  0  0  0  0  0
   -0.4399   -0.8923   -2.1151 C   0  0  0  0  0  0  0  0  0  0  0  0
    0.8435   -1.4547   -2.2512 C   0  0  0  0  0  0  0  0  0  0  0  0
    1.6527   -1.1201   -1.6176 H   0  0  0  0  0  0  0  0  0  0  0  0
    1.0748   -2.4630   -3.2051 C   0  0  0  0  0  0  0  0  0  0  0  0
    2.0616   -2.8916   -3.3097 H   0  0  0  0  0  0  0  0  0  0  0  0
    0.0237   -2.9118   -4.0227 C   0  0  0  0  0  0  0  0  0  0  0  0
    0.2020   -3.6848   -4.7571 H   0  0  0  0  0  0  0  0  0  0  0  0
   -1.2596   -2.3509   -3.8902 C   0  0  0  0  0  0  0  0  0  0  0  0
   -2.0663   -2.6920   -4.5223 H   0  0  0  0  0  0  0  0  0  0  0  0
   -1.4896   -1.3410   -2.9392 C   0  0  0  0  0  0  0  0  0  0  0  0
   -2.4765   -0.9079   -2.8406 H   0  0  0  0  0  0  0  0  0  0  0  0
   -0.9642    0.6949    1.4210 C   0  0  0  0  0  0  0  0  0  0  0  0
   -0.5647    1.8282    1.1497 O   0  0  0  0  0  0  0  0  0  0  0  0
   -1.4182    0.3666    2.6372 N   0  0  0  0  0  0  0  0  0  0  0  0
   -1.6750   -0.5956    2.7972 H   0  0  0  0  0  0  0  0  0  0  0  0
   -1.4897    1.2918    3.7656 C   0  0  0  0  0  0  0  0  0  0  0  0
   -2.0224    2.1975    3.4679 H   0  0  0  0  0  0  0  0  0  0  0  0
   -2.0117    0.8264    4.6021 H   0  0  0  0  0  0  0  0  0  0  0  0
   -0.4809    1.5679    4.0786 H   0  0  0  0  0  0  0  0  0  0  0  0
  5  6  2  0  0  0  0
  5  7  1  0  0  0  0
  2  3  1  0  0  0  0
  2  4  1  0  0  0  0
  2  5  1  0  0  0  0
  1  2  1  0  0  0  0
 25 26  2  0  0  0  0
 25 27  1  0  0  0  0
 23 24  1  0  0  0  0
 21 22  1  0  0  0  0
 21 23  2  0  0  0  0
 19 20  1  0  0  0  0
 19 21  1  0  0  0  0
 17 18  1  0  0  0  0
 17 19  2  0  0  0  0
 15 16  1  0  0  0  0
 15 17  1  0  0  0  0
 14 15  2  0  0  0  0
 14 23  1  0  0  0  0
 11 12  1  0  0  0  0
 11 13  1  0  0  0  0
 11 14  1  0  0  0  0
  9 10  1  0  0  0  0
  9 11  1  0  0  0  0
  9 25  1  0  0  0  0
  7  8  1  0  0  0  0
  7  9  1  0  0  0  0
 29 30  1  0  0  0  0
 29 31  1  0  0  0  0
 29 32  1  0  0  0  0
 27 28  1  0  0  0  0
 27 29  1  0  0  0  0
M  END
$$$$
default_name
  -OEChem-01062215323D

 32 32  0     1  0  0  0  0  0999 V2000
   -3.8405   -3.7518    1.6252 H   0  0  0  0  0  0  0  0  0  0  0  0
   -3.7965   -2.8768    0.9782 C   0  0  0  0  0  0  0  0  0  0  0  0
   -4.5465   -2.1527    1.2902 H   0  0  0  0  0  0  0  0  0  0  0  0
   -3.9745   -3.1748   -0.0538 H   0  0  0  0  0  0  0  0  0  0  0  0
   -2.4245   -2.2537    1.0882 C   0  0  0  0  0  0  0  0  0  0  0  0
   -1.5805   -2.7478    1.8242 O   0  0  0  0  0  0  0  0  0  0  0  0
   -2.2045   -1.1637    0.3562 N   0  0  0  0  0  0  0  0  0  0  0  0
   -2.9595   -0.7907   -0.2008 H   0  0  0  0  0  0  0  0  0  0  0  0
   -0.9485   -0.4087    0.3482 C   0  0  1  0  0  0  0  0  0  0  0  0
   -0.1306   -1.0909    0.5857 H   0  0  0  0  0  0  0  0  0  0  0  0
   -0.7083    0.1633   -1.0594 C   0  0  0  0  0  0  0  0  0  0  0  0
   -1.5870    0.7324   -1.3662 H   0  0  0  0  0  0  0  0  0  0  0  0
    0.1336    0.8562   -1.0208 H   0  0  0  0  0  0  0  0  0  0  0  0
   -0.4399   -0.8923   -2.1151 C   0  0  0  0  0  0  0  0  0  0  0  0
    0.8435   -1.4547   -2.2512 C   0  0  0  0  0  0  0  0  0  0  0  0
    1.6527   -1.1201   -1.6176 H   0  0  0  0  0  0  0  0  0  0  0  0
    1.0748   -2.4630   -3.2051 C   0  0  0  0  0  0  0  0  0  0  0  0
    2.0616   -2.8916   -3.3097 H   0  0  0  0  0  0  0  0  0  0  0  0
    0.0237   -2.9118   -4.0227 C   0  0  0  0  0  0  0  0  0  0  0  0
    0.2020   -3.6848   -4.7571 H   0  0  0  0  0  0  0  0  0  0  0  0
   -1.2596   -2.3509   -3.8902 C   0  0  0  0  0  0  0  0  0  0  0  0
   -2.0663   -2.6920   -4.5223 H   0  0  0  0  0  0  0  0  0  0  0  0
   -1.4896   -1.3410   -2.9392 C   0  0  0  0  0  0  0  0  0  0  0  0
   -2.4765   -0.9079   -2.8406 H   0  0  0  0  0  0  0  0  0  0  0  0
   -0.9642    0.6949    1.4210 C   0  0  0  0  0  0  0  0  0  0  0  0
   -0.8333    1.8761    1.0966 O   0  0  0  0  0  0  0  0  0  0  0  0
   -1.1180    0.3142    2.6956 N   0  0  0  0  0  0  0  0  0  0  0  0
   -1.1626   -0.6752    2.8866 H   0  0  0  0  0  0  0  0  0  0  0  0
   -1.1451    1.2334    3.8308 C   0  0  0  0  0  0  0  0  0  0  0  0
   -1.8784    2.0222    3.6503 H   0  0  0  0  0  0  0  0  0  0  0  0
   -1.4101    0.6981    4.7429 H   0  0  0  0  0  0  0  0  0  0  0  0
   -0.1626    1.6928    3.9549 H   0  0  0  0  0  0  0  0  0  0  0  0
  5  6  2  0  0  0  0
  5  7  1  0  0  0  0
  2  3  1  0  0  0  0
  2  4  1  0  0  0  0
  2  5  1  0  0  0  0
  1  2  1  0  0  0  0
 25 26  2  0  0  0  0
 25 27  1  0  0  0  0
 23 24  1  0  0  0  0
 21 22  1  0  0  0  0
 21 23  2  0  0  0  0
 19 20  1  0  0  0  0
 19 21  1  0  0  0  0
 17 18  1  0  0  0  0
 17 19  2  0  0  0  0
 15 16  1  0  0  0  0
 15 17  1  0  0  0  0
 14 15  2  0  0  0  0
 14 23  1  0  0  0  0
 11 12  1  0  0  0  0
 11 13  1  0  0  0  0
 11 14  1  0  0  0  0
  9 10  1  0  0  0  0
  9 11  1  0  0  0  0
  9 25  1  0  0  0  0
  7  8  1  0  0  0  0
  7  9  1  0  0  0  0
 29 30  1  0  0  0  0
 29 31  1  0  0  0  0
 29 32  1  0  0  0  0
 27 28  1  0  0  0  0
 27 29  1  0  0  0  0
M  END
$$$$
default_name
  -OEChem-01062215323D

 32 32  0     1  0  0  0  0  0999 V2000
   -3.8405   -3.7518    1.6252 H   0  0  0  0  0  0  0  0  0  0  0  0
   -3.7965   -2.8768    0.9782 C   0  0  0  0  0  0  0  0  0  0  0  0
   -4.5465   -2.1527    1.2902 H   0  0  0  0  0  0  0  0  0  0  0  0
   -3.9745   -3.1748   -0.0538 H   0  0  0  0  0  0  0  0  0  0  0  0
   -2.4245   -2.2537    1.0882 C   0  0  0  0  0  0  0  0  0  0  0  0
   -1.5805   -2.7478    1.8242 O   0  0  0  0  0  0  0  0  0  0  0  0
   -2.2045   -1.1637    0.3562 N   0  0  0  0  0  0  0  0  0  0  0  0
   -2.9595   -0.7907   -0.2008 H   0  0  0  0  0  0  0  0  0  0  0  0
   -0.9485   -0.4087    0.3482 C   0  0  1  0  0  0  0  0  0  0  0  0
   -0.1306   -1.0909    0.5857 H   0  0  0  0  0  0  0  0  0  0  0  0
   -0.7083    0.1633   -1.0594 C   0  0  0  0  0  0  0  0  0  0  0  0
   -1.5870    0.7324   -1.3662 H   0  0  0  0  0  0  0  0  0  0  0  0
    0.1336    0.8562   -1.0208 H   0  0  0  0  0  0  0  0  0  0  0  0
   -0.4399   -0.8923   -2.1151 C   0  0  0  0  0  0  0  0  0  0  0  0
    0.8435   -1.4547   -2.2512 C   0  0  0  0  0  0  0  0  0  0  0  0
    1.6527   -1.1201   -1.6176 H   0  0  0  0  0  0  0  0  0  0  0  0
    1.0748   -2.4630   -3.2051 C   0  0  0  0  0  0  0  0  0  0  0  0
    2.0616   -2.8916   -3.3097 H   0  0  0  0  0  0  0  0  0  0  0  0
    0.0237   -2.9118   -4.0227 C   0  0  0  0  0  0  0  0  0  0  0  0
    0.2020   -3.6848   -4.7571 H   0  0  0  0  0  0  0  0  0  0  0  0
   -1.2596   -2.3509   -3.8902 C   0  0  0  0  0  0  0  0  0  0  0  0
   -2.0663   -2.6920   -4.5223 H   0  0  0  0  0  0  0  0  0  0  0  0
   -1.4896   -1.3410   -2.9392 C   0  0  0  0  0  0  0  0  0  0  0  0
   -2.4765   -0.9079   -2.8406 H   0  0  0  0  0  0  0  0  0  0  0  0
   -0.9642    0.6949    1.4210 C   0  0  0  0  0  0  0  0  0  0  0  0
   -1.1112    1.8737    1.0949 O   0  0  0  0  0  0  0  0  0  0  0  0
   -0.8078    0.3178    2.6963 N   0  0  0  0  0  0  0  0  0  0  0  0
   -0.6367   -0.6594    2.8780 H   0  0  0  0  0  0  0  0  0  0  0  0
   -0.7896    1.2392    3.8299 C   0  0  0  0  0  0  0  0  0  0  0  0
   -1.6738    1.8794    3.8002 H   0  0  0  0  0  0  0  0  0  0  0  0
   -0.7798    0.6830    4.7677 H   0  0  0  0  0  0  0  0  0  0  0  0
    0.0995    1.8705    3.7759 H   0  0  0  0  0  0  0  0  0  0  0  0
  5  6  2  0  0  0  0
  5  7  1  0  0  0  0
  2  3  1  0  0  0  0
  2  4  1  0  0  0  0
  2  5  1  0  0  0  0
  1  2  1  0  0  0  0
 25 26  2  0  0  0  0
 25 27  1  0  0  0  0
 23 24  1  0  0  0  0
 21 22  1  0  0  0  0
 21 23  2  0  0  0  0
 19 20  1  0  0  0  0
 19 21  1  0  0  0  0
 17 18  1  0  0  0  0
 17 19  2  0  0  0  0
 15 16  1  0  0  0  0
 15 17  1  0  0  0  0
 14 15  2  0  0  0  0
 14 23  1  0  0  0  0
 11 12  1  0  0  0  0
 11 13  1  0  0  0  0
 11 14  1  0  0  0  0
  9 10  1  0  0  0  0
  9 11  1  0  0  0  0
  9 25  1  0  0  0  0
  7  8  1  0  0  0  0
  7  9  1  0  0  0  0
 29 30  1  0  0  0  0
 29 31  1  0  0  0  0
 29 32  1  0  0  0  0
 27 28  1  0  0  0  0
 27 29  1  0  0  0  0
M  END
$$$$
default_name
  -OEChem-01062215323D

 32 32  0     1  0  0  0  0  0999 V2000
   -3.8405   -3.7518    1.6252 H   0  0  0  0  0  0  0  0  0  0  0  0
   -3.7965   -2.8768    0.9782 C   0  0  0  0  0  0  0  0  0  0  0  0
   -4.5465   -2.1527    1.2902 H   0  0  0  0  0  0  0  0  0  0  0  0
   -3.9745   -3.1748   -0.0538 H   0  0  0  0  0  0  0  0  0  0  0  0
   -2.4245   -2.2537    1.0882 C   0  0  0  0  0  0  0  0  0  0  0  0
   -1.5805   -2.7478    1.8242 O   0  0  0  0  0  0  0  0  0  0  0  0
   -2.2045   -1.1637    0.3562 N   0  0  0  0  0  0  0  0  0  0  0  0
   -2.9595   -0.7907   -0.2008 H   0  0  0  0  0  0  0  0  0  0  0  0
   -0.9485   -0.4087    0.3482 C   0  0  1  0  0  0  0  0  0  0  0  0
   -0.1306   -1.0909    0.5857 H   0  0  0  0  0  0  0  0  0  0  0  0
   -0.7083    0.1633   -1.0594 C   0  0  0  0  0  0  0  0  0  0  0  0
   -1.5870    0.7324   -1.3662 H   0  0  0  0  0  0  0  0  0  0  0  0
    0.1336    0.8562   -1.0208 H   0  0  0  0  0  0  0  0  0  0  0  0
   -0.4399   -0.8923   -2.1151 C   0  0  0  0  0  0  0  0  0  0  0  0
    0.8435   -1.4547   -2.2512 C   0  0  0  0  0  0  0  0  0  0  0  0
    1.6527   -1.1201   -1.6176 H   0  0  0  0  0  0  0  0  0  0  0  0
    1.0748   -2.4630   -3.2051 C   0  0  0  0  0  0  0  0  0  0  0  0
    2.0616   -2.8916   -3.3097 H   0  0  0  0  0  0  0  0  0  0  0  0
    0.0237   -2.9118   -4.0227 C   0  0  0  0  0  0  0  0  0  0  0  0
    0.2020   -3.6848   -4.7571 H   0  0  0  0  0  0  0  0  0  0  0  0
   -1.2596   -2.3509   -3.8902 C   0  0  0  0  0  0  0  0  0  0  0  0
   -2.0663   -2.6920   -4.5223 H   0  0  0  0  0  0  0  0  0  0  0  0
   -1.4896   -1.3410   -2.9392 C   0  0  0  0  0  0  0  0  0  0  0  0
   -2.4765   -0.9079   -2.8406 H   0  0  0  0  0  0  0  0  0  0  0  0
   -0.9642    0.6949    1.4210 C   0  0  0  0  0  0  0  0  0  0  0  0
   -1.3796    1.8213    1.1449 O   0  0  0  0  0  0  0  0  0  0  0  0
   -0.5086    0.3773    2.6395 N   0  0  0  0  0  0  0  0  0  0  0  0
   -0.1332   -0.5494    2.7722 H   0  0  0  0  0  0  0  0  0  0  0  0
   -0.4474    1.3090    3.7631 C   0  0  0  0  0  0  0  0  0  0  0  0
   -1.4226    1.7787    3.9074 H   0  0  0  0  0  0  0  0  0  0  0  0
   -0.1637    0.7822    4.6746 H   0  0  0  0  0  0  0  0  0  0  0  0
    0.2874    2.0889    3.5539 H   0  0  0  0  0  0  0  0  0  0  0  0
  5  6  2  0  0  0  0
  5  7  1  0  0  0  0
  2  3  1  0  0  0  0
  2  4  1  0  0  0  0
  2  5  1  0  0  0  0
  1  2  1  0  0  0  0
 25 26  2  0  0  0  0
 25 27  1  0  0  0  0
 23 24  1  0  0  0  0
 21 22  1  0  0  0  0
 21 23  2  0  0  0  0
 19 20  1  0  0  0  0
 19 21  1  0  0  0  0
 17 18  1  0  0  0  0
 17 19  2  0  0  0  0
 15 16  1  0  0  0  0
 15 17  1  0  0  0  0
 14 15  2  0  0  0  0
 14 23  1  0  0  0  0
 11 12  1  0  0  0  0
 11 13  1  0  0  0  0
 11 14  1  0  0  0  0
  9 10  1  0  0  0  0
  9 11  1  0  0  0  0
  9 25  1  0  0  0  0
  7  8  1  0  0  0  0
  7  9  1  0  0  0  0
 29 30  1  0  0  0  0
 29 31  1  0  0  0  0
 29 32  1  0  0  0  0
 27 28  1  0  0  0  0
 27 29  1  0  0  0  0
M  END
$$$$
default_name
  -OEChem-01062215323D

 32 32  0     1  0  0  0  0  0999 V2000
   -3.8405   -3.7518    1.6252 H   0  0  0  0  0  0  0  0  0  0  0  0
   -3.7965   -2.8768    0.9782 C   0  0  0  0  0  0  0  0  0  0  0  0
   -4.5465   -2.1527    1.2902 H   0  0  0  0  0  0  0  0  0  0  0  0
   -3.9745   -3.1748   -0.0538 H   0  0  0  0  0  0  0  0  0  0  0  0
   -2.4245   -2.2537    1.0882 C   0  0  0  0  0  0  0  0  0  0  0  0
   -1.5805   -2.7478    1.8242 O   0  0  0  0  0  0  0  0  0  0  0  0
   -2.2045   -1.1637    0.3562 N   0  0  0  0  0  0  0  0  0  0  0  0
   -2.9595   -0.7907   -0.2008 H   0  0  0  0  0  0  0  0  0  0  0  0
   -0.9485   -0.4087    0.3482 C   0  0  1  0  0  0  0  0  0  0  0  0
   -0.1306   -1.0909    0.5857 H   0  0  0  0  0  0  0  0  0  0  0  0
   -0.7083    0.1633   -1.0594 C   0  0  0  0  0  0  0  0  0  0  0  0
   -1.5870    0.7324   -1.3662 H   0  0  0  0  0  0  0  0  0  0  0  0
    0.1336    0.8562   -1.0208 H   0  0  0  0  0  0  0  0  0  0  0  0
   -0.4399   -0.8923   -2.1151 C   0  0  0  0  0  0  0  0  0  0  0  0
    0.8435   -1.4547   -2.2512 C   0  0  0  0  0  0  0  0  0  0  0  0
    1.6527   -1.1201   -1.6176 H   0  0  0  0  0  0  0  0  0  0  0  0
    1.0748   -2.4630   -3.2051 C   0  0  0  0  0  0  0  0  0  0  0  0
    2.0616   -2.8916   -3.3097 H   0  0  0  0  0  0  0  0  0  0  0  0
    0.0237   -2.9118   -4.0227 C   0  0  0  0  0  0  0  0  0  0  0  0
    0.2020   -3.6848   -4.7571 H   0  0  0  0  0  0  0  0  0  0  0  0
   -1.2596   -2.3509   -3.8902 C   0  0  0  0  0  0  0  0  0  0  0  0
   -2.0663   -2.6920   -4.5223 H   0  0  0  0  0  0  0  0  0  0  0  0
   -1.4896   -1.3410   -2.9392 C   0  0  0  0  0  0  0  0  0  0  0  0
   -2.4765   -0.9079   -2.8406 H   0  0  0  0  0  0  0  0  0  0  0  0
   -0.9642    0.6949    1.4210 C   0  0  0  0  0  0  0  0  0  0  0  0
   -1.6201    1.7224    1.2432 O   0  0  0  0  0  0  0  0  0  0  0  0
   -0.2409    0.4886    2.5289 N   0  0  0  0  0  0  0  0  0  0  0  0
    0.3137   -0.3525    2.5762 H   0  0  0  0  0  0  0  0  0  0  0  0
   -0.1419    1.4380    3.6349 C   0  0  0  0  0  0  0  0  0  0  0  0
   -1.1420    1.7270    3.9647 H   0  0  0  0  0  0  0  0  0  0  0  0
    0.3963    0.9889    4.4701 H   0  0  0  0  0  0  0  0  0  0  0  0
    0.3882    2.3332    3.3040 H   0  0  0  0  0  0  0  0  0  0  0  0
  5  6  2  0  0  0  0
  5  7  1  0  0  0  0
  2  3  1  0  0  0  0
  2  4  1  0  0  0  0
  2  5  1  0  0  0  0
  1  2  1  0  0  0  0
 25 26  2  0  0  0  0
 25 27  1  0  0  0  0
 23 24  1  0  0  0  0
 21 22  1  0  0  0  0
 21 23  2  0  0  0  0
 19 20  1  0  0  0  0
 19 21  1  0  0  0  0
 17 18  1  0  0  0  0
 17 19  2  0  0  0  0
 15 16  1  0  0  0  0
 15 17  1  0  0  0  0
 14 15  2  0  0  0  0
 14 23  1  0  0  0  0
 11 12  1  0  0  0  0
 11 13  1  0  0  0  0
 11 14  1  0  0  0  0
  9 10  1  0  0  0  0
  9 11  1  0  0  0  0
  9 25  1  0  0  0  0
  7  8  1  0  0  0  0
  7  9  1  0  0  0  0
 29 30  1  0  0  0  0
 29 31  1  0  0  0  0
 29 32  1  0  0  0  0
 27 28  1  0  0  0  0
 27 29  1  0  0  0  0
M  END
$$$$
default_name
  -OEChem-01062215323D

 32 32  0     1  0  0  0  0  0999 V2000
   -3.8405   -3.7518    1.6252 H   0  0  0  0  0  0  0  0  0  0  0  0
   -3.7965   -2.8768    0.9782 C   0  0  0  0  0  0  0  0  0  0  0  0
   -4.5465   -2.1527    1.2902 H   0  0  0  0  0  0  0  0  0  0  0  0
   -3.9745   -3.1748   -0.0538 H   0  0  0  0  0  0  0  0  0  0  0  0
   -2.4245   -2.2537    1.0882 C   0  0  0  0  0  0  0  0  0  0  0  0
   -1.5805   -2.7478    1.8242 O   0  0  0  0  0  0  0  0  0  0  0  0
   -2.2045   -1.1637    0.3562 N   0  0  0  0  0  0  0  0  0  0  0  0
   -2.9595   -0.7907   -0.2008 H   0  0  0  0  0  0  0  0  0  0  0  0
   -0.9485   -0.4087    0.3482 C   0  0  1  0  0  0  0  0  0  0  0  0
   -0.1306   -1.0909    0.5857 H   0  0  0  0  0  0  0  0  0  0  0  0
   -0.7083    0.1633   -1.0594 C   0  0  0  0  0  0  0  0  0  0  0  0
   -1.5870    0.7324   -1.3662 H   0  0  0  0  0  0  0  0  0  0  0  0
    0.1336    0.8562   -1.0208 H   0  0  0  0  0  0  0  0  0  0  0  0
   -0.4399   -0.8923   -2.1151 C   0  0  0  0  0  0  0  0  0  0  0  0
    0.8435   -1.4547   -2.2512 C   0  0  0  0  0  0  0  0  0  0  0  0
    1.6527   -1.1201   -1.6176 H   0  0  0  0  0  0  0  0  0  0  0  0
    1.0748   -2.4630   -3.2051 C   0  0  0  0  0  0  0  0  0  0  0  0
    2.0616   -2.8916   -3.3097 H   0  0  0  0  0  0  0  0  0  0  0  0
    0.0237   -2.9118   -4.0227 C   0  0  0  0  0  0  0  0  0  0  0  0
    0.2020   -3.6848   -4.7571 H   0  0  0  0  0  0  0  0  0  0  0  0
   -1.2596   -2.3509   -3.8902 C   0  0  0  0  0  0  0  0  0  0  0  0
   -2.0663   -2.6920   -4.5223 H   0  0  0  0  0  0  0  0  0  0  0  0
   -1.4896   -1.3410   -2.9392 C   0  0  0  0  0  0  0  0  0  0  0  0
   -2.4765   -0.9079   -2.8406 H   0  0  0  0  0  0  0  0  0  0  0  0
   -0.9642    0.6949    1.4210 C   0  0  0  0  0  0  0  0  0  0  0  0
   -1.8163    1.5837    1.3830 O   0  0  0  0  0  0  0  0  0  0  0  0
   -0.0229    0.6441    2.3722 N   0  0  0  0  0  0  0  0  0  0  0  0
    0.6734   -0.0823    2.3034 H   0  0  0  0  0  0  0  0  0  0  0  0
    0.1062    1.6173    3.4540 C   0  0  0  0  0  0  0  0  0  0  0  0
   -0.8509    1.7279    3.9680 H   0  0  0  0  0  0  0  0  0  0  0  0
    0.8619    1.2891    4.1681 H   0  0  0  0  0  0  0  0  0  0  0  0
    0.3952    2.5867    3.0433 H   0  0  0  0  0  0  0  0  0  0  0  0
  5  6  2  0  0  0  0
  5  7  1  0  0  0  0
  2  3  1  0  0  0  0
  2  4  1  0  0  0  0
  2  5  1  0  0  0  0
  1  2  1  0  0  0  0
 25 26  2  0  0  0  0
 25 27  1  0  0  0  0
 23 24  1  0  0  0  0
 21 22  1  0  0  0  0
 21 23  2  0  0  0  0
 19 20  1  0  0  0  0
 19 21  1  0  0  0  0
 17 18  1  0  0  0  0
 17 19  2  0  0  0  0
 15 16  1  0  0  0  0
 15 17  1  0  0  0  0
 14 15  2  0  0  0  0
 14 23  1  0  0  0  0
 11 12  1  0  0  0  0
 11 13  1  0  0  0  0
 11 14  1  0  0  0  0
  9 10  1  0  0  0  0
  9 11  1  0  0  0  0
  9 25  1  0  0  0  0
  7  8  1  0  0  0  0
  7  9  1  0  0  0  0
 29 30  1  0  0  0  0
 29 31  1  0  0  0  0
 29 32  1  0  0  0  0
 27 28  1  0  0  0  0
 27 29  1  0  0  0  0
M  END
$$$$
default_name
  -OEChem-01062215323D

 32 32  0     1  0  0  0  0  0999 V2000
   -3.8405   -3.7518    1.6252 H   0  0  0  0  0  0  0  0  0  0  0  0
   -3.7965   -2.8768    0.9782 C   0  0  0  0  0  0  0  0  0  0  0  0
   -4.5465   -2.1527    1.2902 H   0  0  0  0  0  0  0  0  0  0  0  0
   -3.9745   -3.1748   -0.0538 H   0  0  0  0  0  0  0  0  0  0  0  0
   -2.4245   -2.2537    1.0882 C   0  0  0  0  0  0  0  0  0  0  0  0
   -1.5805   -2.7478    1.8242 O   0  0  0  0  0  0  0  0  0  0  0  0
   -2.2045   -1.1637    0.3562 N   0  0  0  0  0  0  0  0  0  0  0  0
   -2.9595   -0.7907   -0.2008 H   0  0  0  0  0  0  0  0  0  0  0  0
   -0.9485   -0.4087    0.3482 C   0  0  1  0  0  0  0  0  0  0  0  0
   -0.1306   -1.0909    0.5857 H   0  0  0  0  0  0  0  0  0  0  0  0
   -0.7083    0.1633   -1.0594 C   0  0  0  0  0  0  0  0  0  0  0  0
   -1.5870    0.7324   -1.3662 H   0  0  0  0  0  0  0  0  0  0  0  0
    0.1336    0.8562   -1.0208 H   0  0  0  0  0  0  0  0  0  0  0  0
   -0.4399   -0.8923   -2.1151 C   0  0  0  0  0  0  0  0  0  0  0  0
    0.8435   -1.4547   -2.2512 C   0  0  0  0  0  0  0  0  0  0  0  0
    1.6527   -1.1201   -1.6176 H   0  0  0  0  0  0  0  0  0  0  0  0
    1.0748   -2.4630   -3.2051 C   0  0  0  0  0  0  0  0  0  0  0  0
    2.0616   -2.8916   -3.3097 H   0  0  0  0  0  0  0  0  0  0  0  0
    0.0237   -2.9118   -4.0227 C   0  0  0  0  0  0  0  0  0  0  0  0
    0.2020   -3.6848   -4.7571 H   0  0  0  0  0  0  0  0  0  0  0  0
   -1.2596   -2.3509   -3.8902 C   0  0  0  0  0  0  0  0  0  0  0  0
   -2.0663   -2.6920   -4.5223 H   0  0  0  0  0  0  0  0  0  0  0  0
   -1.4896   -1.3410   -2.9392 C   0  0  0  0  0  0  0  0  0  0  0  0
   -2.4765   -0.9079   -2.8406 H   0  0  0  0  0  0  0  0  0  0  0  0
   -0.9642    0.6949    1.4210 C   0  0  0  0  0  0  0  0  0  0  0  0
   -1.9548    1.4147    1.5548 O   0  0  0  0  0  0  0  0  0  0  0  0
    0.1305    0.8332    2.1799 N   0  0  0  0  0  0  0  0  0  0  0  0
    0.9216    0.2429    1.9725 H   0  0  0  0  0  0  0  0  0  0  0  0
    0.2799    1.8349    3.2327 C   0  0  0  0  0  0  0  0  0  0  0  0
   -0.5693    1.7813    3.9172 H   0  0  0  0  0  0  0  0  0  0  0  0
    1.2015    1.6622    3.7892 H   0  0  0  0  0  0  0  0  0  0  0  0
    0.3078    2.8322    2.7895 H   0  0  0  0  0  0  0  0  0  0  0  0
  5  6  2  0  0  0  0
  5  7  1  0  0  0  0
  2  3  1  0  0  0  0
  2  4  1  0  0  0  0
  2  5  1  0  0  0  0
  1  2  1  0  0  0  0
 25 26  2  0  0  0  0
 25 27  1  0  0  0  0
 23 24  1  0  0  0  0
 21 22  1  0  0  0  0
 21 23  2  0  0  0  0
 19 20  1  0  0  0  0
 19 21  1  0  0  0  0
 17 18  1  0  0  0  0
 17 19  2  0  0  0  0
 15 16  1  0  0  0  0
 15 17  1  0  0  0  0
 14 15  2  0  0  0  0
 14 23  1  0  0  0  0
 11 12  1  0  0  0  0
 11 13  1  0  0  0  0
 11 14  1  0  0  0  0
  9 10  1  0  0  0  0
  9 11  1  0  0  0  0
  9 25  1  0  0  0  0
  7  8  1  0  0  0  0
  7  9  1  0  0  0  0
 29 30  1  0  0  0  0
 29 31  1  0  0  0  0
 29 32  1  0  0  0  0
 27 28  1  0  0  0  0
 27 29  1  0  0  0  0
M  END
$$$$
default_name
  -OEChem-01062215323D

 32 32  0     1  0  0  0  0  0999 V2000
   -3.8405   -3.7518    1.6252 H   0  0  0  0  0  0  0  0  0  0  0  0
   -3.7965   -2.8768    0.9782 C   0  0  0  0  0  0  0  0  0  0  0  0
   -4.5465   -2.1527    1.2902 H   0  0  0  0  0  0  0  0  0  0  0  0
   -3.9745   -3.1748   -0.0538 H   0  0  0  0  0  0  0  0  0  0  0  0
   -2.4245   -2.2537    1.0882 C   0  0  0  0  0  0  0  0  0  0  0  0
   -1.5805   -2.7478    1.8242 O   0  0  0  0  0  0  0  0  0  0  0  0
   -2.2045   -1.1637    0.3562 N   0  0  0  0  0  0  0  0  0  0  0  0
   -2.9595   -0.7907   -0.2008 H   0  0  0  0  0  0  0  0  0  0  0  0
   -0.9485   -0.4087    0.3482 C   0  0  1  0  0  0  0  0  0  0  0  0
   -0.1306   -1.0909    0.5857 H   0  0  0  0  0  0  0  0  0  0  0  0
   -0.7083    0.1633   -1.0594 C   0  0  0  0  0  0  0  0  0  0  0  0
   -1.5870    0.7324   -1.3662 H   0  0  0  0  0  0  0  0  0  0  0  0
    0.1336    0.8562   -1.0208 H   0  0  0  0  0  0  0  0  0  0  0  0
   -0.4399   -0.8923   -2.1151 C   0  0  0  0  0  0  0  0  0  0  0  0
    0.8435   -1.4547   -2.2512 C   0  0  0  0  0  0  0  0  0  0  0  0
    1.6527   -1.1201   -1.6176 H   0  0  0  0  0  0  0  0  0  0  0  0
    1.0748   -2.4630   -3.2051 C   0  0  0  0  0  0  0  0  0  0  0  0
    2.0616   -2.8916   -3.3097 H   0  0  0  0  0  0  0  0  0  0  0  0
    0.0237   -2.9118   -4.0227 C   0  0  0  0  0  0  0  0  0  0  0  0
    0.2020   -3.6848   -4.7571 H   0  0  0  0  0  0  0  0  0  0  0  0
   -1.2596   -2.3509   -3.8902 C   0  0  0  0  0  0  0  0  0  0  0  0
   -2.0663   -2.6920   -4.5223 H   0  0  0  0  0  0  0  0  0  0  0  0
   -1.4896   -1.3410   -2.9392 C   0  0  0  0  0  0  0  0  0  0  0  0
   -2.4765   -0.9079   -2.8406 H   0  0  0  0  0  0  0  0  0  0  0  0
   -0.9642    0.6949    1.4210 C   0  0  0  0  0  0  0  0  0  0  0  0
   -2.0263    1.2270    1.7469 O   0  0  0  0  0  0  0  0  0  0  0  0
    0.2088    1.0430    1.9652 N   0  0  0  0  0  0  0  0  0  0  0  0
    1.0412    0.6009    1.6059 H   0  0  0  0  0  0  0  0  0  0  0  0
    0.3674    2.0757    2.9862 C   0  0  0  0  0  0  0  0  0  0  0  0
   -0.3164    1.8835    3.8157 H   0  0  0  0  0  0  0  0  0  0  0  0
    1.3919    2.0829    3.3592 H   0  0  0  0  0  0  0  0  0  0  0  0
    0.1320    3.0528    2.5600 H   0  0  0  0  0  0  0  0  0  0  0  0
  5  6  2  0  0  0  0
  5  7  1  0  0  0  0
  2  3  1  0  0  0  0
  2  4  1  0  0  0  0
  2  5  1  0  0  0  0
  1  2  1  0  0  0  0
 25 26  2  0  0  0  0
 25 27  1  0  0  0  0
 23 24  1  0  0  0  0
 21 22  1  0  0  0  0
 21 23  2  0  0  0  0
 19 20  1  0  0  0  0
 19 21  1  0  0  0  0
 17 18  1  0  0  0  0
 17 19  2  0  0  0  0
 15 16  1  0  0  0  0
 15 17  1  0  0  0  0
 14 15  2  0  0  0  0
 14 23  1  0  0  0  0
 11 12  1  0  0  0  0
 11 13  1  0  0  0  0
 11 14  1  0  0  0  0
  9 10  1  0  0  0  0
  9 11  1  0  0  0  0
  9 25  1  0  0  0  0
  7  8  1  0  0  0  0
  7  9  1  0  0  0  0
 29 30  1  0  0  0  0
 29 31  1  0  0  0  0
 29 32  1  0  0  0  0
 27 28  1  0  0  0  0
 27 29  1  0  0  0  0
M  END
$$$$
default_name
  -OEChem-01062215323D

 32 32  0     1  0  0  0  0  0999 V2000
   -3.8405   -3.7518    1.6252 H   0  0  0  0  0  0  0  0  0  0  0  0
   -3.7965   -2.8768    0.9782 C   0  0  0  0  0  0  0  0  0  0  0  0
   -4.5465   -2.1527    1.2902 H   0  0  0  0  0  0  0  0  0  0  0  0
   -3.9745   -3.1748   -0.0538 H   0  0  0  0  0  0  0  0  0  0  0  0
   -2.4245   -2.2537    1.0882 C   0  0  0  0  0  0  0  0  0  0  0  0
   -1.5805   -2.7478    1.8242 O   0  0  0  0  0  0  0  0  0  0  0  0
   -2.2045   -1.1637    0.3562 N   0  0  0  0  0  0  0  0  0  0  0  0
   -2.9595   -0.7907   -0.2008 H   0  0  0  0  0  0  0  0  0  0  0  0
   -0.9485   -0.4087    0.3482 C   0  0  1  0  0  0  0  0  0  0  0  0
   -0.1306   -1.0909    0.5857 H   0  0  0  0  0  0  0  0  0  0  0  0
   -0.7083    0.1633   -1.0594 C   0  0  0  0  0  0  0  0  0  0  0  0
   -1.5870    0.7324   -1.3662 H   0  0  0  0  0  0  0  0  0  0  0  0
    0.1336    0.8562   -1.0208 H   0  0  0  0  0  0  0  0  0  0  0  0
   -0.4399   -0.8923   -2.1151 C   0  0  0  0  0  0  0  0  0  0  0  0
    0.8435   -1.4547   -2.2512 C   0  0  0  0  0  0  0  0  0  0  0  0
    1.6527   -1.1201   -1.6176 H   0  0  0  0  0  0  0  0  0  0  0  0
    1.0748   -2.4630   -3.2051 C   0  0  0  0  0  0  0  0  0  0  0  0
    2.0616   -2.8916   -3.3097 H   0  0  0  0  0  0  0  0  0  0  0  0
    0.0237   -2.9118   -4.0227 C   0  0  0  0  0  0  0  0  0  0  0  0
    0.2020   -3.6848   -4.7571 H   0  0  0  0  0  0  0  0  0  0  0  0
   -1.2596   -2.3509   -3.8902 C   0  0  0  0  0  0  0  0  0  0  0  0
   -2.0663   -2.6920   -4.5223 H   0  0  0  0  0  0  0  0  0  0  0  0
   -1.4896   -1.3410   -2.9392 C   0  0  0  0  0  0  0  0  0  0  0  0
   -2.4765   -0.9079   -2.8406 H   0  0  0  0  0  0  0  0  0  0  0  0
   -0.9642    0.6949    1.4210 C   0  0  0  0  0  0  0  0  0  0  0  0
   -2.0258    1.0332    1.9462 O   0  0  0  0  0  0  0  0  0  0  0  0
    0.2068    1.2592    1.7427 N   0  0  0  0  0  0  0  0  0  0  0  0
    1.0241    0.9674    1.2287 H   0  0  0  0  0  0  0  0  0  0  0  0
    0.3627    2.3235    2.7313 C   0  0  0  0  0  0  0  0  0  0  0  0
   -0.1093    2.0276    3.6705 H   0  0  0  0  0  0  0  0  0  0  0  0
    1.4201    2.5224    2.9075 H   0  0  0  0  0  0  0  0  0  0  0  0
   -0.1202    3.2337    2.3703 H   0  0  0  0  0  0  0  0  0  0  0  0
  5  6  2  0  0  0  0
  5  7  1  0  0  0  0
  2  3  1  0  0  0  0
  2  4  1  0  0  0  0
  2  5  1  0  0  0  0
  1  2  1  0  0  0  0
 25 26  2  0  0  0  0
 25 27  1  0  0  0  0
 23 24  1  0  0  0  0
 21 22  1  0  0  0  0
 21 23  2  0  0  0  0
 19 20  1  0  0  0  0
 19 21  1  0  0  0  0
 17 18  1  0  0  0  0
 17 19  2  0  0  0  0
 15 16  1  0  0  0  0
 15 17  1  0  0  0  0
 14 15  2  0  0  0  0
 14 23  1  0  0  0  0
 11 12  1  0  0  0  0
 11 13  1  0  0  0  0
 11 14  1  0  0  0  0
  9 10  1  0  0  0  0
  9 11  1  0  0  0  0
  9 25  1  0  0  0  0
  7  8  1  0  0  0  0
  7  9  1  0  0  0  0
 29 30  1  0  0  0  0
 29 31  1  0  0  0  0
 29 32  1  0  0  0  0
 27 28  1  0  0  0  0
 27 29  1  0  0  0  0
M  END
$$$$
default_name
  -OEChem-01062215323D

 32 32  0     1  0  0  0  0  0999 V2000
   -3.8405   -3.7518    1.6252 H   0  0  0  0  0  0  0  0  0  0  0  0
   -3.7965   -2.8768    0.9782 C   0  0  0  0  0  0  0  0  0  0  0  0
   -4.5465   -2.1527    1.2902 H   0  0  0  0  0  0  0  0  0  0  0  0
   -3.9745   -3.1748   -0.0538 H   0  0  0  0  0  0  0  0  0  0  0  0
   -2.4245   -2.2537    1.0882 C   0  0  0  0  0  0  0  0  0  0  0  0
   -1.5805   -2.7478    1.8242 O   0  0  0  0  0  0  0  0  0  0  0  0
   -2.2045   -1.1637    0.3562 N   0  0  0  0  0  0  0  0  0  0  0  0
   -2.9595   -0.7907   -0.2008 H   0  0  0  0  0  0  0  0  0  0  0  0
   -0.9485   -0.4087    0.3482 C   0  0  1  0  0  0  0  0  0  0  0  0
   -0.1176   -1.1153    0.3172 H   0  0  0  0  0  0  0  0  0  0  0  0
   -0.8886    0.4646   -0.9167 C   0  0  0  0  0  0  0  0  0  0  0  0
   -1.7908    1.0756   -0.9695 H   0  0  0  0  0  0  0  0  0  0  0  0
   -0.0377    1.1431   -0.8382 H   0  0  0  0  0  0  0  0  0  0  0  0
   -0.7805   -0.3266   -2.2063 C   0  0  0  0  0  0  0  0  0  0  0  0
    0.4639   -0.8272   -2.6338 C   0  0  0  0  0  0  0  0  0  0  0  0
    1.3557   -0.6306   -2.0556 H   0  0  0  0  0  0  0  0  0  0  0  0
    0.5495   -1.5954   -3.8096 C   0  0  0  0  0  0  0  0  0  0  0  0
    1.5064   -1.9767   -4.1374 H   0  0  0  0  0  0  0  0  0  0  0  0
   -0.6084   -1.8659   -4.5585 C   0  0  0  0  0  0  0  0  0  0  0  0
   -0.5422   -2.4541   -5.4631 H   0  0  0  0  0  0  0  0  0  0  0  0
   -1.8532   -1.3659   -4.1349 C   0  0  0  0  0  0  0  0  0  0  0  0
   -2.7424   -1.5692   -4.7134 H   0  0  0  0  0  0  0  0  0  0  0  0
   -1.9379   -0.5955   -2.9616 C   0  0  0  0  0  0  0  0  0  0  0  0
   -2.8956   -0.2086   -2.6386 H   0  0  0  0  0  0  0  0  0  0  0  0
   -0.8030    0.4290    1.6313 C   0  0  0  0  0  0  0  0  0  0  0  0
   -1.6852    0.4041    2.4907 O   0  0  0  0  0  0  0  0  0  0  0  0
    0.3029    1.1731    1.7601 N   0  0  0  0  0  0  0  0  0  0  0  0
    0.9525    1.1839    0.9886 H   0  0  0  0  0  0  0  0  0  0  0  0
    0.5886    2.0293    2.9088 C   0  0  0  0  0  0  0  0  0  0  0  0
    0.4904    1.4543    3.8319 H   0  0  0  0  0  0  0  0  0  0  0  0
    1.6013    2.4276    2.8394 H   0  0  0  0  0  0  0  0  0  0  0  0
   -0.1231    2.8566    2.9363 H   0  0  0  0  0  0  0  0  0  0  0  0
  5  6  2  0  0  0  0
  5  7  1  0  0  0  0
  2  3  1  0  0  0  0
  2  4  1  0  0  0  0
  2  5  1  0  0  0  0
  1  2  1  0  0  0  0
 25 26  2  0  0  0  0
 25 27  1  0  0  0  0
 23 24  1  0  0  0  0
 21 22  1  0  0  0  0
 21 23  2  0  0  0  0
 19 20  1  0  0  0  0
 19 21  1  0  0  0  0
 17 18  1  0  0  0  0
 17 19  2  0  0  0  0
 15 16  1  0  0  0  0
 15 17  1  0  0  0  0
 14 15  2  0  0  0  0
 14 23  1  0  0  0  0
 11 12  1  0  0  0  0
 11 13  1  0  0  0  0
 11 14  1  0  0  0  0
  9 10  1  0  0  0  0
  9 11  1  0  0  0  0
  9 25  1  0  0  0  0
  7  8  1  0  0  0  0
  7  9  1  0  0  0  0
 29 30  1  0  0  0  0
 29 31  1  0  0  0  0
 29 32  1  0  0  0  0
 27 28  1  0  0  0  0
 27 29  1  0  0  0  0
M  END
$$$$
default_name
  -OEChem-01062215323D

 32 32  0     1  0  0  0  0  0999 V2000
   -3.8405   -3.7518    1.6252 H   0  0  0  0  0  0  0  0  0  0  0  0
   -3.7965   -2.8768    0.9782 C   0  0  0  0  0  0  0  0  0  0  0  0
   -4.5465   -2.1527    1.2902 H   0  0  0  0  0  0  0  0  0  0  0  0
   -3.9745   -3.1748   -0.0538 H   0  0  0  0  0  0  0  0  0  0  0  0
   -2.4245   -2.2537    1.0882 C   0  0  0  0  0  0  0  0  0  0  0  0
   -1.5805   -2.7478    1.8242 O   0  0  0  0  0  0  0  0  0  0  0  0
   -2.2045   -1.1637    0.3562 N   0  0  0  0  0  0  0  0  0  0  0  0
   -2.9595   -0.7907   -0.2008 H   0  0  0  0  0  0  0  0  0  0  0  0
   -0.9485   -0.4087    0.3482 C   0  0  1  0  0  0  0  0  0  0  0  0
   -0.1176   -1.1153    0.3172 H   0  0  0  0  0  0  0  0  0  0  0  0
   -0.8886    0.4646   -0.9167 C   0  0  0  0  0  0  0  0  0  0  0  0
   -1.7908    1.0756   -0.9695 H   0  0  0  0  0  0  0  0  0  0  0  0
   -0.0377    1.1431   -0.8382 H   0  0  0  0  0  0  0  0  0  0  0  0
   -0.7805   -0.3266   -2.2063 C   0  0  0  0  0  0  0  0  0  0  0  0
    0.4639   -0.8272   -2.6338 C   0  0  0  0  0  0  0  0  0  0  0  0
    1.3557   -0.6306   -2.0556 H   0  0  0  0  0  0  0  0  0  0  0  0
    0.5495   -1.5954   -3.8096 C   0  0  0  0  0  0  0  0  0  0  0  0
    1.5064   -1.9767   -4.1374 H   0  0  0  0  0  0  0  0  0  0  0  0
   -0.6084   -1.8659   -4.5585 C   0  0  0  0  0  0  0  0  0  0  0  0
   -0.5422   -2.4541   -5.4631 H   0  0  0  0  0  0  0  0  0  0  0  0
   -1.8532   -1.3659   -4.1349 C   0  0  0  0  0  0  0  0  0  0  0  0
   -2.7424   -1.5692   -4.7134 H   0  0  0  0  0  0  0  0  0  0  0  0
   -1.9379   -0.5955   -2.9616 C   0  0  0  0  0  0  0  0  0  0  0  0
   -2.8956   -0.2086   -2.6386 H   0  0  0  0  0  0  0  0  0  0  0  0
   -0.8030    0.4290    1.6313 C   0  0  0  0  0  0  0  0  0  0  0  0
   -1.5267    0.2051    2.6026 O   0  0  0  0  0  0  0  0  0  0  0  0
    0.1248    1.3946    1.6356 N   0  0  0  0  0  0  0  0  0  0  0  0
    0.6394    1.5533    0.7828 H   0  0  0  0  0  0  0  0  0  0  0  0
    0.3826    2.2821    2.7671 C   0  0  0  0  0  0  0  0  0  0  0  0
    0.5433    1.6912    3.6713 H   0  0  0  0  0  0  0  0  0  0  0  0
    1.2658    2.8917    2.5744 H   0  0  0  0  0  0  0  0  0  0  0  0
   -0.4782    2.9345    2.9257 H   0  0  0  0  0  0  0  0  0  0  0  0
  5  6  2  0  0  0  0
  5  7  1  0  0  0  0
  2  3  1  0  0  0  0
  2  4  1  0  0  0  0
  2  5  1  0  0  0  0
  1  2  1  0  0  0  0
 25 26  2  0  0  0  0
 25 27  1  0  0  0  0
 23 24  1  0  0  0  0
 21 22  1  0  0  0  0
 21 23  2  0  0  0  0
 19 20  1  0  0  0  0
 19 21  1  0  0  0  0
 17 18  1  0  0  0  0
 17 19  2  0  0  0  0
 15 16  1  0  0  0  0
 15 17  1  0  0  0  0
 14 15  2  0  0  0  0
 14 23  1  0  0  0  0
 11 12  1  0  0  0  0
 11 13  1  0  0  0  0
 11 14  1  0  0  0  0
  9 10  1  0  0  0  0
  9 11  1  0  0  0  0
  9 25  1  0  0  0  0
  7  8  1  0  0  0  0
  7  9  1  0  0  0  0
 29 30  1  0  0  0  0
 29 31  1  0  0  0  0
 29 32  1  0  0  0  0
 27 28  1  0  0  0  0
 27 29  1  0  0  0  0
M  END
$$$$
default_name
  -OEChem-01062215323D

 32 32  0     1  0  0  0  0  0999 V2000
   -3.8405   -3.7518    1.6252 H   0  0  0  0  0  0  0  0  0  0  0  0
   -3.7965   -2.8768    0.9782 C   0  0  0  0  0  0  0  0  0  0  0  0
   -4.5465   -2.1527    1.2902 H   0  0  0  0  0  0  0  0  0  0  0  0
   -3.9745   -3.1748   -0.0538 H   0  0  0  0  0  0  0  0  0  0  0  0
   -2.4245   -2.2537    1.0882 C   0  0  0  0  0  0  0  0  0  0  0  0
   -1.5805   -2.7478    1.8242 O   0  0  0  0  0  0  0  0  0  0  0  0
   -2.2045   -1.1637    0.3562 N   0  0  0  0  0  0  0  0  0  0  0  0
   -2.9595   -0.7907   -0.2008 H   0  0  0  0  0  0  0  0  0  0  0  0
   -0.9485   -0.4087    0.3482 C   0  0  1  0  0  0  0  0  0  0  0  0
   -0.1176   -1.1153    0.3172 H   0  0  0  0  0  0  0  0  0  0  0  0
   -0.8886    0.4646   -0.9167 C   0  0  0  0  0  0  0  0  0  0  0  0
   -1.7908    1.0756   -0.9695 H   0  0  0  0  0  0  0  0  0  0  0  0
   -0.0377    1.1431   -0.8382 H   0  0  0  0  0  0  0  0  0  0  0  0
   -0.7805   -0.3266   -2.2063 C   0  0  0  0  0  0  0  0  0  0  0  0
    0.4639   -0.8272   -2.6338 C   0  0  0  0  0  0  0  0  0  0  0  0
    1.3557   -0.6306   -2.0556 H   0  0  0  0  0  0  0  0  0  0  0  0
    0.5495   -1.5954   -3.8096 C   0  0  0  0  0  0  0  0  0  0  0  0
    1.5064   -1.9767   -4.1374 H   0  0  0  0  0  0  0  0  0  0  0  0
   -0.6084   -1.8659   -4.5585 C   0  0  0  0  0  0  0  0  0  0  0  0
   -0.5422   -2.4541   -5.4631 H   0  0  0  0  0  0  0  0  0  0  0  0
   -1.8532   -1.3659   -4.1349 C   0  0  0  0  0  0  0  0  0  0  0  0
   -2.7424   -1.5692   -4.7134 H   0  0  0  0  0  0  0  0  0  0  0  0
   -1.9379   -0.5955   -2.9616 C   0  0  0  0  0  0  0  0  0  0  0  0
   -2.8956   -0.2086   -2.6386 H   0  0  0  0  0  0  0  0  0  0  0  0
   -0.8030    0.4290    1.6313 C   0  0  0  0  0  0  0  0  0  0  0  0
   -1.3149    0.0443    2.6836 O   0  0  0  0  0  0  0  0  0  0  0  0
   -0.1126    1.5732    1.5459 N   0  0  0  0  0  0  0  0  0  0  0  0
    0.2283    1.8477    0.6372 H   0  0  0  0  0  0  0  0  0  0  0  0
    0.1091    2.4853    2.6655 C   0  0  0  0  0  0  0  0  0  0  0  0
    0.5206    1.9353    3.5144 H   0  0  0  0  0  0  0  0  0  0  0  0
    0.8044    3.2741    2.3771 H   0  0  0  0  0  0  0  0  0  0  0  0
   -0.8395    2.9334    2.9674 H   0  0  0  0  0  0  0  0  0  0  0  0
  5  6  2  0  0  0  0
  5  7  1  0  0  0  0
  2  3  1  0  0  0  0
  2  4  1  0  0  0  0
  2  5  1  0  0  0  0
  1  2  1  0  0  0  0
 25 26  2  0  0  0  0
 25 27  1  0  0  0  0
 23 24  1  0  0  0  0
 21 22  1  0  0  0  0
 21 23  2  0  0  0  0
 19 20  1  0  0  0  0
 19 21  1  0  0  0  0
 17 18  1  0  0  0  0
 17 19  2  0  0  0  0
 15 16  1  0  0  0  0
 15 17  1  0  0  0  0
 14 15  2  0  0  0  0
 14 23  1  0  0  0  0
 11 12  1  0  0  0  0
 11 13  1  0  0  0  0
 11 14  1  0  0  0  0
  9 10  1  0  0  0  0
  9 11  1  0  0  0  0
  9 25  1  0  0  0  0
  7  8  1  0  0  0  0
  7  9  1  0  0  0  0
 29 30  1  0  0  0  0
 29 31  1  0  0  0  0
 29 32  1  0  0  0  0
 27 28  1  0  0  0  0
 27 29  1  0  0  0  0
M  END
$$$$
default_name
  -OEChem-01062215323D

 32 32  0     1  0  0  0  0  0999 V2000
   -3.8405   -3.7518    1.6252 H   0  0  0  0  0  0  0  0  0  0  0  0
   -3.7965   -2.8768    0.9782 C   0  0  0  0  0  0  0  0  0  0  0  0
   -4.5465   -2.1527    1.2902 H   0  0  0  0  0  0  0  0  0  0  0  0
   -3.9745   -3.1748   -0.0538 H   0  0  0  0  0  0  0  0  0  0  0  0
   -2.4245   -2.2537    1.0882 C   0  0  0  0  0  0  0  0  0  0  0  0
   -1.5805   -2.7478    1.8242 O   0  0  0  0  0  0  0  0  0  0  0  0
   -2.2045   -1.1637    0.3562 N   0  0  0  0  0  0  0  0  0  0  0  0
   -2.9595   -0.7907   -0.2008 H   0  0  0  0  0  0  0  0  0  0  0  0
   -0.9485   -0.4087    0.3482 C   0  0  1  0  0  0  0  0  0  0  0  0
   -0.1176   -1.1153    0.3172 H   0  0  0  0  0  0  0  0  0  0  0  0
   -0.8886    0.4646   -0.9167 C   0  0  0  0  0  0  0  0  0  0  0  0
   -1.7908    1.0756   -0.9695 H   0  0  0  0  0  0  0  0  0  0  0  0
   -0.0377    1.1431   -0.8382 H   0  0  0  0  0  0  0  0  0  0  0  0
   -0.7805   -0.3266   -2.2063 C   0  0  0  0  0  0  0  0  0  0  0  0
    0.4639   -0.8272   -2.6338 C   0  0  0  0  0  0  0  0  0  0  0  0
    1.3557   -0.6306   -2.0556 H   0  0  0  0  0  0  0  0  0  0  0  0
    0.5495   -1.5954   -3.8096 C   0  0  0  0  0  0  0  0  0  0  0  0
    1.5064   -1.9767   -4.1374 H   0  0  0  0  0  0  0  0  0  0  0  0
   -0.6084   -1.8659   -4.5585 C   0  0  0  0  0  0  0  0  0  0  0  0
   -0.5422   -2.4541   -5.4631 H   0  0  0  0  0  0  0  0  0  0  0  0
   -1.8532   -1.3659   -4.1349 C   0  0  0  0  0  0  0  0  0  0  0  0
   -2.7424   -1.5692   -4.7134 H   0  0  0  0  0  0  0  0  0  0  0  0
   -1.9379   -0.5955   -2.9616 C   0  0  0  0  0  0  0  0  0  0  0  0
   -2.8956   -0.2086   -2.6386 H   0  0  0  0  0  0  0  0  0  0  0  0
   -0.8030    0.4290    1.6313 C   0  0  0  0  0  0  0  0  0  0  0  0
   -1.0642   -0.0673    2.7280 O   0  0  0  0  0  0  0  0  0  0  0  0
   -0.3930    1.6967    1.4971 N   0  0  0  0  0  0  0  0  0  0  0  0
   -0.2528    2.0470    0.5617 H   0  0  0  0  0  0  0  0  0  0  0  0
   -0.2133    2.6250    2.6108 C   0  0  0  0  0  0  0  0  0  0  0  0
    0.4239    2.1701    3.3721 H   0  0  0  0  0  0  0  0  0  0  0  0
    0.2483    3.5487    2.2608 H   0  0  0  0  0  0  0  0  0  0  0  0
   -1.1824    2.8534    3.0586 H   0  0  0  0  0  0  0  0  0  0  0  0
  5  6  2  0  0  0  0
  5  7  1  0  0  0  0
  2  3  1  0  0  0  0
  2  4  1  0  0  0  0
  2  5  1  0  0  0  0
  1  2  1  0  0  0  0
 25 26  2  0  0  0  0
 25 27  1  0  0  0  0
 23 24  1  0  0  0  0
 21 22  1  0  0  0  0
 21 23  2  0  0  0  0
 19 20  1  0  0  0  0
 19 21  1  0  0  0  0
 17 18  1  0  0  0  0
 17 19  2  0  0  0  0
 15 16  1  0  0  0  0
 15 17  1  0  0  0  0
 14 15  2  0  0  0  0
 14 23  1  0  0  0  0
 11 12  1  0  0  0  0
 11 13  1  0  0  0  0
 11 14  1  0  0  0  0
  9 10  1  0  0  0  0
  9 11  1  0  0  0  0
  9 25  1  0  0  0  0
  7  8  1  0  0  0  0
  7  9  1  0  0  0  0
 29 30  1  0  0  0  0
 29 31  1  0  0  0  0
 29 32  1  0  0  0  0
 27 28  1  0  0  0  0
 27 29  1  0  0  0  0
M  END
$$$$
default_name
  -OEChem-01062215323D

 32 32  0     1  0  0  0  0  0999 V2000
   -3.8405   -3.7518    1.6252 H   0  0  0  0  0  0  0  0  0  0  0  0
   -3.7965   -2.8768    0.9782 C   0  0  0  0  0  0  0  0  0  0  0  0
   -4.5465   -2.1527    1.2902 H   0  0  0  0  0  0  0  0  0  0  0  0
   -3.9745   -3.1748   -0.0538 H   0  0  0  0  0  0  0  0  0  0  0  0
   -2.4245   -2.2537    1.0882 C   0  0  0  0  0  0  0  0  0  0  0  0
   -1.5805   -2.7478    1.8242 O   0  0  0  0  0  0  0  0  0  0  0  0
   -2.2045   -1.1637    0.3562 N   0  0  0  0  0  0  0  0  0  0  0  0
   -2.9595   -0.7907   -0.2008 H   0  0  0  0  0  0  0  0  0  0  0  0
   -0.9485   -0.4087    0.3482 C   0  0  1  0  0  0  0  0  0  0  0  0
   -0.1176   -1.1153    0.3172 H   0  0  0  0  0  0  0  0  0  0  0  0
   -0.8886    0.4646   -0.9167 C   0  0  0  0  0  0  0  0  0  0  0  0
   -1.7908    1.0756   -0.9695 H   0  0  0  0  0  0  0  0  0  0  0  0
   -0.0377    1.1431   -0.8382 H   0  0  0  0  0  0  0  0  0  0  0  0
   -0.7805   -0.3266   -2.2063 C   0  0  0  0  0  0  0  0  0  0  0  0
    0.4639   -0.8272   -2.6338 C   0  0  0  0  0  0  0  0  0  0  0  0
    1.3557   -0.6306   -2.0556 H   0  0  0  0  0  0  0  0  0  0  0  0
    0.5495   -1.5954   -3.8096 C   0  0  0  0  0  0  0  0  0  0  0  0
    1.5064   -1.9767   -4.1374 H   0  0  0  0  0  0  0  0  0  0  0  0
   -0.6084   -1.8659   -4.5585 C   0  0  0  0  0  0  0  0  0  0  0  0
   -0.5422   -2.4541   -5.4631 H   0  0  0  0  0  0  0  0  0  0  0  0
   -1.8532   -1.3659   -4.1349 C   0  0  0  0  0  0  0  0  0  0  0  0
   -2.7424   -1.5692   -4.7134 H   0  0  0  0  0  0  0  0  0  0  0  0
   -1.9379   -0.5955   -2.9616 C   0  0  0  0  0  0  0  0  0  0  0  0
   -2.8956   -0.2086   -2.6386 H   0  0  0  0  0  0  0  0  0  0  0  0
   -0.8030    0.4290    1.6313 C   0  0  0  0  0  0  0  0  0  0  0  0
   -0.7917   -0.1221    2.7329 O   0  0  0  0  0  0  0  0  0  0  0  0
   -0.6973    1.7567    1.4925 N   0  0  0  0  0  0  0  0  0  0  0  0
   -0.7712    2.1375    0.5614 H   0  0  0  0  0  0  0  0  0  0  0  0
   -0.5625    2.6918    2.6068 C   0  0  0  0  0  0  0  0  0  0  0  0
    0.2598    2.3795    3.2540 H   0  0  0  0  0  0  0  0  0  0  0  0
   -0.3644    3.6969    2.2336 H   0  0  0  0  0  0  0  0  0  0  0  0
   -1.4835    2.6998    3.1930 H   0  0  0  0  0  0  0  0  0  0  0  0
  5  6  2  0  0  0  0
  5  7  1  0  0  0  0
  2  3  1  0  0  0  0
  2  4  1  0  0  0  0
  2  5  1  0  0  0  0
  1  2  1  0  0  0  0
 25 26  2  0  0  0  0
 25 27  1  0  0  0  0
 23 24  1  0  0  0  0
 21 22  1  0  0  0  0
 21 23  2  0  0  0  0
 19 20  1  0  0  0  0
 19 21  1  0  0  0  0
 17 18  1  0  0  0  0
 17 19  2  0  0  0  0
 15 16  1  0  0  0  0
 15 17  1  0  0  0  0
 14 15  2  0  0  0  0
 14 23  1  0  0  0  0
 11 12  1  0  0  0  0
 11 13  1  0  0  0  0
 11 14  1  0  0  0  0
  9 10  1  0  0  0  0
  9 11  1  0  0  0  0
  9 25  1  0  0  0  0
  7  8  1  0  0  0  0
  7  9  1  0  0  0  0
 29 30  1  0  0  0  0
 29 31  1  0  0  0  0
 29 32  1  0  0  0  0
 27 28  1  0  0  0  0
 27 29  1  0  0  0  0
M  END
$$$$
default_name
  -OEChem-01062215323D

 32 32  0     1  0  0  0  0  0999 V2000
   -3.8405   -3.7518    1.6252 H   0  0  0  0  0  0  0  0  0  0  0  0
   -3.7965   -2.8768    0.9782 C   0  0  0  0  0  0  0  0  0  0  0  0
   -4.5465   -2.1527    1.2902 H   0  0  0  0  0  0  0  0  0  0  0  0
   -3.9745   -3.1748   -0.0538 H   0  0  0  0  0  0  0  0  0  0  0  0
   -2.4245   -2.2537    1.0882 C   0  0  0  0  0  0  0  0  0  0  0  0
   -1.5805   -2.7478    1.8242 O   0  0  0  0  0  0  0  0  0  0  0  0
   -2.2045   -1.1637    0.3562 N   0  0  0  0  0  0  0  0  0  0  0  0
   -2.9595   -0.7907   -0.2008 H   0  0  0  0  0  0  0  0  0  0  0  0
   -0.9485   -0.4087    0.3482 C   0  0  1  0  0  0  0  0  0  0  0  0
   -0.1176   -1.1153    0.3172 H   0  0  0  0  0  0  0  0  0  0  0  0
   -0.8886    0.4646   -0.9167 C   0  0  0  0  0  0  0  0  0  0  0  0
   -1.7908    1.0756   -0.9695 H   0  0  0  0  0  0  0  0  0  0  0  0
   -0.0377    1.1431   -0.8382 H   0  0  0  0  0  0  0  0  0  0  0  0
   -0.7805   -0.3266   -2.2063 C   0  0  0  0  0  0  0  0  0  0  0  0
    0.4639   -0.8272   -2.6338 C   0  0  0  0  0  0  0  0  0  0  0  0
    1.3557   -0.6306   -2.0556 H   0  0  0  0  0  0  0  0  0  0  0  0
    0.5495   -1.5954   -3.8096 C   0  0  0  0  0  0  0  0  0  0  0  0
    1.5064   -1.9767   -4.1374 H   0  0  0  0  0  0  0  0  0  0  0  0
   -0.6084   -1.8659   -4.5585 C   0  0  0  0  0  0  0  0  0  0  0  0
   -0.5422   -2.4541   -5.4631 H   0  0  0  0  0  0  0  0  0  0  0  0
   -1.8532   -1.3659   -4.1349 C   0  0  0  0  0  0  0  0  0  0  0  0
   -2.7424   -1.5692   -4.7134 H   0  0  0  0  0  0  0  0  0  0  0  0
   -1.9379   -0.5955   -2.9616 C   0  0  0  0  0  0  0  0  0  0  0  0
   -2.8956   -0.2086   -2.6386 H   0  0  0  0  0  0  0  0  0  0  0  0
   -0.8030    0.4290    1.6313 C   0  0  0  0  0  0  0  0  0  0  0  0
   -0.5160   -0.1164    2.6979 O   0  0  0  0  0  0  0  0  0  0  0  0
   -1.0049    1.7491    1.5323 N   0  0  0  0  0  0  0  0  0  0  0  0
   -1.2914    2.1131    0.6364 H   0  0  0  0  0  0  0  0  0  0  0  0
   -0.9148    2.6810    2.6538 C   0  0  0  0  0  0  0  0  0  0  0  0
    0.0394    2.5492    3.1682 H   0  0  0  0  0  0  0  0  0  0  0  0
   -0.9920    3.7085    2.2972 H   0  0  0  0  0  0  0  0  0  0  0  0
   -1.7223    2.4833    3.3614 H   0  0  0  0  0  0  0  0  0  0  0  0
  5  6  2  0  0  0  0
  5  7  1  0  0  0  0
  2  3  1  0  0  0  0
  2  4  1  0  0  0  0
  2  5  1  0  0  0  0
  1  2  1  0  0  0  0
 25 26  2  0  0  0  0
 25 27  1  0  0  0  0
 23 24  1  0  0  0  0
 21 22  1  0  0  0  0
 21 23  2  0  0  0  0
 19 20  1  0  0  0  0
 19 21  1  0  0  0  0
 17 18  1  0  0  0  0
 17 19  2  0  0  0  0
 15 16  1  0  0  0  0
 15 17  1  0  0  0  0
 14 15  2  0  0  0  0
 14 23  1  0  0  0  0
 11 12  1  0  0  0  0
 11 13  1  0  0  0  0
 11 14  1  0  0  0  0
  9 10  1  0  0  0  0
  9 11  1  0  0  0  0
  9 25  1  0  0  0  0
  7  8  1  0  0  0  0
  7  9  1  0  0  0  0
 29 30  1  0  0  0  0
 29 31  1  0  0  0  0
 29 32  1  0  0  0  0
 27 28  1  0  0  0  0
 27 29  1  0  0  0  0
M  END
$$$$
default_name
  -OEChem-01062215323D

 32 32  0     1  0  0  0  0  0999 V2000
   -3.8405   -3.7518    1.6252 H   0  0  0  0  0  0  0  0  0  0  0  0
   -3.7965   -2.8768    0.9782 C   0  0  0  0  0  0  0  0  0  0  0  0
   -4.5465   -2.1527    1.2902 H   0  0  0  0  0  0  0  0  0  0  0  0
   -3.9745   -3.1748   -0.0538 H   0  0  0  0  0  0  0  0  0  0  0  0
   -2.4245   -2.2537    1.0882 C   0  0  0  0  0  0  0  0  0  0  0  0
   -1.5805   -2.7478    1.8242 O   0  0  0  0  0  0  0  0  0  0  0  0
   -2.2045   -1.1637    0.3562 N   0  0  0  0  0  0  0  0  0  0  0  0
   -2.9595   -0.7907   -0.2008 H   0  0  0  0  0  0  0  0  0  0  0  0
   -0.9485   -0.4087    0.3482 C   0  0  1  0  0  0  0  0  0  0  0  0
   -0.1176   -1.1153    0.3172 H   0  0  0  0  0  0  0  0  0  0  0  0
   -0.8886    0.4646   -0.9167 C   0  0  0  0  0  0  0  0  0  0  0  0
   -1.7908    1.0756   -0.9695 H   0  0  0  0  0  0  0  0  0  0  0  0
   -0.0377    1.1431   -0.8382 H   0  0  0  0  0  0  0  0  0  0  0  0
   -0.7805   -0.3266   -2.2063 C   0  0  0  0  0  0  0  0  0  0  0  0
    0.4639   -0.8272   -2.6338 C   0  0  0  0  0  0  0  0  0  0  0  0
    1.3557   -0.6306   -2.0556 H   0  0  0  0  0  0  0  0  0  0  0  0
    0.5495   -1.5954   -3.8096 C   0  0  0  0  0  0  0  0  0  0  0  0
    1.5064   -1.9767   -4.1374 H   0  0  0  0  0  0  0  0  0  0  0  0
   -0.6084   -1.8659   -4.5585 C   0  0  0  0  0  0  0  0  0  0  0  0
   -0.5422   -2.4541   -5.4631 H   0  0  0  0  0  0  0  0  0  0  0  0
   -1.8532   -1.3659   -4.1349 C   0  0  0  0  0  0  0  0  0  0  0  0
   -2.7424   -1.5692   -4.7134 H   0  0  0  0  0  0  0  0  0  0  0  0
   -1.9379   -0.5955   -2.9616 C   0  0  0  0  0  0  0  0  0  0  0  0
   -2.8956   -0.2086   -2.6386 H   0  0  0  0  0  0  0  0  0  0  0  0
   -0.8030    0.4290    1.6313 C   0  0  0  0  0  0  0  0  0  0  0  0
   -0.2559   -0.0505    2.6254 O   0  0  0  0  0  0  0  0  0  0  0  0
   -1.2948    1.6744    1.6140 N   0  0  0  0  0  0  0  0  0  0  0  0
   -1.7781    1.9754    0.7814 H   0  0  0  0  0  0  0  0  0  0  0  0
   -1.2461    2.5935    2.7485 C   0  0  0  0  0  0  0  0  0  0  0  0
   -0.2221    2.6677    3.1204 H   0  0  0  0  0  0  0  0  0  0  0  0
   -1.5918    3.5827    2.4474 H   0  0  0  0  0  0  0  0  0  0  0  0
   -1.8825    2.2185    3.5525 H   0  0  0  0  0  0  0  0  0  0  0  0
  5  6  2  0  0  0  0
  5  7  1  0  0  0  0
  2  3  1  0  0  0  0
  2  4  1  0  0  0  0
  2  5  1  0  0  0  0
  1  2  1  0  0  0  0
 25 26  2  0  0  0  0
 25 27  1  0  0  0  0
 23 24  1  0  0  0  0
 21 22  1  0  0  0  0
 21 23  2  0  0  0  0
 19 20  1  0  0  0  0
 19 21  1  0  0  0  0
 17 18  1  0  0  0  0
 17 19  2  0  0  0  0
 15 16  1  0  0  0  0
 15 17  1  0  0  0  0
 14 15  2  0  0  0  0
 14 23  1  0  0  0  0
 11 12  1  0  0  0  0
 11 13  1  0  0  0  0
 11 14  1  0  0  0  0
  9 10  1  0  0  0  0
  9 11  1  0  0  0  0
  9 25  1  0  0  0  0
  7  8  1  0  0  0  0
  7  9  1  0  0  0  0
 29 30  1  0  0  0  0
 29 31  1  0  0  0  0
 29 32  1  0  0  0  0
 27 28  1  0  0  0  0
 27 29  1  0  0  0  0
M  END
$$$$
default_name
  -OEChem-01062215323D

 32 32  0     1  0  0  0  0  0999 V2000
   -3.8405   -3.7518    1.6252 H   0  0  0  0  0  0  0  0  0  0  0  0
   -3.7965   -2.8768    0.9782 C   0  0  0  0  0  0  0  0  0  0  0  0
   -4.5465   -2.1527    1.2902 H   0  0  0  0  0  0  0  0  0  0  0  0
   -3.9745   -3.1748   -0.0538 H   0  0  0  0  0  0  0  0  0  0  0  0
   -2.4245   -2.2537    1.0882 C   0  0  0  0  0  0  0  0  0  0  0  0
   -1.5805   -2.7478    1.8242 O   0  0  0  0  0  0  0  0  0  0  0  0
   -2.2045   -1.1637    0.3562 N   0  0  0  0  0  0  0  0  0  0  0  0
   -2.9595   -0.7907   -0.2008 H   0  0  0  0  0  0  0  0  0  0  0  0
   -0.9485   -0.4087    0.3482 C   0  0  1  0  0  0  0  0  0  0  0  0
   -0.1176   -1.1153    0.3172 H   0  0  0  0  0  0  0  0  0  0  0  0
   -0.8886    0.4646   -0.9167 C   0  0  0  0  0  0  0  0  0  0  0  0
   -1.7908    1.0756   -0.9695 H   0  0  0  0  0  0  0  0  0  0  0  0
   -0.0377    1.1431   -0.8382 H   0  0  0  0  0  0  0  0  0  0  0  0
   -0.7805   -0.3266   -2.2063 C   0  0  0  0  0  0  0  0  0  0  0  0
    0.4639   -0.8272   -2.6338 C   0  0  0  0  0  0  0  0  0  0  0  0
    1.3557   -0.6306   -2.0556 H   0  0  0  0  0  0  0  0  0  0  0  0
    0.5495   -1.5954   -3.8096 C   0  0  0  0  0  0  0  0  0  0  0  0
    1.5064   -1.9767   -4.1374 H   0  0  0  0  0  0  0  0  0  0  0  0
   -0.6084   -1.8659   -4.5585 C   0  0  0  0  0  0  0  0  0  0  0  0
   -0.5422   -2.4541   -5.4631 H   0  0  0  0  0  0  0  0  0  0  0  0
   -1.8532   -1.3659   -4.1349 C   0  0  0  0  0  0  0  0  0  0  0  0
   -2.7424   -1.5692   -4.7134 H   0  0  0  0  0  0  0  0  0  0  0  0
   -1.9379   -0.5955   -2.9616 C   0  0  0  0  0  0  0  0  0  0  0  0
   -2.8956   -0.2086   -2.6386 H   0  0  0  0  0  0  0  0  0  0  0  0
   -0.8030    0.4290    1.6313 C   0  0  0  0  0  0  0  0  0  0  0  0
   -0.0291    0.0710    2.5203 O   0  0  0  0  0  0  0  0  0  0  0  0
   -1.5472    1.5377    1.7319 N   0  0  0  0  0  0  0  0  0  0  0  0
   -2.1981    1.7339    0.9868 H   0  0  0  0  0  0  0  0  0  0  0  0
   -1.5340    2.4351    2.8846 C   0  0  0  0  0  0  0  0  0  0  0  0
   -0.5070    2.7270    3.1141 H   0  0  0  0  0  0  0  0  0  0  0  0
   -2.1229    3.3282    2.6738 H   0  0  0  0  0  0  0  0  0  0  0  0
   -1.9531    1.9235    3.7531 H   0  0  0  0  0  0  0  0  0  0  0  0
  5  6  2  0  0  0  0
  5  7  1  0  0  0  0
  2  3  1  0  0  0  0
  2  4  1  0  0  0  0
  2  5  1  0  0  0  0
  1  2  1  0  0  0  0
 25 26  2  0  0  0  0
 25 27  1  0  0  0  0
 23 24  1  0  0  0  0
 21 22  1  0  0  0  0
 21 23  2  0  0  0  0
 19 20  1  0  0  0  0
 19 21  1  0  0  0  0
 17 18  1  0  0  0  0
 17 19  2  0  0  0  0
 15 16  1  0  0  0  0
 15 17  1  0  0  0  0
 14 15  2  0  0  0  0
 14 23  1  0  0  0  0
 11 12  1  0  0  0  0
 11 13  1  0  0  0  0
 11 14  1  0  0  0  0
  9 10  1  0  0  0  0
  9 11  1  0  0  0  0
  9 25  1  0  0  0  0
  7  8  1  0  0  0  0
  7  9  1  0  0  0  0
 29 30  1  0  0  0  0
 29 31  1  0  0  0  0
 29 32  1  0  0  0  0
 27 28  1  0  0  0  0
 27 29  1  0  0  0  0
M  END
$$$$
default_name
  -OEChem-01062215323D

 32 32  0     1  0  0  0  0  0999 V2000
   -3.8405   -3.7518    1.6252 H   0  0  0  0  0  0  0  0  0  0  0  0
   -3.7965   -2.8768    0.9782 C   0  0  0  0  0  0  0  0  0  0  0  0
   -4.5465   -2.1527    1.2902 H   0  0  0  0  0  0  0  0  0  0  0  0
   -3.9745   -3.1748   -0.0538 H   0  0  0  0  0  0  0  0  0  0  0  0
   -2.4245   -2.2537    1.0882 C   0  0  0  0  0  0  0  0  0  0  0  0
   -1.5805   -2.7478    1.8242 O   0  0  0  0  0  0  0  0  0  0  0  0
   -2.2045   -1.1637    0.3562 N   0  0  0  0  0  0  0  0  0  0  0  0
   -2.9595   -0.7907   -0.2008 H   0  0  0  0  0  0  0  0  0  0  0  0
   -0.9485   -0.4087    0.3482 C   0  0  1  0  0  0  0  0  0  0  0  0
   -0.1176   -1.1153    0.3172 H   0  0  0  0  0  0  0  0  0  0  0  0
   -0.8886    0.4646   -0.9167 C   0  0  0  0  0  0  0  0  0  0  0  0
   -1.7908    1.0756   -0.9695 H   0  0  0  0  0  0  0  0  0  0  0  0
   -0.0377    1.1431   -0.8382 H   0  0  0  0  0  0  0  0  0  0  0  0
   -0.7805   -0.3266   -2.2063 C   0  0  0  0  0  0  0  0  0  0  0  0
    0.4639   -0.8272   -2.6338 C   0  0  0  0  0  0  0  0  0  0  0  0
    1.3557   -0.6306   -2.0556 H   0  0  0  0  0  0  0  0  0  0  0  0
    0.5495   -1.5954   -3.8096 C   0  0  0  0  0  0  0  0  0  0  0  0
    1.5064   -1.9767   -4.1374 H   0  0  0  0  0  0  0  0  0  0  0  0
   -0.6084   -1.8659   -4.5585 C   0  0  0  0  0  0  0  0  0  0  0  0
   -0.5422   -2.4541   -5.4631 H   0  0  0  0  0  0  0  0  0  0  0  0
   -1.8532   -1.3659   -4.1349 C   0  0  0  0  0  0  0  0  0  0  0  0
   -2.7424   -1.5692   -4.7134 H   0  0  0  0  0  0  0  0  0  0  0  0
   -1.9379   -0.5955   -2.9616 C   0  0  0  0  0  0  0  0  0  0  0  0
   -2.8956   -0.2086   -2.6386 H   0  0  0  0  0  0  0  0  0  0  0  0
   -0.8030    0.4290    1.6313 C   0  0  0  0  0  0  0  0  0  0  0  0
    0.1490    0.2399    2.3898 O   0  0  0  0  0  0  0  0  0  0  0  0
   -1.7448    1.3483    1.8779 N   0  0  0  0  0  0  0  0  0  0  0  0
   -2.5227    1.4050    1.2384 H   0  0  0  0  0  0  0  0  0  0  0  0
   -1.7586    2.2167    3.0527 C   0  0  0  0  0  0  0  0  0  0  0  0
   -0.7959    2.7229    3.1495 H   0  0  0  0  0  0  0  0  0  0  0  0
   -2.5491    2.9622    2.9611 H   0  0  0  0  0  0  0  0  0  0  0  0
   -1.9295    1.6183    3.9497 H   0  0  0  0  0  0  0  0  0  0  0  0
  5  6  2  0  0  0  0
  5  7  1  0  0  0  0
  2  3  1  0  0  0  0
  2  4  1  0  0  0  0
  2  5  1  0  0  0  0
  1  2  1  0  0  0  0
 25 26  2  0  0  0  0
 25 27  1  0  0  0  0
 23 24  1  0  0  0  0
 21 22  1  0  0  0  0
 21 23  2  0  0  0  0
 19 20  1  0  0  0  0
 19 21  1  0  0  0  0
 17 18  1  0  0  0  0
 17 19  2  0  0  0  0
 15 16  1  0  0  0  0
 15 17  1  0  0  0  0
 14 15  2  0  0  0  0
 14 23  1  0  0  0  0
 11 12  1  0  0  0  0
 11 13  1  0  0  0  0
 11 14  1  0  0  0  0
  9 10  1  0  0  0  0
  9 11  1  0  0  0  0
  9 25  1  0  0  0  0
  7  8  1  0  0  0  0
  7  9  1  0  0  0  0
 29 30  1  0  0  0  0
 29 31  1  0  0  0  0
 29 32  1  0  0  0  0
 27 28  1  0  0  0  0
 27 29  1  0  0  0  0
M  END
$$$$
default_name
  -OEChem-01062215323D

 32 32  0     1  0  0  0  0  0999 V2000
   -3.8405   -3.7518    1.6252 H   0  0  0  0  0  0  0  0  0  0  0  0
   -3.7965   -2.8768    0.9782 C   0  0  0  0  0  0  0  0  0  0  0  0
   -4.5465   -2.1527    1.2902 H   0  0  0  0  0  0  0  0  0  0  0  0
   -3.9745   -3.1748   -0.0538 H   0  0  0  0  0  0  0  0  0  0  0  0
   -2.4245   -2.2537    1.0882 C   0  0  0  0  0  0  0  0  0  0  0  0
   -1.5805   -2.7478    1.8242 O   0  0  0  0  0  0  0  0  0  0  0  0
   -2.2045   -1.1637    0.3562 N   0  0  0  0  0  0  0  0  0  0  0  0
   -2.9595   -0.7907   -0.2008 H   0  0  0  0  0  0  0  0  0  0  0  0
   -0.9485   -0.4087    0.3482 C   0  0  1  0  0  0  0  0  0  0  0  0
   -0.1176   -1.1153    0.3172 H   0  0  0  0  0  0  0  0  0  0  0  0
   -0.8886    0.4646   -0.9167 C   0  0  0  0  0  0  0  0  0  0  0  0
   -1.7908    1.0756   -0.9695 H   0  0  0  0  0  0  0  0  0  0  0  0
   -0.0377    1.1431   -0.8382 H   0  0  0  0  0  0  0  0  0  0  0  0
   -0.7805   -0.3266   -2.2063 C   0  0  0  0  0  0  0  0  0  0  0  0
    0.4639   -0.8272   -2.6338 C   0  0  0  0  0  0  0  0  0  0  0  0
    1.3557   -0.6306   -2.0556 H   0  0  0  0  0  0  0  0  0  0  0  0
    0.5495   -1.5954   -3.8096 C   0  0  0  0  0  0  0  0  0  0  0  0
    1.5064   -1.9767   -4.1374 H   0  0  0  0  0  0  0  0  0  0  0  0
   -0.6084   -1.8659   -4.5585 C   0  0  0  0  0  0  0  0  0  0  0  0
   -0.5422   -2.4541   -5.4631 H   0  0  0  0  0  0  0  0  0  0  0  0
   -1.8532   -1.3659   -4.1349 C   0  0  0  0  0  0  0  0  0  0  0  0
   -2.7424   -1.5692   -4.7134 H   0  0  0  0  0  0  0  0  0  0  0  0
   -1.9379   -0.5955   -2.9616 C   0  0  0  0  0  0  0  0  0  0  0  0
   -2.8956   -0.2086   -2.6386 H   0  0  0  0  0  0  0  0  0  0  0  0
   -0.8030    0.4290    1.6313 C   0  0  0  0  0  0  0  0  0  0  0  0
    0.2662    0.4447    2.2429 O   0  0  0  0  0  0  0  0  0  0  0  0
   -1.8744    1.1192    2.0422 N   0  0  0  0  0  0  0  0  0  0  0  0
   -2.7299    1.0111    1.5190 H   0  0  0  0  0  0  0  0  0  0  0  0
   -1.9049    1.9532    3.2413 C   0  0  0  0  0  0  0  0  0  0  0  0
   -1.0690    2.6557    3.2244 H   0  0  0  0  0  0  0  0  0  0  0  0
   -2.8413    2.5097    3.2897 H   0  0  0  0  0  0  0  0  0  0  0  0
   -1.8132    1.3239    4.1287 H   0  0  0  0  0  0  0  0  0  0  0  0
  5  6  2  0  0  0  0
  5  7  1  0  0  0  0
  2  3  1  0  0  0  0
  2  4  1  0  0  0  0
  2  5  1  0  0  0  0
  1  2  1  0  0  0  0
 25 26  2  0  0  0  0
 25 27  1  0  0  0  0
 23 24  1  0  0  0  0
 21 22  1  0  0  0  0
 21 23  2  0  0  0  0
 19 20  1  0  0  0  0
 19 21  1  0  0  0  0
 17 18  1  0  0  0  0
 17 19  2  0  0  0  0
 15 16  1  0  0  0  0
 15 17  1  0  0  0  0
 14 15  2  0  0  0  0
 14 23  1  0  0  0  0
 11 12  1  0  0  0  0
 11 13  1  0  0  0  0
 11 14  1  0  0  0  0
  9 10  1  0  0  0  0
  9 11  1  0  0  0  0
  9 25  1  0  0  0  0
  7  8  1  0  0  0  0
  7  9  1  0  0  0  0
 29 30  1  0  0  0  0
 29 31  1  0  0  0  0
 29 32  1  0  0  0  0
 27 28  1  0  0  0  0
 27 29  1  0  0  0  0
M  END
$$$$
default_name
  -OEChem-01062215323D

 32 32  0     1  0  0  0  0  0999 V2000
   -3.8405   -3.7518    1.6252 H   0  0  0  0  0  0  0  0  0  0  0  0
   -3.7965   -2.8768    0.9782 C   0  0  0  0  0  0  0  0  0  0  0  0
   -4.5465   -2.1527    1.2902 H   0  0  0  0  0  0  0  0  0  0  0  0
   -3.9745   -3.1748   -0.0538 H   0  0  0  0  0  0  0  0  0  0  0  0
   -2.4245   -2.2537    1.0882 C   0  0  0  0  0  0  0  0  0  0  0  0
   -1.5805   -2.7478    1.8242 O   0  0  0  0  0  0  0  0  0  0  0  0
   -2.2045   -1.1637    0.3562 N   0  0  0  0  0  0  0  0  0  0  0  0
   -2.9595   -0.7907   -0.2008 H   0  0  0  0  0  0  0  0  0  0  0  0
   -0.9485   -0.4087    0.3482 C   0  0  1  0  0  0  0  0  0  0  0  0
   -0.1176   -1.1153    0.3172 H   0  0  0  0  0  0  0  0  0  0  0  0
   -0.8886    0.4646   -0.9167 C   0  0  0  0  0  0  0  0  0  0  0  0
   -1.7908    1.0756   -0.9695 H   0  0  0  0  0  0  0  0  0  0  0  0
   -0.0377    1.1431   -0.8382 H   0  0  0  0  0  0  0  0  0  0  0  0
   -0.7805   -0.3266   -2.2063 C   0  0  0  0  0  0  0  0  0  0  0  0
    0.4639   -0.8272   -2.6338 C   0  0  0  0  0  0  0  0  0  0  0  0
    1.3557   -0.6306   -2.0556 H   0  0  0  0  0  0  0  0  0  0  0  0
    0.5495   -1.5954   -3.8096 C   0  0  0  0  0  0  0  0  0  0  0  0
    1.5064   -1.9767   -4.1374 H   0  0  0  0  0  0  0  0  0  0  0  0
   -0.6084   -1.8659   -4.5585 C   0  0  0  0  0  0  0  0  0  0  0  0
   -0.5422   -2.4541   -5.4631 H   0  0  0  0  0  0  0  0  0  0  0  0
   -1.8532   -1.3659   -4.1349 C   0  0  0  0  0  0  0  0  0  0  0  0
   -2.7424   -1.5692   -4.7134 H   0  0  0  0  0  0  0  0  0  0  0  0
   -1.9379   -0.5955   -2.9616 C   0  0  0  0  0  0  0  0  0  0  0  0
   -2.8956   -0.2086   -2.6386 H   0  0  0  0  0  0  0  0  0  0  0  0
   -0.8030    0.4290    1.6313 C   0  0  0  0  0  0  0  0  0  0  0  0
    0.3146    0.6713    2.0894 O   0  0  0  0  0  0  0  0  0  0  0  0
   -1.9269    0.8659    2.2135 N   0  0  0  0  0  0  0  0  0  0  0  0
   -2.8055    0.5790    1.8097 H   0  0  0  0  0  0  0  0  0  0  0  0
   -1.9627    1.6624    3.4377 C   0  0  0  0  0  0  0  0  0  0  0  0
   -1.3079    2.5301    3.3335 H   0  0  0  0  0  0  0  0  0  0  0  0
   -2.9796    2.0015    3.6372 H   0  0  0  0  0  0  0  0  0  0  0  0
   -1.6120    1.0602    4.2781 H   0  0  0  0  0  0  0  0  0  0  0  0
  5  6  2  0  0  0  0
  5  7  1  0  0  0  0
  2  3  1  0  0  0  0
  2  4  1  0  0  0  0
  2  5  1  0  0  0  0
  1  2  1  0  0  0  0
 25 26  2  0  0  0  0
 25 27  1  0  0  0  0
 23 24  1  0  0  0  0
 21 22  1  0  0  0  0
 21 23  2  0  0  0  0
 19 20  1  0  0  0  0
 19 21  1  0  0  0  0
 17 18  1  0  0  0  0
 17 19  2  0  0  0  0
 15 16  1  0  0  0  0
 15 17  1  0  0  0  0
 14 15  2  0  0  0  0
 14 23  1  0  0  0  0
 11 12  1  0  0  0  0
 11 13  1  0  0  0  0
 11 14  1  0  0  0  0
  9 10  1  0  0  0  0
  9 11  1  0  0  0  0
  9 25  1  0  0  0  0
  7  8  1  0  0  0  0
  7  9  1  0  0  0  0
 29 30  1  0  0  0  0
 29 31  1  0  0  0  0
 29 32  1  0  0  0  0
 27 28  1  0  0  0  0
 27 29  1  0  0  0  0
M  END
$$$$
default_name
  -OEChem-01062215323D

 32 32  0     1  0  0  0  0  0999 V2000
   -3.8405   -3.7518    1.6252 H   0  0  0  0  0  0  0  0  0  0  0  0
   -3.7965   -2.8768    0.9782 C   0  0  0  0  0  0  0  0  0  0  0  0
   -4.5465   -2.1527    1.2902 H   0  0  0  0  0  0  0  0  0  0  0  0
   -3.9745   -3.1748   -0.0538 H   0  0  0  0  0  0  0  0  0  0  0  0
   -2.4245   -2.2537    1.0882 C   0  0  0  0  0  0  0  0  0  0  0  0
   -1.5805   -2.7478    1.8242 O   0  0  0  0  0  0  0  0  0  0  0  0
   -2.2045   -1.1637    0.3562 N   0  0  0  0  0  0  0  0  0  0  0  0
   -2.9595   -0.7907   -0.2008 H   0  0  0  0  0  0  0  0  0  0  0  0
   -0.9485   -0.4087    0.3482 C   0  0  1  0  0  0  0  0  0  0  0  0
   -0.1176   -1.1153    0.3172 H   0  0  0  0  0  0  0  0  0  0  0  0
   -0.8886    0.4646   -0.9167 C   0  0  0  0  0  0  0  0  0  0  0  0
   -1.7908    1.0756   -0.9695 H   0  0  0  0  0  0  0  0  0  0  0  0
   -0.0377    1.1431   -0.8382 H   0  0  0  0  0  0  0  0  0  0  0  0
   -0.7805   -0.3266   -2.2063 C   0  0  0  0  0  0  0  0  0  0  0  0
    0.4639   -0.8272   -2.6338 C   0  0  0  0  0  0  0  0  0  0  0  0
    1.3557   -0.6306   -2.0556 H   0  0  0  0  0  0  0  0  0  0  0  0
    0.5495   -1.5954   -3.8096 C   0  0  0  0  0  0  0  0  0  0  0  0
    1.5064   -1.9767   -4.1374 H   0  0  0  0  0  0  0  0  0  0  0  0
   -0.6084   -1.8659   -4.5585 C   0  0  0  0  0  0  0  0  0  0  0  0
   -0.5422   -2.4541   -5.4631 H   0  0  0  0  0  0  0  0  0  0  0  0
   -1.8532   -1.3659   -4.1349 C   0  0  0  0  0  0  0  0  0  0  0  0
   -2.7424   -1.5692   -4.7134 H   0  0  0  0  0  0  0  0  0  0  0  0
   -1.9379   -0.5955   -2.9616 C   0  0  0  0  0  0  0  0  0  0  0  0
   -2.8956   -0.2086   -2.6386 H   0  0  0  0  0  0  0  0  0  0  0  0
   -0.8030    0.4290    1.6313 C   0  0  0  0  0  0  0  0  0  0  0  0
    0.2907    0.9045    1.9399 O   0  0  0  0  0  0  0  0  0  0  0  0
   -1.8988    0.6058    2.3802 N   0  0  0  0  0  0  0  0  0  0  0  0
   -2.7443    0.1383    2.0906 H   0  0  0  0  0  0  0  0  0  0  0  0
   -1.9282    1.3643    3.6284 C   0  0  0  0  0  0  0  0  0  0  0  0
   -1.4961    2.3546    3.4694 H   0  0  0  0  0  0  0  0  0  0  0  0
   -2.9546    1.4723    3.9799 H   0  0  0  0  0  0  0  0  0  0  0  0
   -1.3398    0.8453    4.3876 H   0  0  0  0  0  0  0  0  0  0  0  0
  5  6  2  0  0  0  0
  5  7  1  0  0  0  0
  2  3  1  0  0  0  0
  2  4  1  0  0  0  0
  2  5  1  0  0  0  0
  1  2  1  0  0  0  0
 25 26  2  0  0  0  0
 25 27  1  0  0  0  0
 23 24  1  0  0  0  0
 21 22  1  0  0  0  0
 21 23  2  0  0  0  0
 19 20  1  0  0  0  0
 19 21  1  0  0  0  0
 17 18  1  0  0  0  0
 17 19  2  0  0  0  0
 15 16  1  0  0  0  0
 15 17  1  0  0  0  0
 14 15  2  0  0  0  0
 14 23  1  0  0  0  0
 11 12  1  0  0  0  0
 11 13  1  0  0  0  0
 11 14  1  0  0  0  0
  9 10  1  0  0  0  0
  9 11  1  0  0  0  0
  9 25  1  0  0  0  0
  7  8  1  0  0  0  0
  7  9  1  0  0  0  0
 29 30  1  0  0  0  0
 29 31  1  0  0  0  0
 29 32  1  0  0  0  0
 27 28  1  0  0  0  0
 27 29  1  0  0  0  0
M  END
$$$$
default_name
  -OEChem-01062215323D

 32 32  0     1  0  0  0  0  0999 V2000
   -3.8405   -3.7518    1.6252 H   0  0  0  0  0  0  0  0  0  0  0  0
   -3.7965   -2.8768    0.9782 C   0  0  0  0  0  0  0  0  0  0  0  0
   -4.5465   -2.1527    1.2902 H   0  0  0  0  0  0  0  0  0  0  0  0
   -3.9745   -3.1748   -0.0538 H   0  0  0  0  0  0  0  0  0  0  0  0
   -2.4245   -2.2537    1.0882 C   0  0  0  0  0  0  0  0  0  0  0  0
   -1.5805   -2.7478    1.8242 O   0  0  0  0  0  0  0  0  0  0  0  0
   -2.2045   -1.1637    0.3562 N   0  0  0  0  0  0  0  0  0  0  0  0
   -2.9595   -0.7907   -0.2008 H   0  0  0  0  0  0  0  0  0  0  0  0
   -0.9485   -0.4087    0.3482 C   0  0  1  0  0  0  0  0  0  0  0  0
   -0.1176   -1.1153    0.3172 H   0  0  0  0  0  0  0  0  0  0  0  0
   -0.8886    0.4646   -0.9167 C   0  0  0  0  0  0  0  0  0  0  0  0
   -1.7908    1.0756   -0.9695 H   0  0  0  0  0  0  0  0  0  0  0  0
   -0.0377    1.1431   -0.8382 H   0  0  0  0  0  0  0  0  0  0  0  0
   -0.7805   -0.3266   -2.2063 C   0  0  0  0  0  0  0  0  0  0  0  0
    0.4639   -0.8272   -2.6338 C   0  0  0  0  0  0  0  0  0  0  0  0
    1.3557   -0.6306   -2.0556 H   0  0  0  0  0  0  0  0  0  0  0  0
    0.5495   -1.5954   -3.8096 C   0  0  0  0  0  0  0  0  0  0  0  0
    1.5064   -1.9767   -4.1374 H   0  0  0  0  0  0  0  0  0  0  0  0
   -0.6084   -1.8659   -4.5585 C   0  0  0  0  0  0  0  0  0  0  0  0
   -0.5422   -2.4541   -5.4631 H   0  0  0  0  0  0  0  0  0  0  0  0
   -1.8532   -1.3659   -4.1349 C   0  0  0  0  0  0  0  0  0  0  0  0
   -2.7424   -1.5692   -4.7134 H   0  0  0  0  0  0  0  0  0  0  0  0
   -1.9379   -0.5955   -2.9616 C   0  0  0  0  0  0  0  0  0  0  0  0
   -2.8956   -0.2086   -2.6386 H   0  0  0  0  0  0  0  0  0  0  0  0
   -0.8030    0.4290    1.6313 C   0  0  0  0  0  0  0  0  0  0  0  0
    0.1964    1.1282    1.8045 O   0  0  0  0  0  0  0  0  0  0  0  0
   -1.7921    0.3564    2.5309 N   0  0  0  0  0  0  0  0  0  0  0  0
   -2.5506   -0.2811    2.3424 H   0  0  0  0  0  0  0  0  0  0  0  0
   -1.8036    1.0792    3.8005 C   0  0  0  0  0  0  0  0  0  0  0  0
   -1.6208    2.1411    3.6230 H   0  0  0  0  0  0  0  0  0  0  0  0
   -2.7681    0.9581    4.2944 H   0  0  0  0  0  0  0  0  0  0  0  0
   -1.0151    0.6937    4.4497 H   0  0  0  0  0  0  0  0  0  0  0  0
  5  6  2  0  0  0  0
  5  7  1  0  0  0  0
  2  3  1  0  0  0  0
  2  4  1  0  0  0  0
  2  5  1  0  0  0  0
  1  2  1  0  0  0  0
 25 26  2  0  0  0  0
 25 27  1  0  0  0  0
 23 24  1  0  0  0  0
 21 22  1  0  0  0  0
 21 23  2  0  0  0  0
 19 20  1  0  0  0  0
 19 21  1  0  0  0  0
 17 18  1  0  0  0  0
 17 19  2  0  0  0  0
 15 16  1  0  0  0  0
 15 17  1  0  0  0  0
 14 15  2  0  0  0  0
 14 23  1  0  0  0  0
 11 12  1  0  0  0  0
 11 13  1  0  0  0  0
 11 14  1  0  0  0  0
  9 10  1  0  0  0  0
  9 11  1  0  0  0  0
  9 25  1  0  0  0  0
  7  8  1  0  0  0  0
  7  9  1  0  0  0  0
 29 30  1  0  0  0  0
 29 31  1  0  0  0  0
 29 32  1  0  0  0  0
 27 28  1  0  0  0  0
 27 29  1  0  0  0  0
M  END
$$$$
default_name
  -OEChem-01062215323D

 32 32  0     1  0  0  0  0  0999 V2000
   -3.8405   -3.7518    1.6252 H   0  0  0  0  0  0  0  0  0  0  0  0
   -3.7965   -2.8768    0.9782 C   0  0  0  0  0  0  0  0  0  0  0  0
   -4.5465   -2.1527    1.2902 H   0  0  0  0  0  0  0  0  0  0  0  0
   -3.9745   -3.1748   -0.0538 H   0  0  0  0  0  0  0  0  0  0  0  0
   -2.4245   -2.2537    1.0882 C   0  0  0  0  0  0  0  0  0  0  0  0
   -1.5805   -2.7478    1.8242 O   0  0  0  0  0  0  0  0  0  0  0  0
   -2.2045   -1.1637    0.3562 N   0  0  0  0  0  0  0  0  0  0  0  0
   -2.9595   -0.7907   -0.2008 H   0  0  0  0  0  0  0  0  0  0  0  0
   -0.9485   -0.4087    0.3482 C   0  0  1  0  0  0  0  0  0  0  0  0
   -0.1176   -1.1153    0.3172 H   0  0  0  0  0  0  0  0  0  0  0  0
   -0.8886    0.4646   -0.9167 C   0  0  0  0  0  0  0  0  0  0  0  0
   -1.7908    1.0756   -0.9695 H   0  0  0  0  0  0  0  0  0  0  0  0
   -0.0377    1.1431   -0.8382 H   0  0  0  0  0  0  0  0  0  0  0  0
   -0.7805   -0.3266   -2.2063 C   0  0  0  0  0  0  0  0  0  0  0  0
    0.4639   -0.8272   -2.6338 C   0  0  0  0  0  0  0  0  0  0  0  0
    1.3557   -0.6306   -2.0556 H   0  0  0  0  0  0  0  0  0  0  0  0
    0.5495   -1.5954   -3.8096 C   0  0  0  0  0  0  0  0  0  0  0  0
    1.5064   -1.9767   -4.1374 H   0  0  0  0  0  0  0  0  0  0  0  0
   -0.6084   -1.8659   -4.5585 C   0  0  0  0  0  0  0  0  0  0  0  0
   -0.5422   -2.4541   -5.4631 H   0  0  0  0  0  0  0  0  0  0  0  0
   -1.8532   -1.3659   -4.1349 C   0  0  0  0  0  0  0  0  0  0  0  0
   -2.7424   -1.5692   -4.7134 H   0  0  0  0  0  0  0  0  0  0  0  0
   -1.9379   -0.5955   -2.9616 C   0  0  0  0  0  0  0  0  0  0  0  0
   -2.8956   -0.2086   -2.6386 H   0  0  0  0  0  0  0  0  0  0  0  0
   -0.8030    0.4290    1.6313 C   0  0  0  0  0  0  0  0  0  0  0  0
    0.0379    1.3272    1.6926 O   0  0  0  0  0  0  0  0  0  0  0  0
   -1.6141    0.1349    2.6554 N   0  0  0  0  0  0  0  0  0  0  0  0
   -2.2376   -0.6506    2.5482 H   0  0  0  0  0  0  0  0  0  0  0  0
   -1.5976    0.8264    3.9421 C   0  0  0  0  0  0  0  0  0  0  0  0
   -1.6737    1.9042    3.7836 H   0  0  0  0  0  0  0  0  0  0  0  0
   -2.4327    0.4940    4.5594 H   0  0  0  0  0  0  0  0  0  0  0  0
   -0.6600    0.6158    4.4603 H   0  0  0  0  0  0  0  0  0  0  0  0
  5  6  2  0  0  0  0
  5  7  1  0  0  0  0
  2  3  1  0  0  0  0
  2  4  1  0  0  0  0
  2  5  1  0  0  0  0
  1  2  1  0  0  0  0
 25 26  2  0  0  0  0
 25 27  1  0  0  0  0
 23 24  1  0  0  0  0
 21 22  1  0  0  0  0
 21 23  2  0  0  0  0
 19 20  1  0  0  0  0
 19 21  1  0  0  0  0
 17 18  1  0  0  0  0
 17 19  2  0  0  0  0
 15 16  1  0  0  0  0
 15 17  1  0  0  0  0
 14 15  2  0  0  0  0
 14 23  1  0  0  0  0
 11 12  1  0  0  0  0
 11 13  1  0  0  0  0
 11 14  1  0  0  0  0
  9 10  1  0  0  0  0
  9 11  1  0  0  0  0
  9 25  1  0  0  0  0
  7  8  1  0  0  0  0
  7  9  1  0  0  0  0
 29 30  1  0  0  0  0
 29 31  1  0  0  0  0
 29 32  1  0  0  0  0
 27 28  1  0  0  0  0
 27 29  1  0  0  0  0
M  END
$$$$
default_name
  -OEChem-01062215323D

 32 32  0     1  0  0  0  0  0999 V2000
   -3.8405   -3.7518    1.6252 H   0  0  0  0  0  0  0  0  0  0  0  0
   -3.7965   -2.8768    0.9782 C   0  0  0  0  0  0  0  0  0  0  0  0
   -4.5465   -2.1527    1.2902 H   0  0  0  0  0  0  0  0  0  0  0  0
   -3.9745   -3.1748   -0.0538 H   0  0  0  0  0  0  0  0  0  0  0  0
   -2.4245   -2.2537    1.0882 C   0  0  0  0  0  0  0  0  0  0  0  0
   -1.5805   -2.7478    1.8242 O   0  0  0  0  0  0  0  0  0  0  0  0
   -2.2045   -1.1637    0.3562 N   0  0  0  0  0  0  0  0  0  0  0  0
   -2.9595   -0.7907   -0.2008 H   0  0  0  0  0  0  0  0  0  0  0  0
   -0.9485   -0.4087    0.3482 C   0  0  1  0  0  0  0  0  0  0  0  0
   -0.1176   -1.1153    0.3172 H   0  0  0  0  0  0  0  0  0  0  0  0
   -0.8886    0.4646   -0.9167 C   0  0  0  0  0  0  0  0  0  0  0  0
   -1.7908    1.0756   -0.9695 H   0  0  0  0  0  0  0  0  0  0  0  0
   -0.0377    1.1431   -0.8382 H   0  0  0  0  0  0  0  0  0  0  0  0
   -0.7805   -0.3266   -2.2063 C   0  0  0  0  0  0  0  0  0  0  0  0
    0.4639   -0.8272   -2.6338 C   0  0  0  0  0  0  0  0  0  0  0  0
    1.3557   -0.6306   -2.0556 H   0  0  0  0  0  0  0  0  0  0  0  0
    0.5495   -1.5954   -3.8096 C   0  0  0  0  0  0  0  0  0  0  0  0
    1.5064   -1.9767   -4.1374 H   0  0  0  0  0  0  0  0  0  0  0  0
   -0.6084   -1.8659   -4.5585 C   0  0  0  0  0  0  0  0  0  0  0  0
   -0.5422   -2.4541   -5.4631 H   0  0  0  0  0  0  0  0  0  0  0  0
   -1.8532   -1.3659   -4.1349 C   0  0  0  0  0  0  0  0  0  0  0  0
   -2.7424   -1.5692   -4.7134 H   0  0  0  0  0  0  0  0  0  0  0  0
   -1.9379   -0.5955   -2.9616 C   0  0  0  0  0  0  0  0  0  0  0  0
   -2.8956   -0.2086   -2.6386 H   0  0  0  0  0  0  0  0  0  0  0  0
   -0.8030    0.4290    1.6313 C   0  0  0  0  0  0  0  0  0  0  0  0
   -0.1739    1.4880    1.6116 O   0  0  0  0  0  0  0  0  0  0  0  0
   -1.3767   -0.0437    2.7450 N   0  0  0  0  0  0  0  0  0  0  0  0
   -1.8265   -0.9450    2.6938 H   0  0  0  0  0  0  0  0  0  0  0  0
   -1.3241    0.6232    4.0438 C   0  0  0  0  0  0  0  0  0  0  0  0
   -1.6510    1.6600    3.9405 H   0  0  0  0  0  0  0  0  0  0  0  0
   -1.9712    0.1116    4.7568 H   0  0  0  0  0  0  0  0  0  0  0  0
   -0.2987    0.6169    4.4186 H   0  0  0  0  0  0  0  0  0  0  0  0
  5  6  2  0  0  0  0
  5  7  1  0  0  0  0
  2  3  1  0  0  0  0
  2  4  1  0  0  0  0
  2  5  1  0  0  0  0
  1  2  1  0  0  0  0
 25 26  2  0  0  0  0
 25 27  1  0  0  0  0
 23 24  1  0  0  0  0
 21 22  1  0  0  0  0
 21 23  2  0  0  0  0
 19 20  1  0  0  0  0
 19 21  1  0  0  0  0
 17 18  1  0  0  0  0
 17 19  2  0  0  0  0
 15 16  1  0  0  0  0
 15 17  1  0  0  0  0
 14 15  2  0  0  0  0
 14 23  1  0  0  0  0
 11 12  1  0  0  0  0
 11 13  1  0  0  0  0
 11 14  1  0  0  0  0
  9 10  1  0  0  0  0
  9 11  1  0  0  0  0
  9 25  1  0  0  0  0
  7  8  1  0  0  0  0
  7  9  1  0  0  0  0
 29 30  1  0  0  0  0
 29 31  1  0  0  0  0
 29 32  1  0  0  0  0
 27 28  1  0  0  0  0
 27 29  1  0  0  0  0
M  END
$$$$
default_name
  -OEChem-01062215323D

 32 32  0     1  0  0  0  0  0999 V2000
   -3.8405   -3.7518    1.6252 H   0  0  0  0  0  0  0  0  0  0  0  0
   -3.7965   -2.8768    0.9782 C   0  0  0  0  0  0  0  0  0  0  0  0
   -4.5465   -2.1527    1.2902 H   0  0  0  0  0  0  0  0  0  0  0  0
   -3.9745   -3.1748   -0.0538 H   0  0  0  0  0  0  0  0  0  0  0  0
   -2.4245   -2.2537    1.0882 C   0  0  0  0  0  0  0  0  0  0  0  0
   -1.5805   -2.7478    1.8242 O   0  0  0  0  0  0  0  0  0  0  0  0
   -2.2045   -1.1637    0.3562 N   0  0  0  0  0  0  0  0  0  0  0  0
   -2.9595   -0.7907   -0.2008 H   0  0  0  0  0  0  0  0  0  0  0  0
   -0.9485   -0.4087    0.3482 C   0  0  1  0  0  0  0  0  0  0  0  0
   -0.1176   -1.1153    0.3172 H   0  0  0  0  0  0  0  0  0  0  0  0
   -0.8886    0.4646   -0.9167 C   0  0  0  0  0  0  0  0  0  0  0  0
   -1.7908    1.0756   -0.9695 H   0  0  0  0  0  0  0  0  0  0  0  0
   -0.0377    1.1431   -0.8382 H   0  0  0  0  0  0  0  0  0  0  0  0
   -0.7805   -0.3266   -2.2063 C   0  0  0  0  0  0  0  0  0  0  0  0
    0.4639   -0.8272   -2.6338 C   0  0  0  0  0  0  0  0  0  0  0  0
    1.3557   -0.6306   -2.0556 H   0  0  0  0  0  0  0  0  0  0  0  0
    0.5495   -1.5954   -3.8096 C   0  0  0  0  0  0  0  0  0  0  0  0
    1.5064   -1.9767   -4.1374 H   0  0  0  0  0  0  0  0  0  0  0  0
   -0.6084   -1.8659   -4.5585 C   0  0  0  0  0  0  0  0  0  0  0  0
   -0.5422   -2.4541   -5.4631 H   0  0  0  0  0  0  0  0  0  0  0  0
   -1.8532   -1.3659   -4.1349 C   0  0  0  0  0  0  0  0  0  0  0  0
   -2.7424   -1.5692   -4.7134 H   0  0  0  0  0  0  0  0  0  0  0  0
   -1.9379   -0.5955   -2.9616 C   0  0  0  0  0  0  0  0  0  0  0  0
   -2.8956   -0.2086   -2.6386 H   0  0  0  0  0  0  0  0  0  0  0  0
   -0.8030    0.4290    1.6313 C   0  0  0  0  0  0  0  0  0  0  0  0
   -0.4246    1.5996    1.5672 O   0  0  0  0  0  0  0  0  0  0  0  0
   -1.0963   -0.1672    2.7939 N   0  0  0  0  0  0  0  0  0  0  0  0
   -1.3454   -1.1443    2.7693 H   0  0  0  0  0  0  0  0  0  0  0  0
   -1.0017    0.4835    4.0985 C   0  0  0  0  0  0  0  0  0  0  0  0
   -1.5543    1.4253    4.0828 H   0  0  0  0  0  0  0  0  0  0  0  0
   -1.4152   -0.1630    4.8730 H   0  0  0  0  0  0  0  0  0  0  0  0
    0.0442    0.6970    4.3274 H   0  0  0  0  0  0  0  0  0  0  0  0
  5  6  2  0  0  0  0
  5  7  1  0  0  0  0
  2  3  1  0  0  0  0
  2  4  1  0  0  0  0
  2  5  1  0  0  0  0
  1  2  1  0  0  0  0
 25 26  2  0  0  0  0
 25 27  1  0  0  0  0
 23 24  1  0  0  0  0
 21 22  1  0  0  0  0
 21 23  2  0  0  0  0
 19 20  1  0  0  0  0
 19 21  1  0  0  0  0
 17 18  1  0  0  0  0
 17 19  2  0  0  0  0
 15 16  1  0  0  0  0
 15 17  1  0  0  0  0
 14 15  2  0  0  0  0
 14 23  1  0  0  0  0
 11 12  1  0  0  0  0
 11 13  1  0  0  0  0
 11 14  1  0  0  0  0
  9 10  1  0  0  0  0
  9 11  1  0  0  0  0
  9 25  1  0  0  0  0
  7  8  1  0  0  0  0
  7  9  1  0  0  0  0
 29 30  1  0  0  0  0
 29 31  1  0  0  0  0
 29 32  1  0  0  0  0
 27 28  1  0  0  0  0
 27 29  1  0  0  0  0
M  END
$$$$
default_name
  -OEChem-01062215323D

 32 32  0     1  0  0  0  0  0999 V2000
   -3.8405   -3.7518    1.6252 H   0  0  0  0  0  0  0  0  0  0  0  0
   -3.7965   -2.8768    0.9782 C   0  0  0  0  0  0  0  0  0  0  0  0
   -4.5465   -2.1527    1.2902 H   0  0  0  0  0  0  0  0  0  0  0  0
   -3.9745   -3.1748   -0.0538 H   0  0  0  0  0  0  0  0  0  0  0  0
   -2.4245   -2.2537    1.0882 C   0  0  0  0  0  0  0  0  0  0  0  0
   -1.5805   -2.7478    1.8242 O   0  0  0  0  0  0  0  0  0  0  0  0
   -2.2045   -1.1637    0.3562 N   0  0  0  0  0  0  0  0  0  0  0  0
   -2.9595   -0.7907   -0.2008 H   0  0  0  0  0  0  0  0  0  0  0  0
   -0.9485   -0.4087    0.3482 C   0  0  1  0  0  0  0  0  0  0  0  0
   -0.1176   -1.1153    0.3172 H   0  0  0  0  0  0  0  0  0  0  0  0
   -0.8886    0.4646   -0.9167 C   0  0  0  0  0  0  0  0  0  0  0  0
   -1.7908    1.0756   -0.9695 H   0  0  0  0  0  0  0  0  0  0  0  0
   -0.0377    1.1431   -0.8382 H   0  0  0  0  0  0  0  0  0  0  0  0
   -0.7805   -0.3266   -2.2063 C   0  0  0  0  0  0  0  0  0  0  0  0
    0.4639   -0.8272   -2.6338 C   0  0  0  0  0  0  0  0  0  0  0  0
    1.3557   -0.6306   -2.0556 H   0  0  0  0  0  0  0  0  0  0  0  0
    0.5495   -1.5954   -3.8096 C   0  0  0  0  0  0  0  0  0  0  0  0
    1.5064   -1.9767   -4.1374 H   0  0  0  0  0  0  0  0  0  0  0  0
   -0.6084   -1.8659   -4.5585 C   0  0  0  0  0  0  0  0  0  0  0  0
   -0.5422   -2.4541   -5.4631 H   0  0  0  0  0  0  0  0  0  0  0  0
   -1.8532   -1.3659   -4.1349 C   0  0  0  0  0  0  0  0  0  0  0  0
   -2.7424   -1.5692   -4.7134 H   0  0  0  0  0  0  0  0  0  0  0  0
   -1.9379   -0.5955   -2.9616 C   0  0  0  0  0  0  0  0  0  0  0  0
   -2.8956   -0.2086   -2.6386 H   0  0  0  0  0  0  0  0  0  0  0  0
   -0.8030    0.4290    1.6313 C   0  0  0  0  0  0  0  0  0  0  0  0
   -0.6971    1.6544    1.5623 O   0  0  0  0  0  0  0  0  0  0  0  0
   -0.7919   -0.2272    2.7985 N   0  0  0  0  0  0  0  0  0  0  0  0
   -0.8270   -1.2348    2.7696 H   0  0  0  0  0  0  0  0  0  0  0  0
   -0.6525    0.4167    4.1024 C   0  0  0  0  0  0  0  0  0  0  0  0
   -1.3902    1.2159    4.2009 H   0  0  0  0  0  0  0  0  0  0  0  0
   -0.8025   -0.3112    4.9003 H   0  0  0  0  0  0  0  0  0  0  0  0
    0.3453    0.8505    4.1930 H   0  0  0  0  0  0  0  0  0  0  0  0
  5  6  2  0  0  0  0
  5  7  1  0  0  0  0
  2  3  1  0  0  0  0
  2  4  1  0  0  0  0
  2  5  1  0  0  0  0
  1  2  1  0  0  0  0
 25 26  2  0  0  0  0
 25 27  1  0  0  0  0
 23 24  1  0  0  0  0
 21 22  1  0  0  0  0
 21 23  2  0  0  0  0
 19 20  1  0  0  0  0
 19 21  1  0  0  0  0
 17 18  1  0  0  0  0
 17 19  2  0  0  0  0
 15 16  1  0  0  0  0
 15 17  1  0  0  0  0
 14 15  2  0  0  0  0
 14 23  1  0  0  0  0
 11 12  1  0  0  0  0
 11 13  1  0  0  0  0
 11 14  1  0  0  0  0
  9 10  1  0  0  0  0
  9 11  1  0  0  0  0
  9 25  1  0  0  0  0
  7  8  1  0  0  0  0
  7  9  1  0  0  0  0
 29 30  1  0  0  0  0
 29 31  1  0  0  0  0
 29 32  1  0  0  0  0
 27 28  1  0  0  0  0
 27 29  1  0  0  0  0
M  END
$$$$
default_name
  -OEChem-01062215323D

 32 32  0     1  0  0  0  0  0999 V2000
   -3.8405   -3.7518    1.6252 H   0  0  0  0  0  0  0  0  0  0  0  0
   -3.7965   -2.8768    0.9782 C   0  0  0  0  0  0  0  0  0  0  0  0
   -4.5465   -2.1527    1.2902 H   0  0  0  0  0  0  0  0  0  0  0  0
   -3.9745   -3.1748   -0.0538 H   0  0  0  0  0  0  0  0  0  0  0  0
   -2.4245   -2.2537    1.0882 C   0  0  0  0  0  0  0  0  0  0  0  0
   -1.5805   -2.7478    1.8242 O   0  0  0  0  0  0  0  0  0  0  0  0
   -2.2045   -1.1637    0.3562 N   0  0  0  0  0  0  0  0  0  0  0  0
   -2.9595   -0.7907   -0.2008 H   0  0  0  0  0  0  0  0  0  0  0  0
   -0.9485   -0.4087    0.3482 C   0  0  1  0  0  0  0  0  0  0  0  0
   -0.1176   -1.1153    0.3172 H   0  0  0  0  0  0  0  0  0  0  0  0
   -0.8886    0.4646   -0.9167 C   0  0  0  0  0  0  0  0  0  0  0  0
   -1.7908    1.0756   -0.9695 H   0  0  0  0  0  0  0  0  0  0  0  0
   -0.0377    1.1431   -0.8382 H   0  0  0  0  0  0  0  0  0  0  0  0
   -0.7805   -0.3266   -2.2063 C   0  0  0  0  0  0  0  0  0  0  0  0
    0.4639   -0.8272   -2.6338 C   0  0  0  0  0  0  0  0  0  0  0  0
    1.3557   -0.6306   -2.0556 H   0  0  0  0  0  0  0  0  0  0  0  0
    0.5495   -1.5954   -3.8096 C   0  0  0  0  0  0  0  0  0  0  0  0
    1.5064   -1.9767   -4.1374 H   0  0  0  0  0  0  0  0  0  0  0  0
   -0.6084   -1.8659   -4.5585 C   0  0  0  0  0  0  0  0  0  0  0  0
   -0.5422   -2.4541   -5.4631 H   0  0  0  0  0  0  0  0  0  0  0  0
   -1.8532   -1.3659   -4.1349 C   0  0  0  0  0  0  0  0  0  0  0  0
   -2.7424   -1.5692   -4.7134 H   0  0  0  0  0  0  0  0  0  0  0  0
   -1.9379   -0.5955   -2.9616 C   0  0  0  0  0  0  0  0  0  0  0  0
   -2.8956   -0.2086   -2.6386 H   0  0  0  0  0  0  0  0  0  0  0  0
   -0.8030    0.4290    1.6313 C   0  0  0  0  0  0  0  0  0  0  0  0
   -0.9728    1.6486    1.5973 O   0  0  0  0  0  0  0  0  0  0  0  0
   -0.4843   -0.2195    2.7586 N   0  0  0  0  0  0  0  0  0  0  0  0
   -0.3068   -1.2103    2.6946 H   0  0  0  0  0  0  0  0  0  0  0  0
   -0.3002    0.4275    4.0555 C   0  0  0  0  0  0  0  0  0  0  0  0
   -1.1699    1.0461    4.2867 H   0  0  0  0  0  0  0  0  0  0  0  0
   -0.1748   -0.3228    4.8366 H   0  0  0  0  0  0  0  0  0  0  0  0
    0.5840    1.0670    4.0245 H   0  0  0  0  0  0  0  0  0  0  0  0
  5  6  2  0  0  0  0
  5  7  1  0  0  0  0
  2  3  1  0  0  0  0
  2  4  1  0  0  0  0
  2  5  1  0  0  0  0
  1  2  1  0  0  0  0
 25 26  2  0  0  0  0
 25 27  1  0  0  0  0
 23 24  1  0  0  0  0
 21 22  1  0  0  0  0
 21 23  2  0  0  0  0
 19 20  1  0  0  0  0
 19 21  1  0  0  0  0
 17 18  1  0  0  0  0
 17 19  2  0  0  0  0
 15 16  1  0  0  0  0
 15 17  1  0  0  0  0
 14 15  2  0  0  0  0
 14 23  1  0  0  0  0
 11 12  1  0  0  0  0
 11 13  1  0  0  0  0
 11 14  1  0  0  0  0
  9 10  1  0  0  0  0
  9 11  1  0  0  0  0
  9 25  1  0  0  0  0
  7  8  1  0  0  0  0
  7  9  1  0  0  0  0
 29 30  1  0  0  0  0
 29 31  1  0  0  0  0
 29 32  1  0  0  0  0
 27 28  1  0  0  0  0
 27 29  1  0  0  0  0
M  END
$$$$
default_name
  -OEChem-01062215323D

 32 32  0     1  0  0  0  0  0999 V2000
   -3.8405   -3.7518    1.6252 H   0  0  0  0  0  0  0  0  0  0  0  0
   -3.7965   -2.8768    0.9782 C   0  0  0  0  0  0  0  0  0  0  0  0
   -4.5465   -2.1527    1.2902 H   0  0  0  0  0  0  0  0  0  0  0  0
   -3.9745   -3.1748   -0.0538 H   0  0  0  0  0  0  0  0  0  0  0  0
   -2.4245   -2.2537    1.0882 C   0  0  0  0  0  0  0  0  0  0  0  0
   -1.5805   -2.7478    1.8242 O   0  0  0  0  0  0  0  0  0  0  0  0
   -2.2045   -1.1637    0.3562 N   0  0  0  0  0  0  0  0  0  0  0  0
   -2.9595   -0.7907   -0.2008 H   0  0  0  0  0  0  0  0  0  0  0  0
   -0.9485   -0.4087    0.3482 C   0  0  1  0  0  0  0  0  0  0  0  0
   -0.1176   -1.1153    0.3172 H   0  0  0  0  0  0  0  0  0  0  0  0
   -0.8886    0.4646   -0.9167 C   0  0  0  0  0  0  0  0  0  0  0  0
   -1.7908    1.0756   -0.9695 H   0  0  0  0  0  0  0  0  0  0  0  0
   -0.0377    1.1431   -0.8382 H   0  0  0  0  0  0  0  0  0  0  0  0
   -0.7805   -0.3266   -2.2063 C   0  0  0  0  0  0  0  0  0  0  0  0
    0.4639   -0.8272   -2.6338 C   0  0  0  0  0  0  0  0  0  0  0  0
    1.3557   -0.6306   -2.0556 H   0  0  0  0  0  0  0  0  0  0  0  0
    0.5495   -1.5954   -3.8096 C   0  0  0  0  0  0  0  0  0  0  0  0
    1.5064   -1.9767   -4.1374 H   0  0  0  0  0  0  0  0  0  0  0  0
   -0.6084   -1.8659   -4.5585 C   0  0  0  0  0  0  0  0  0  0  0  0
   -0.5422   -2.4541   -5.4631 H   0  0  0  0  0  0  0  0  0  0  0  0
   -1.8532   -1.3659   -4.1349 C   0  0  0  0  0  0  0  0  0  0  0  0
   -2.7424   -1.5692   -4.7134 H   0  0  0  0  0  0  0  0  0  0  0  0
   -1.9379   -0.5955   -2.9616 C   0  0  0  0  0  0  0  0  0  0  0  0
   -2.8956   -0.2086   -2.6386 H   0  0  0  0  0  0  0  0  0  0  0  0
   -0.8030    0.4290    1.6313 C   0  0  0  0  0  0  0  0  0  0  0  0
   -1.2329    1.5828    1.6698 O   0  0  0  0  0  0  0  0  0  0  0  0
   -0.1945   -0.1448    2.6770 N   0  0  0  0  0  0  0  0  0  0  0  0
    0.1799   -1.0727    2.5496 H   0  0  0  0  0  0  0  0  0  0  0  0
    0.0312    0.5150    3.9607 C   0  0  0  0  0  0  0  0  0  0  0  0
   -0.9083    0.9276    4.3345 H   0  0  0  0  0  0  0  0  0  0  0  0
    0.4250   -0.1970    4.6865 H   0  0  0  0  0  0  0  0  0  0  0  0
    0.7442    1.3318    3.8335 H   0  0  0  0  0  0  0  0  0  0  0  0
  5  6  2  0  0  0  0
  5  7  1  0  0  0  0
  2  3  1  0  0  0  0
  2  4  1  0  0  0  0
  2  5  1  0  0  0  0
  1  2  1  0  0  0  0
 25 26  2  0  0  0  0
 25 27  1  0  0  0  0
 23 24  1  0  0  0  0
 21 22  1  0  0  0  0
 21 23  2  0  0  0  0
 19 20  1  0  0  0  0
 19 21  1  0  0  0  0
 17 18  1  0  0  0  0
 17 19  2  0  0  0  0
 15 16  1  0  0  0  0
 15 17  1  0  0  0  0
 14 15  2  0  0  0  0
 14 23  1  0  0  0  0
 11 12  1  0  0  0  0
 11 13  1  0  0  0  0
 11 14  1  0  0  0  0
  9 10  1  0  0  0  0
  9 11  1  0  0  0  0
  9 25  1  0  0  0  0
  7  8  1  0  0  0  0
  7  9  1  0  0  0  0
 29 30  1  0  0  0  0
 29 31  1  0  0  0  0
 29 32  1  0  0  0  0
 27 28  1  0  0  0  0
 27 29  1  0  0  0  0
M  END
$$$$
default_name
  -OEChem-01062215323D

 32 32  0     1  0  0  0  0  0999 V2000
   -3.8405   -3.7518    1.6252 H   0  0  0  0  0  0  0  0  0  0  0  0
   -3.7965   -2.8768    0.9782 C   0  0  0  0  0  0  0  0  0  0  0  0
   -4.5465   -2.1527    1.2902 H   0  0  0  0  0  0  0  0  0  0  0  0
   -3.9745   -3.1748   -0.0538 H   0  0  0  0  0  0  0  0  0  0  0  0
   -2.4245   -2.2537    1.0882 C   0  0  0  0  0  0  0  0  0  0  0  0
   -1.5805   -2.7478    1.8242 O   0  0  0  0  0  0  0  0  0  0  0  0
   -2.2045   -1.1637    0.3562 N   0  0  0  0  0  0  0  0  0  0  0  0
   -2.9595   -0.7907   -0.2008 H   0  0  0  0  0  0  0  0  0  0  0  0
   -0.9485   -0.4087    0.3482 C   0  0  1  0  0  0  0  0  0  0  0  0
   -0.1176   -1.1153    0.3172 H   0  0  0  0  0  0  0  0  0  0  0  0
   -0.8886    0.4646   -0.9167 C   0  0  0  0  0  0  0  0  0  0  0  0
   -1.7908    1.0756   -0.9695 H   0  0  0  0  0  0  0  0  0  0  0  0
   -0.0377    1.1431   -0.8382 H   0  0  0  0  0  0  0  0  0  0  0  0
   -0.7805   -0.3266   -2.2063 C   0  0  0  0  0  0  0  0  0  0  0  0
    0.4639   -0.8272   -2.6338 C   0  0  0  0  0  0  0  0  0  0  0  0
    1.3557   -0.6306   -2.0556 H   0  0  0  0  0  0  0  0  0  0  0  0
    0.5495   -1.5954   -3.8096 C   0  0  0  0  0  0  0  0  0  0  0  0
    1.5064   -1.9767   -4.1374 H   0  0  0  0  0  0  0  0  0  0  0  0
   -0.6084   -1.8659   -4.5585 C   0  0  0  0  0  0  0  0  0  0  0  0
   -0.5422   -2.4541   -5.4631 H   0  0  0  0  0  0  0  0  0  0  0  0
   -1.8532   -1.3659   -4.1349 C   0  0  0  0  0  0  0  0  0  0  0  0
   -2.7424   -1.5692   -4.7134 H   0  0  0  0  0  0  0  0  0  0  0  0
   -1.9379   -0.5955   -2.9616 C   0  0  0  0  0  0  0  0  0  0  0  0
   -2.8956   -0.2086   -2.6386 H   0  0  0  0  0  0  0  0  0  0  0  0
   -0.8030    0.4290    1.6313 C   0  0  0  0  0  0  0  0  0  0  0  0
   -1.4597    1.4612    1.7749 O   0  0  0  0  0  0  0  0  0  0  0  0
    0.0579   -0.0082    2.5591 N   0  0  0  0  0  0  0  0  0  0  0  0
    0.5999   -0.8312    2.3442 H   0  0  0  0  0  0  0  0  0  0  0  0
    0.3190    0.6734    3.8247 C   0  0  0  0  0  0  0  0  0  0  0  0
   -0.6234    0.8684    4.3408 H   0  0  0  0  0  0  0  0  0  0  0  0
    0.9561    0.0575    4.4600 H   0  0  0  0  0  0  0  0  0  0  0  0
    0.8149    1.6269    3.6328 H   0  0  0  0  0  0  0  0  0  0  0  0
  5  6  2  0  0  0  0
  5  7  1  0  0  0  0
  2  3  1  0  0  0  0
  2  4  1  0  0  0  0
  2  5  1  0  0  0  0
  1  2  1  0  0  0  0
 25 26  2  0  0  0  0
 25 27  1  0  0  0  0
 23 24  1  0  0  0  0
 21 22  1  0  0  0  0
 21 23  2  0  0  0  0
 19 20  1  0  0  0  0
 19 21  1  0  0  0  0
 17 18  1  0  0  0  0
 17 19  2  0  0  0  0
 15 16  1  0  0  0  0
 15 17  1  0  0  0  0
 14 15  2  0  0  0  0
 14 23  1  0  0  0  0
 11 12  1  0  0  0  0
 11 13  1  0  0  0  0
 11 14  1  0  0  0  0
  9 10  1  0  0  0  0
  9 11  1  0  0  0  0
  9 25  1  0  0  0  0
  7  8  1  0  0  0  0
  7  9  1  0  0  0  0
 29 30  1  0  0  0  0
 29 31  1  0  0  0  0
 29 32  1  0  0  0  0
 27 28  1  0  0  0  0
 27 29  1  0  0  0  0
M  END
$$$$
default_name
  -OEChem-01062215323D

 32 32  0     1  0  0  0  0  0999 V2000
   -3.8405   -3.7518    1.6252 H   0  0  0  0  0  0  0  0  0  0  0  0
   -3.7965   -2.8768    0.9782 C   0  0  0  0  0  0  0  0  0  0  0  0
   -4.5465   -2.1527    1.2902 H   0  0  0  0  0  0  0  0  0  0  0  0
   -3.9745   -3.1748   -0.0538 H   0  0  0  0  0  0  0  0  0  0  0  0
   -2.4245   -2.2537    1.0882 C   0  0  0  0  0  0  0  0  0  0  0  0
   -1.5805   -2.7478    1.8242 O   0  0  0  0  0  0  0  0  0  0  0  0
   -2.2045   -1.1637    0.3562 N   0  0  0  0  0  0  0  0  0  0  0  0
   -2.9595   -0.7907   -0.2008 H   0  0  0  0  0  0  0  0  0  0  0  0
   -0.9485   -0.4087    0.3482 C   0  0  1  0  0  0  0  0  0  0  0  0
   -0.1176   -1.1153    0.3172 H   0  0  0  0  0  0  0  0  0  0  0  0
   -0.8886    0.4646   -0.9167 C   0  0  0  0  0  0  0  0  0  0  0  0
   -1.7908    1.0756   -0.9695 H   0  0  0  0  0  0  0  0  0  0  0  0
   -0.0377    1.1431   -0.8382 H   0  0  0  0  0  0  0  0  0  0  0  0
   -0.7805   -0.3266   -2.2063 C   0  0  0  0  0  0  0  0  0  0  0  0
    0.4639   -0.8272   -2.6338 C   0  0  0  0  0  0  0  0  0  0  0  0
    1.3557   -0.6306   -2.0556 H   0  0  0  0  0  0  0  0  0  0  0  0
    0.5495   -1.5954   -3.8096 C   0  0  0  0  0  0  0  0  0  0  0  0
    1.5064   -1.9767   -4.1374 H   0  0  0  0  0  0  0  0  0  0  0  0
   -0.6084   -1.8659   -4.5585 C   0  0  0  0  0  0  0  0  0  0  0  0
   -0.5422   -2.4541   -5.4631 H   0  0  0  0  0  0  0  0  0  0  0  0
   -1.8532   -1.3659   -4.1349 C   0  0  0  0  0  0  0  0  0  0  0  0
   -2.7424   -1.5692   -4.7134 H   0  0  0  0  0  0  0  0  0  0  0  0
   -1.9379   -0.5955   -2.9616 C   0  0  0  0  0  0  0  0  0  0  0  0
   -2.8956   -0.2086   -2.6386 H   0  0  0  0  0  0  0  0  0  0  0  0
   -0.8030    0.4290    1.6313 C   0  0  0  0  0  0  0  0  0  0  0  0
   -1.6378    1.2924    1.9054 O   0  0  0  0  0  0  0  0  0  0  0  0
    0.2556    0.1812    2.4131 N   0  0  0  0  0  0  0  0  0  0  0  0
    0.9245   -0.5023    2.0926 H   0  0  0  0  0  0  0  0  0  0  0  0
    0.5437    0.8918    3.6566 C   0  0  0  0  0  0  0  0  0  0  0  0
   -0.3345    0.8725    4.3054 H   0  0  0  0  0  0  0  0  0  0  0  0
    1.3822    0.4235    4.1727 H   0  0  0  0  0  0  0  0  0  0  0  0
    0.7913    1.9320    3.4363 H   0  0  0  0  0  0  0  0  0  0  0  0
  5  6  2  0  0  0  0
  5  7  1  0  0  0  0
  2  3  1  0  0  0  0
  2  4  1  0  0  0  0
  2  5  1  0  0  0  0
  1  2  1  0  0  0  0
 25 26  2  0  0  0  0
 25 27  1  0  0  0  0
 23 24  1  0  0  0  0
 21 22  1  0  0  0  0
 21 23  2  0  0  0  0
 19 20  1  0  0  0  0
 19 21  1  0  0  0  0
 17 18  1  0  0  0  0
 17 19  2  0  0  0  0
 15 16  1  0  0  0  0
 15 17  1  0  0  0  0
 14 15  2  0  0  0  0
 14 23  1  0  0  0  0
 11 12  1  0  0  0  0
 11 13  1  0  0  0  0
 11 14  1  0  0  0  0
  9 10  1  0  0  0  0
  9 11  1  0  0  0  0
  9 25  1  0  0  0  0
  7  8  1  0  0  0  0
  7  9  1  0  0  0  0
 29 30  1  0  0  0  0
 29 31  1  0  0  0  0
 29 32  1  0  0  0  0
 27 28  1  0  0  0  0
 27 29  1  0  0  0  0
M  END
$$$$
default_name
  -OEChem-01062215323D

 32 32  0     1  0  0  0  0  0999 V2000
   -3.8405   -3.7518    1.6252 H   0  0  0  0  0  0  0  0  0  0  0  0
   -3.7965   -2.8768    0.9782 C   0  0  0  0  0  0  0  0  0  0  0  0
   -4.5465   -2.1527    1.2902 H   0  0  0  0  0  0  0  0  0  0  0  0
   -3.9745   -3.1748   -0.0538 H   0  0  0  0  0  0  0  0  0  0  0  0
   -2.4245   -2.2537    1.0882 C   0  0  0  0  0  0  0  0  0  0  0  0
   -1.5805   -2.7478    1.8242 O   0  0  0  0  0  0  0  0  0  0  0  0
   -2.2045   -1.1637    0.3562 N   0  0  0  0  0  0  0  0  0  0  0  0
   -2.9595   -0.7907   -0.2008 H   0  0  0  0  0  0  0  0  0  0  0  0
   -0.9485   -0.4087    0.3482 C   0  0  1  0  0  0  0  0  0  0  0  0
   -0.1176   -1.1153    0.3172 H   0  0  0  0  0  0  0  0  0  0  0  0
   -0.8886    0.4646   -0.9167 C   0  0  0  0  0  0  0  0  0  0  0  0
   -1.7908    1.0756   -0.9695 H   0  0  0  0  0  0  0  0  0  0  0  0
   -0.0377    1.1431   -0.8382 H   0  0  0  0  0  0  0  0  0  0  0  0
   -0.7805   -0.3266   -2.2063 C   0  0  0  0  0  0  0  0  0  0  0  0
    0.4639   -0.8272   -2.6338 C   0  0  0  0  0  0  0  0  0  0  0  0
    1.3557   -0.6306   -2.0556 H   0  0  0  0  0  0  0  0  0  0  0  0
    0.5495   -1.5954   -3.8096 C   0  0  0  0  0  0  0  0  0  0  0  0
    1.5064   -1.9767   -4.1374 H   0  0  0  0  0  0  0  0  0  0  0  0
   -0.6084   -1.8659   -4.5585 C   0  0  0  0  0  0  0  0  0  0  0  0
   -0.5422   -2.4541   -5.4631 H   0  0  0  0  0  0  0  0  0  0  0  0
   -1.8532   -1.3659   -4.1349 C   0  0  0  0  0  0  0  0  0  0  0  0
   -2.7424   -1.5692   -4.7134 H   0  0  0  0  0  0  0  0  0  0  0  0
   -1.9379   -0.5955   -2.9616 C   0  0  0  0  0  0  0  0  0  0  0  0
   -2.8956   -0.2086   -2.6386 H   0  0  0  0  0  0  0  0  0  0  0  0
   -0.8030    0.4290    1.6313 C   0  0  0  0  0  0  0  0  0  0  0  0
   -1.7550    1.0876    2.0523 O   0  0  0  0  0  0  0  0  0  0  0  0
    0.3851    0.4103    2.2488 N   0  0  0  0  0  0  0  0  0  0  0  0
    1.1317   -0.1084    1.8120 H   0  0  0  0  0  0  0  0  0  0  0  0
    0.6899    1.1553    3.4679 C   0  0  0  0  0  0  0  0  0  0  0  0
   -0.0614    0.9396    4.2306 H   0  0  0  0  0  0  0  0  0  0  0  0
    1.6744    0.8760    3.8441 H   0  0  0  0  0  0  0  0  0  0  0  0
    0.6749    2.2264    3.2572 H   0  0  0  0  0  0  0  0  0  0  0  0
  5  6  2  0  0  0  0
  5  7  1  0  0  0  0
  2  3  1  0  0  0  0
  2  4  1  0  0  0  0
  2  5  1  0  0  0  0
  1  2  1  0  0  0  0
 25 26  2  0  0  0  0
 25 27  1  0  0  0  0
 23 24  1  0  0  0  0
 21 22  1  0  0  0  0
 21 23  2  0  0  0  0
 19 20  1  0  0  0  0
 19 21  1  0  0  0  0
 17 18  1  0  0  0  0
 17 19  2  0  0  0  0
 15 16  1  0  0  0  0
 15 17  1  0  0  0  0
 14 15  2  0  0  0  0
 14 23  1  0  0  0  0
 11 12  1  0  0  0  0
 11 13  1  0  0  0  0
 11 14  1  0  0  0  0
  9 10  1  0  0  0  0
  9 11  1  0  0  0  0
  9 25  1  0  0  0  0
  7  8  1  0  0  0  0
  7  9  1  0  0  0  0
 29 30  1  0  0  0  0
 29 31  1  0  0  0  0
 29 32  1  0  0  0  0
 27 28  1  0  0  0  0
 27 29  1  0  0  0  0
M  END
$$$$
default_name
  -OEChem-01062215323D

 32 32  0     1  0  0  0  0  0999 V2000
   -3.8405   -3.7518    1.6252 H   0  0  0  0  0  0  0  0  0  0  0  0
   -3.7965   -2.8768    0.9782 C   0  0  0  0  0  0  0  0  0  0  0  0
   -4.5465   -2.1527    1.2902 H   0  0  0  0  0  0  0  0  0  0  0  0
   -3.9745   -3.1748   -0.0538 H   0  0  0  0  0  0  0  0  0  0  0  0
   -2.4245   -2.2537    1.0882 C   0  0  0  0  0  0  0  0  0  0  0  0
   -1.5805   -2.7478    1.8242 O   0  0  0  0  0  0  0  0  0  0  0  0
   -2.2045   -1.1637    0.3562 N   0  0  0  0  0  0  0  0  0  0  0  0
   -2.9595   -0.7907   -0.2008 H   0  0  0  0  0  0  0  0  0  0  0  0
   -0.9485   -0.4087    0.3482 C   0  0  1  0  0  0  0  0  0  0  0  0
   -0.1176   -1.1153    0.3172 H   0  0  0  0  0  0  0  0  0  0  0  0
   -0.8886    0.4646   -0.9167 C   0  0  0  0  0  0  0  0  0  0  0  0
   -1.7908    1.0756   -0.9695 H   0  0  0  0  0  0  0  0  0  0  0  0
   -0.0377    1.1431   -0.8382 H   0  0  0  0  0  0  0  0  0  0  0  0
   -0.7805   -0.3266   -2.2063 C   0  0  0  0  0  0  0  0  0  0  0  0
    0.4639   -0.8272   -2.6338 C   0  0  0  0  0  0  0  0  0  0  0  0
    1.3557   -0.6306   -2.0556 H   0  0  0  0  0  0  0  0  0  0  0  0
    0.5495   -1.5954   -3.8096 C   0  0  0  0  0  0  0  0  0  0  0  0
    1.5064   -1.9767   -4.1374 H   0  0  0  0  0  0  0  0  0  0  0  0
   -0.6084   -1.8659   -4.5585 C   0  0  0  0  0  0  0  0  0  0  0  0
   -0.5422   -2.4541   -5.4631 H   0  0  0  0  0  0  0  0  0  0  0  0
   -1.8532   -1.3659   -4.1349 C   0  0  0  0  0  0  0  0  0  0  0  0
   -2.7424   -1.5692   -4.7134 H   0  0  0  0  0  0  0  0  0  0  0  0
   -1.9379   -0.5955   -2.9616 C   0  0  0  0  0  0  0  0  0  0  0  0
   -2.8956   -0.2086   -2.6386 H   0  0  0  0  0  0  0  0  0  0  0  0
   -0.8030    0.4290    1.6313 C   0  0  0  0  0  0  0  0  0  0  0  0
   -1.8034    0.8609    2.2058 O   0  0  0  0  0  0  0  0  0  0  0  0
    0.4376    0.6636    2.0775 N   0  0  0  0  0  0  0  0  0  0  0  0
    1.2073    0.3237    1.5213 H   0  0  0  0  0  0  0  0  0  0  0  0
    0.7477    1.4460    3.2716 C   0  0  0  0  0  0  0  0  0  0  0  0
    0.1774    1.0652    4.1215 H   0  0  0  0  0  0  0  0  0  0  0  0
    1.8128    1.3842    3.4967 H   0  0  0  0  0  0  0  0  0  0  0  0
    0.4738    2.4901    3.1079 H   0  0  0  0  0  0  0  0  0  0  0  0
  5  6  2  0  0  0  0
  5  7  1  0  0  0  0
  2  3  1  0  0  0  0
  2  4  1  0  0  0  0
  2  5  1  0  0  0  0
  1  2  1  0  0  0  0
 25 26  2  0  0  0  0
 25 27  1  0  0  0  0
 23 24  1  0  0  0  0
 21 22  1  0  0  0  0
 21 23  2  0  0  0  0
 19 20  1  0  0  0  0
 19 21  1  0  0  0  0
 17 18  1  0  0  0  0
 17 19  2  0  0  0  0
 15 16  1  0  0  0  0
 15 17  1  0  0  0  0
 14 15  2  0  0  0  0
 14 23  1  0  0  0  0
 11 12  1  0  0  0  0
 11 13  1  0  0  0  0
 11 14  1  0  0  0  0
  9 10  1  0  0  0  0
  9 11  1  0  0  0  0
  9 25  1  0  0  0  0
  7  8  1  0  0  0  0
  7  9  1  0  0  0  0
 29 30  1  0  0  0  0
 29 31  1  0  0  0  0
 29 32  1  0  0  0  0
 27 28  1  0  0  0  0
 27 29  1  0  0  0  0
M  END
$$$$
default_name
  -OEChem-01062215323D

 32 32  0     1  0  0  0  0  0999 V2000
   -3.8405   -3.7518    1.6252 H   0  0  0  0  0  0  0  0  0  0  0  0
   -3.7965   -2.8768    0.9782 C   0  0  0  0  0  0  0  0  0  0  0  0
   -4.5465   -2.1527    1.2902 H   0  0  0  0  0  0  0  0  0  0  0  0
   -3.9745   -3.1748   -0.0538 H   0  0  0  0  0  0  0  0  0  0  0  0
   -2.4245   -2.2537    1.0882 C   0  0  0  0  0  0  0  0  0  0  0  0
   -1.5805   -2.7478    1.8242 O   0  0  0  0  0  0  0  0  0  0  0  0
   -2.2045   -1.1637    0.3562 N   0  0  0  0  0  0  0  0  0  0  0  0
   -2.9595   -0.7907   -0.2008 H   0  0  0  0  0  0  0  0  0  0  0  0
   -0.9485   -0.4087    0.3482 C   0  0  1  0  0  0  0  0  0  0  0  0
   -0.1176   -1.1153    0.3172 H   0  0  0  0  0  0  0  0  0  0  0  0
   -0.8886    0.4646   -0.9167 C   0  0  0  0  0  0  0  0  0  0  0  0
   -1.7908    1.0756   -0.9695 H   0  0  0  0  0  0  0  0  0  0  0  0
   -0.0377    1.1431   -0.8382 H   0  0  0  0  0  0  0  0  0  0  0  0
   -0.7805   -0.3266   -2.2063 C   0  0  0  0  0  0  0  0  0  0  0  0
    0.4639   -0.8272   -2.6338 C   0  0  0  0  0  0  0  0  0  0  0  0
    1.3557   -0.6306   -2.0556 H   0  0  0  0  0  0  0  0  0  0  0  0
    0.5495   -1.5954   -3.8096 C   0  0  0  0  0  0  0  0  0  0  0  0
    1.5064   -1.9767   -4.1374 H   0  0  0  0  0  0  0  0  0  0  0  0
   -0.6084   -1.8659   -4.5585 C   0  0  0  0  0  0  0  0  0  0  0  0
   -0.5422   -2.4541   -5.4631 H   0  0  0  0  0  0  0  0  0  0  0  0
   -1.8532   -1.3659   -4.1349 C   0  0  0  0  0  0  0  0  0  0  0  0
   -2.7424   -1.5692   -4.7134 H   0  0  0  0  0  0  0  0  0  0  0  0
   -1.9379   -0.5955   -2.9616 C   0  0  0  0  0  0  0  0  0  0  0  0
   -2.8956   -0.2086   -2.6386 H   0  0  0  0  0  0  0  0  0  0  0  0
   -0.8030    0.4290    1.6313 C   0  0  0  0  0  0  0  0  0  0  0  0
   -1.7795    0.6278    2.3553 O   0  0  0  0  0  0  0  0  0  0  0  0
    0.4096    0.9238    1.9108 N   0  0  0  0  0  0  0  0  0  0  0  0
    1.1462    0.7644    1.2404 H   0  0  0  0  0  0  0  0  0  0  0  0
    0.7132    1.7441    3.0808 C   0  0  0  0  0  0  0  0  0  0  0  0
    0.3657    1.2408    3.9855 H   0  0  0  0  0  0  0  0  0  0  0  0
    1.7878    1.9134    3.1540 H   0  0  0  0  0  0  0  0  0  0  0  0
    0.2016    2.7050    2.9984 H   0  0  0  0  0  0  0  0  0  0  0  0
  5  6  2  0  0  0  0
  5  7  1  0  0  0  0
  2  3  1  0  0  0  0
  2  4  1  0  0  0  0
  2  5  1  0  0  0  0
  1  2  1  0  0  0  0
 25 26  2  0  0  0  0
 25 27  1  0  0  0  0
 23 24  1  0  0  0  0
 21 22  1  0  0  0  0
 21 23  2  0  0  0  0
 19 20  1  0  0  0  0
 19 21  1  0  0  0  0
 17 18  1  0  0  0  0
 17 19  2  0  0  0  0
 15 16  1  0  0  0  0
 15 17  1  0  0  0  0
 14 15  2  0  0  0  0
 14 23  1  0  0  0  0
 11 12  1  0  0  0  0
 11 13  1  0  0  0  0
 11 14  1  0  0  0  0
  9 10  1  0  0  0  0
  9 11  1  0  0  0  0
  9 25  1  0  0  0  0
  7  8  1  0  0  0  0
  7  9  1  0  0  0  0
 29 30  1  0  0  0  0
 29 31  1  0  0  0  0
 29 32  1  0  0  0  0
 27 28  1  0  0  0  0
 27 29  1  0  0  0  0
M  END
$$$$
default_name
  -OEChem-01062215323D

 32 32  0     1  0  0  0  0  0999 V2000
   -3.8405   -3.7518    1.6252 H   0  0  0  0  0  0  0  0  0  0  0  0
   -3.7965   -2.8768    0.9782 C   0  0  0  0  0  0  0  0  0  0  0  0
   -4.5465   -2.1527    1.2902 H   0  0  0  0  0  0  0  0  0  0  0  0
   -3.9745   -3.1748   -0.0538 H   0  0  0  0  0  0  0  0  0  0  0  0
   -2.4245   -2.2537    1.0882 C   0  0  0  0  0  0  0  0  0  0  0  0
   -1.5805   -2.7478    1.8242 O   0  0  0  0  0  0  0  0  0  0  0  0
   -2.2045   -1.1637    0.3562 N   0  0  0  0  0  0  0  0  0  0  0  0
   -2.9595   -0.7907   -0.2008 H   0  0  0  0  0  0  0  0  0  0  0  0
   -0.9485   -0.4087    0.3482 C   0  0  1  0  0  0  0  0  0  0  0  0
   -0.1408   -1.0795    0.0507 H   0  0  0  0  0  0  0  0  0  0  0  0
   -1.0432    0.7243   -0.6879 C   0  0  0  0  0  0  0  0  0  0  0  0
   -1.9343    1.3194   -0.4831 H   0  0  0  0  0  0  0  0  0  0  0  0
   -0.1784    1.3799   -0.5752 H   0  0  0  0  0  0  0  0  0  0  0  0
   -1.1209    0.2405   -2.1235 C   0  0  0  0  0  0  0  0  0  0  0  0
    0.0471   -0.1357   -2.8135 C   0  0  0  0  0  0  0  0  0  0  0  0
    1.0111   -0.0602   -2.3305 H   0  0  0  0  0  0  0  0  0  0  0  0
   -0.0374   -0.6226   -4.1310 C   0  0  0  0  0  0  0  0  0  0  0  0
    0.8609   -0.9085   -4.6600 H   0  0  0  0  0  0  0  0  0  0  0  0
   -1.2889   -0.7359   -4.7598 C   0  0  0  0  0  0  0  0  0  0  0  0
   -1.3535   -1.1078   -5.7728 H   0  0  0  0  0  0  0  0  0  0  0  0
   -2.4578   -0.3594   -4.0736 C   0  0  0  0  0  0  0  0  0  0  0  0
   -3.4194   -0.4414   -4.5587 H   0  0  0  0  0  0  0  0  0  0  0  0
   -2.3728    0.1302   -2.7582 C   0  0  0  0  0  0  0  0  0  0  0  0
   -3.2725    0.4227   -2.2325 H   0  0  0  0  0  0  0  0  0  0  0  0
   -0.6196    0.1253    1.7539 C   0  0  0  0  0  0  0  0  0  0  0  0
   -1.3798   -0.1017    2.6963 O   0  0  0  0  0  0  0  0  0  0  0  0
    0.5056    0.8373    1.8956 N   0  0  0  0  0  0  0  0  0  0  0  0
    1.0468    1.0278    1.0661 H   0  0  0  0  0  0  0  0  0  0  0  0
    0.9559    1.4210    3.1569 C   0  0  0  0  0  0  0  0  0  0  0  0
    0.9721    0.6541    3.9342 H   0  0  0  0  0  0  0  0  0  0  0  0
    1.9567    1.8385    3.0430 H   0  0  0  0  0  0  0  0  0  0  0  0
    0.2678    2.2118    3.4619 H   0  0  0  0  0  0  0  0  0  0  0  0
  5  6  2  0  0  0  0
  5  7  1  0  0  0  0
  2  3  1  0  0  0  0
  2  4  1  0  0  0  0
  2  5  1  0  0  0  0
  1  2  1  0  0  0  0
 25 26  2  0  0  0  0
 25 27  1  0  0  0  0
 23 24  1  0  0  0  0
 21 22  1  0  0  0  0
 21 23  2  0  0  0  0
 19 20  1  0  0  0  0
 19 21  1  0  0  0  0
 17 18  1  0  0  0  0
 17 19  2  0  0  0  0
 15 16  1  0  0  0  0
 15 17  1  0  0  0  0
 14 15  2  0  0  0  0
 14 23  1  0  0  0  0
 11 12  1  0  0  0  0
 11 13  1  0  0  0  0
 11 14  1  0  0  0  0
  9 10  1  0  0  0  0
  9 11  1  0  0  0  0
  9 25  1  0  0  0  0
  7  8  1  0  0  0  0
  7  9  1  0  0  0  0
 29 30  1  0  0  0  0
 29 31  1  0  0  0  0
 29 32  1  0  0  0  0
 27 28  1  0  0  0  0
 27 29  1  0  0  0  0
M  END
$$$$
default_name
  -OEChem-01062215323D

 32 32  0     1  0  0  0  0  0999 V2000
   -3.8405   -3.7518    1.6252 H   0  0  0  0  0  0  0  0  0  0  0  0
   -3.7965   -2.8768    0.9782 C   0  0  0  0  0  0  0  0  0  0  0  0
   -4.5465   -2.1527    1.2902 H   0  0  0  0  0  0  0  0  0  0  0  0
   -3.9745   -3.1748   -0.0538 H   0  0  0  0  0  0  0  0  0  0  0  0
   -2.4245   -2.2537    1.0882 C   0  0  0  0  0  0  0  0  0  0  0  0
   -1.5805   -2.7478    1.8242 O   0  0  0  0  0  0  0  0  0  0  0  0
   -2.2045   -1.1637    0.3562 N   0  0  0  0  0  0  0  0  0  0  0  0
   -2.9595   -0.7907   -0.2008 H   0  0  0  0  0  0  0  0  0  0  0  0
   -0.9485   -0.4087    0.3482 C   0  0  1  0  0  0  0  0  0  0  0  0
   -0.1408   -1.0795    0.0507 H   0  0  0  0  0  0  0  0  0  0  0  0
   -1.0432    0.7243   -0.6879 C   0  0  0  0  0  0  0  0  0  0  0  0
   -1.9343    1.3194   -0.4831 H   0  0  0  0  0  0  0  0  0  0  0  0
   -0.1784    1.3799   -0.5752 H   0  0  0  0  0  0  0  0  0  0  0  0
   -1.1209    0.2405   -2.1235 C   0  0  0  0  0  0  0  0  0  0  0  0
    0.0471   -0.1357   -2.8135 C   0  0  0  0  0  0  0  0  0  0  0  0
    1.0111   -0.0602   -2.3305 H   0  0  0  0  0  0  0  0  0  0  0  0
   -0.0374   -0.6226   -4.1310 C   0  0  0  0  0  0  0  0  0  0  0  0
    0.8609   -0.9085   -4.6600 H   0  0  0  0  0  0  0  0  0  0  0  0
   -1.2889   -0.7359   -4.7598 C   0  0  0  0  0  0  0  0  0  0  0  0
   -1.3535   -1.1078   -5.7728 H   0  0  0  0  0  0  0  0  0  0  0  0
   -2.4578   -0.3594   -4.0736 C   0  0  0  0  0  0  0  0  0  0  0  0
   -3.4194   -0.4414   -4.5587 H   0  0  0  0  0  0  0  0  0  0  0  0
   -2.3728    0.1302   -2.7582 C   0  0  0  0  0  0  0  0  0  0  0  0
   -3.2725    0.4227   -2.2325 H   0  0  0  0  0  0  0  0  0  0  0  0
   -0.6196    0.1253    1.7539 C   0  0  0  0  0  0  0  0  0  0  0  0
   -1.2111   -0.3184    2.7391 O   0  0  0  0  0  0  0  0  0  0  0  0
    0.3162    1.0784    1.8483 N   0  0  0  0  0  0  0  0  0  0  0  0
    0.7152    1.4294    0.9911 H   0  0  0  0  0  0  0  0  0  0  0  0
    0.7370    1.6961    3.1036 C   0  0  0  0  0  0  0  0  0  0  0  0
    1.0069    0.9215    3.8245 H   0  0  0  0  0  0  0  0  0  0  0  0
    1.5966    2.3452    2.9348 H   0  0  0  0  0  0  0  0  0  0  0  0
   -0.0842    2.2853    3.5164 H   0  0  0  0  0  0  0  0  0  0  0  0
  5  6  2  0  0  0  0
  5  7  1  0  0  0  0
  2  3  1  0  0  0  0
  2  4  1  0  0  0  0
  2  5  1  0  0  0  0
  1  2  1  0  0  0  0
 25 26  2  0  0  0  0
 25 27  1  0  0  0  0
 23 24  1  0  0  0  0
 21 22  1  0  0  0  0
 21 23  2  0  0  0  0
 19 20  1  0  0  0  0
 19 21  1  0  0  0  0
 17 18  1  0  0  0  0
 17 19  2  0  0  0  0
 15 16  1  0  0  0  0
 15 17  1  0  0  0  0
 14 15  2  0  0  0  0
 14 23  1  0  0  0  0
 11 12  1  0  0  0  0
 11 13  1  0  0  0  0
 11 14  1  0  0  0  0
  9 10  1  0  0  0  0
  9 11  1  0  0  0  0
  9 25  1  0  0  0  0
  7  8  1  0  0  0  0
  7  9  1  0  0  0  0
 29 30  1  0  0  0  0
 29 31  1  0  0  0  0
 29 32  1  0  0  0  0
 27 28  1  0  0  0  0
 27 29  1  0  0  0  0
M  END
$$$$
default_name
  -OEChem-01062215323D

 32 32  0     1  0  0  0  0  0999 V2000
   -3.8405   -3.7518    1.6252 H   0  0  0  0  0  0  0  0  0  0  0  0
   -3.7965   -2.8768    0.9782 C   0  0  0  0  0  0  0  0  0  0  0  0
   -4.5465   -2.1527    1.2902 H   0  0  0  0  0  0  0  0  0  0  0  0
   -3.9745   -3.1748   -0.0538 H   0  0  0  0  0  0  0  0  0  0  0  0
   -2.4245   -2.2537    1.0882 C   0  0  0  0  0  0  0  0  0  0  0  0
   -1.5805   -2.7478    1.8242 O   0  0  0  0  0  0  0  0  0  0  0  0
   -2.2045   -1.1637    0.3562 N   0  0  0  0  0  0  0  0  0  0  0  0
   -2.9595   -0.7907   -0.2008 H   0  0  0  0  0  0  0  0  0  0  0  0
   -0.9485   -0.4087    0.3482 C   0  0  1  0  0  0  0  0  0  0  0  0
   -0.1408   -1.0795    0.0507 H   0  0  0  0  0  0  0  0  0  0  0  0
   -1.0432    0.7243   -0.6879 C   0  0  0  0  0  0  0  0  0  0  0  0
   -1.9343    1.3194   -0.4831 H   0  0  0  0  0  0  0  0  0  0  0  0
   -0.1784    1.3799   -0.5752 H   0  0  0  0  0  0  0  0  0  0  0  0
   -1.1209    0.2405   -2.1235 C   0  0  0  0  0  0  0  0  0  0  0  0
    0.0471   -0.1357   -2.8135 C   0  0  0  0  0  0  0  0  0  0  0  0
    1.0111   -0.0602   -2.3305 H   0  0  0  0  0  0  0  0  0  0  0  0
   -0.0374   -0.6226   -4.1310 C   0  0  0  0  0  0  0  0  0  0  0  0
    0.8609   -0.9085   -4.6600 H   0  0  0  0  0  0  0  0  0  0  0  0
   -1.2889   -0.7359   -4.7598 C   0  0  0  0  0  0  0  0  0  0  0  0
   -1.3535   -1.1078   -5.7728 H   0  0  0  0  0  0  0  0  0  0  0  0
   -2.4578   -0.3594   -4.0736 C   0  0  0  0  0  0  0  0  0  0  0  0
   -3.4194   -0.4414   -4.5587 H   0  0  0  0  0  0  0  0  0  0  0  0
   -2.3728    0.1302   -2.7582 C   0  0  0  0  0  0  0  0  0  0  0  0
   -3.2725    0.4227   -2.2325 H   0  0  0  0  0  0  0  0  0  0  0  0
   -0.6196    0.1253    1.7539 C   0  0  0  0  0  0  0  0  0  0  0  0
   -0.9931   -0.4903    2.7534 O   0  0  0  0  0  0  0  0  0  0  0  0
    0.0720    1.2692    1.8330 N   0  0  0  0  0  0  0  0  0  0  0  0
    0.2933    1.7432    0.9706 H   0  0  0  0  0  0  0  0  0  0  0  0
    0.4557    1.9130    3.0870 C   0  0  0  0  0  0  0  0  0  0  0  0
    0.9675    1.1940    3.7302 H   0  0  0  0  0  0  0  0  0  0  0  0
    1.1193    2.7555    2.8905 H   0  0  0  0  0  0  0  0  0  0  0  0
   -0.4367    2.2700    3.6047 H   0  0  0  0  0  0  0  0  0  0  0  0
  5  6  2  0  0  0  0
  5  7  1  0  0  0  0
  2  3  1  0  0  0  0
  2  4  1  0  0  0  0
  2  5  1  0  0  0  0
  1  2  1  0  0  0  0
 25 26  2  0  0  0  0
 25 27  1  0  0  0  0
 23 24  1  0  0  0  0
 21 22  1  0  0  0  0
 21 23  2  0  0  0  0
 19 20  1  0  0  0  0
 19 21  1  0  0  0  0
 17 18  1  0  0  0  0
 17 19  2  0  0  0  0
 15 16  1  0  0  0  0
 15 17  1  0  0  0  0
 14 15  2  0  0  0  0
 14 23  1  0  0  0  0
 11 12  1  0  0  0  0
 11 13  1  0  0  0  0
 11 14  1  0  0  0  0
  9 10  1  0  0  0  0
  9 11  1  0  0  0  0
  9 25  1  0  0  0  0
  7  8  1  0  0  0  0
  7  9  1  0  0  0  0
 29 30  1  0  0  0  0
 29 31  1  0  0  0  0
 29 32  1  0  0  0  0
 27 28  1  0  0  0  0
 27 29  1  0  0  0  0
M  END
$$$$
default_name
  -OEChem-01062215323D

 32 32  0     1  0  0  0  0  0999 V2000
   -3.8405   -3.7518    1.6252 H   0  0  0  0  0  0  0  0  0  0  0  0
   -3.7965   -2.8768    0.9782 C   0  0  0  0  0  0  0  0  0  0  0  0
   -4.5465   -2.1527    1.2902 H   0  0  0  0  0  0  0  0  0  0  0  0
   -3.9745   -3.1748   -0.0538 H   0  0  0  0  0  0  0  0  0  0  0  0
   -2.4245   -2.2537    1.0882 C   0  0  0  0  0  0  0  0  0  0  0  0
   -1.5805   -2.7478    1.8242 O   0  0  0  0  0  0  0  0  0  0  0  0
   -2.2045   -1.1637    0.3562 N   0  0  0  0  0  0  0  0  0  0  0  0
   -2.9595   -0.7907   -0.2008 H   0  0  0  0  0  0  0  0  0  0  0  0
   -0.9485   -0.4087    0.3482 C   0  0  1  0  0  0  0  0  0  0  0  0
   -0.1408   -1.0795    0.0507 H   0  0  0  0  0  0  0  0  0  0  0  0
   -1.0432    0.7243   -0.6879 C   0  0  0  0  0  0  0  0  0  0  0  0
   -1.9343    1.3194   -0.4831 H   0  0  0  0  0  0  0  0  0  0  0  0
   -0.1784    1.3799   -0.5752 H   0  0  0  0  0  0  0  0  0  0  0  0
   -1.1209    0.2405   -2.1235 C   0  0  0  0  0  0  0  0  0  0  0  0
    0.0471   -0.1357   -2.8135 C   0  0  0  0  0  0  0  0  0  0  0  0
    1.0111   -0.0602   -2.3305 H   0  0  0  0  0  0  0  0  0  0  0  0
   -0.0374   -0.6226   -4.1310 C   0  0  0  0  0  0  0  0  0  0  0  0
    0.8609   -0.9085   -4.6600 H   0  0  0  0  0  0  0  0  0  0  0  0
   -1.2889   -0.7359   -4.7598 C   0  0  0  0  0  0  0  0  0  0  0  0
   -1.3535   -1.1078   -5.7728 H   0  0  0  0  0  0  0  0  0  0  0  0
   -2.4578   -0.3594   -4.0736 C   0  0  0  0  0  0  0  0  0  0  0  0
   -3.4194   -0.4414   -4.5587 H   0  0  0  0  0  0  0  0  0  0  0  0
   -2.3728    0.1302   -2.7582 C   0  0  0  0  0  0  0  0  0  0  0  0
   -3.2725    0.4227   -2.2325 H   0  0  0  0  0  0  0  0  0  0  0  0
   -0.6196    0.1253    1.7539 C   0  0  0  0  0  0  0  0  0  0  0  0
   -0.7406   -0.6055    2.7381 O   0  0  0  0  0  0  0  0  0  0  0  0
   -0.2103    1.3966    1.8506 N   0  0  0  0  0  0  0  0  0  0  0  0
   -0.1903    1.9476    1.0061 H   0  0  0  0  0  0  0  0  0  0  0  0
    0.1313    2.0570    3.1082 C   0  0  0  0  0  0  0  0  0  0  0  0
    0.8566    1.4532    3.6577 H   0  0  0  0  0  0  0  0  0  0  0  0
    0.5574    3.0415    2.9134 H   0  0  0  0  0  0  0  0  0  0  0  0
   -0.7656    2.1670    3.7207 H   0  0  0  0  0  0  0  0  0  0  0  0
  5  6  2  0  0  0  0
  5  7  1  0  0  0  0
  2  3  1  0  0  0  0
  2  4  1  0  0  0  0
  2  5  1  0  0  0  0
  1  2  1  0  0  0  0
 25 26  2  0  0  0  0
 25 27  1  0  0  0  0
 23 24  1  0  0  0  0
 21 22  1  0  0  0  0
 21 23  2  0  0  0  0
 19 20  1  0  0  0  0
 19 21  1  0  0  0  0
 17 18  1  0  0  0  0
 17 19  2  0  0  0  0
 15 16  1  0  0  0  0
 15 17  1  0  0  0  0
 14 15  2  0  0  0  0
 14 23  1  0  0  0  0
 11 12  1  0  0  0  0
 11 13  1  0  0  0  0
 11 14  1  0  0  0  0
  9 10  1  0  0  0  0
  9 11  1  0  0  0  0
  9 25  1  0  0  0  0
  7  8  1  0  0  0  0
  7  9  1  0  0  0  0
 29 30  1  0  0  0  0
 29 31  1  0  0  0  0
 29 32  1  0  0  0  0
 27 28  1  0  0  0  0
 27 29  1  0  0  0  0
M  END
$$$$
default_name
  -OEChem-01062215323D

 32 32  0     1  0  0  0  0  0999 V2000
   -3.8405   -3.7518    1.6252 H   0  0  0  0  0  0  0  0  0  0  0  0
   -3.7965   -2.8768    0.9782 C   0  0  0  0  0  0  0  0  0  0  0  0
   -4.5465   -2.1527    1.2902 H   0  0  0  0  0  0  0  0  0  0  0  0
   -3.9745   -3.1748   -0.0538 H   0  0  0  0  0  0  0  0  0  0  0  0
   -2.4245   -2.2537    1.0882 C   0  0  0  0  0  0  0  0  0  0  0  0
   -1.5805   -2.7478    1.8242 O   0  0  0  0  0  0  0  0  0  0  0  0
   -2.2045   -1.1637    0.3562 N   0  0  0  0  0  0  0  0  0  0  0  0
   -2.9595   -0.7907   -0.2008 H   0  0  0  0  0  0  0  0  0  0  0  0
   -0.9485   -0.4087    0.3482 C   0  0  1  0  0  0  0  0  0  0  0  0
   -0.1408   -1.0795    0.0507 H   0  0  0  0  0  0  0  0  0  0  0  0
   -1.0432    0.7243   -0.6879 C   0  0  0  0  0  0  0  0  0  0  0  0
   -1.9343    1.3194   -0.4831 H   0  0  0  0  0  0  0  0  0  0  0  0
   -0.1784    1.3799   -0.5752 H   0  0  0  0  0  0  0  0  0  0  0  0
   -1.1209    0.2405   -2.1235 C   0  0  0  0  0  0  0  0  0  0  0  0
    0.0471   -0.1357   -2.8135 C   0  0  0  0  0  0  0  0  0  0  0  0
    1.0111   -0.0602   -2.3305 H   0  0  0  0  0  0  0  0  0  0  0  0
   -0.0374   -0.6226   -4.1310 C   0  0  0  0  0  0  0  0  0  0  0  0
    0.8609   -0.9085   -4.6600 H   0  0  0  0  0  0  0  0  0  0  0  0
   -1.2889   -0.7359   -4.7598 C   0  0  0  0  0  0  0  0  0  0  0  0
   -1.3535   -1.1078   -5.7728 H   0  0  0  0  0  0  0  0  0  0  0  0
   -2.4578   -0.3594   -4.0736 C   0  0  0  0  0  0  0  0  0  0  0  0
   -3.4194   -0.4414   -4.5587 H   0  0  0  0  0  0  0  0  0  0  0  0
   -2.3728    0.1302   -2.7582 C   0  0  0  0  0  0  0  0  0  0  0  0
   -3.2725    0.4227   -2.2325 H   0  0  0  0  0  0  0  0  0  0  0  0
   -0.6196    0.1253    1.7539 C   0  0  0  0  0  0  0  0  0  0  0  0
   -0.4708   -0.6563    2.6943 O   0  0  0  0  0  0  0  0  0  0  0  0
   -0.5116    1.4520    1.9001 N   0  0  0  0  0  0  0  0  0  0  0  0
   -0.7025    2.0288    1.0950 H   0  0  0  0  0  0  0  0  0  0  0  0
   -0.2142    2.1182    3.1658 C   0  0  0  0  0  0  0  0  0  0  0  0
    0.6817    1.6813    3.6119 H   0  0  0  0  0  0  0  0  0  0  0  0
   -0.0510    3.1837    3.0017 H   0  0  0  0  0  0  0  0  0  0  0  0
   -1.0486    1.9834    3.8567 H   0  0  0  0  0  0  0  0  0  0  0  0
  5  6  2  0  0  0  0
  5  7  1  0  0  0  0
  2  3  1  0  0  0  0
  2  4  1  0  0  0  0
  2  5  1  0  0  0  0
  1  2  1  0  0  0  0
 25 26  2  0  0  0  0
 25 27  1  0  0  0  0
 23 24  1  0  0  0  0
 21 22  1  0  0  0  0
 21 23  2  0  0  0  0
 19 20  1  0  0  0  0
 19 21  1  0  0  0  0
 17 18  1  0  0  0  0
 17 19  2  0  0  0  0
 15 16  1  0  0  0  0
 15 17  1  0  0  0  0
 14 15  2  0  0  0  0
 14 23  1  0  0  0  0
 11 12  1  0  0  0  0
 11 13  1  0  0  0  0
 11 14  1  0  0  0  0
  9 10  1  0  0  0  0
  9 11  1  0  0  0  0
  9 25  1  0  0  0  0
  7  8  1  0  0  0  0
  7  9  1  0  0  0  0
 29 30  1  0  0  0  0
 29 31  1  0  0  0  0
 29 32  1  0  0  0  0
 27 28  1  0  0  0  0
 27 29  1  0  0  0  0
M  END
$$$$
default_name
  -OEChem-01062215323D

 32 32  0     1  0  0  0  0  0999 V2000
   -3.8405   -3.7518    1.6252 H   0  0  0  0  0  0  0  0  0  0  0  0
   -3.7965   -2.8768    0.9782 C   0  0  0  0  0  0  0  0  0  0  0  0
   -4.5465   -2.1527    1.2902 H   0  0  0  0  0  0  0  0  0  0  0  0
   -3.9745   -3.1748   -0.0538 H   0  0  0  0  0  0  0  0  0  0  0  0
   -2.4245   -2.2537    1.0882 C   0  0  0  0  0  0  0  0  0  0  0  0
   -1.5805   -2.7478    1.8242 O   0  0  0  0  0  0  0  0  0  0  0  0
   -2.2045   -1.1637    0.3562 N   0  0  0  0  0  0  0  0  0  0  0  0
   -2.9595   -0.7907   -0.2008 H   0  0  0  0  0  0  0  0  0  0  0  0
   -0.9485   -0.4087    0.3482 C   0  0  1  0  0  0  0  0  0  0  0  0
   -0.1408   -1.0795    0.0507 H   0  0  0  0  0  0  0  0  0  0  0  0
   -1.0432    0.7243   -0.6879 C   0  0  0  0  0  0  0  0  0  0  0  0
   -1.9343    1.3194   -0.4831 H   0  0  0  0  0  0  0  0  0  0  0  0
   -0.1784    1.3799   -0.5752 H   0  0  0  0  0  0  0  0  0  0  0  0
   -1.1209    0.2405   -2.1235 C   0  0  0  0  0  0  0  0  0  0  0  0
    0.0471   -0.1357   -2.8135 C   0  0  0  0  0  0  0  0  0  0  0  0
    1.0111   -0.0602   -2.3305 H   0  0  0  0  0  0  0  0  0  0  0  0
   -0.0374   -0.6226   -4.1310 C   0  0  0  0  0  0  0  0  0  0  0  0
    0.8609   -0.9085   -4.6600 H   0  0  0  0  0  0  0  0  0  0  0  0
   -1.2889   -0.7359   -4.7598 C   0  0  0  0  0  0  0  0  0  0  0  0
   -1.3535   -1.1078   -5.7728 H   0  0  0  0  0  0  0  0  0  0  0  0
   -2.4578   -0.3594   -4.0736 C   0  0  0  0  0  0  0  0  0  0  0  0
   -3.4194   -0.4414   -4.5587 H   0  0  0  0  0  0  0  0  0  0  0  0
   -2.3728    0.1302   -2.7582 C   0  0  0  0  0  0  0  0  0  0  0  0
   -3.2725    0.4227   -2.2325 H   0  0  0  0  0  0  0  0  0  0  0  0
   -0.6196    0.1253    1.7539 C   0  0  0  0  0  0  0  0  0  0  0  0
   -0.2022   -0.6392    2.6249 O   0  0  0  0  0  0  0  0  0  0  0  0
   -0.8112    1.4315    1.9780 N   0  0  0  0  0  0  0  0  0  0  0  0
   -1.2084    1.9813    1.2315 H   0  0  0  0  0  0  0  0  0  0  0  0
   -0.5572    2.0925    3.2558 C   0  0  0  0  0  0  0  0  0  0  0  0
    0.4548    1.8628    3.5961 H   0  0  0  0  0  0  0  0  0  0  0  0
   -0.6643    3.1723    3.1495 H   0  0  0  0  0  0  0  0  0  0  0  0
   -1.2664    1.7316    4.0033 H   0  0  0  0  0  0  0  0  0  0  0  0
  5  6  2  0  0  0  0
  5  7  1  0  0  0  0
  2  3  1  0  0  0  0
  2  4  1  0  0  0  0
  2  5  1  0  0  0  0
  1  2  1  0  0  0  0
 25 26  2  0  0  0  0
 25 27  1  0  0  0  0
 23 24  1  0  0  0  0
 21 22  1  0  0  0  0
 21 23  2  0  0  0  0
 19 20  1  0  0  0  0
 19 21  1  0  0  0  0
 17 18  1  0  0  0  0
 17 19  2  0  0  0  0
 15 16  1  0  0  0  0
 15 17  1  0  0  0  0
 14 15  2  0  0  0  0
 14 23  1  0  0  0  0
 11 12  1  0  0  0  0
 11 13  1  0  0  0  0
 11 14  1  0  0  0  0
  9 10  1  0  0  0  0
  9 11  1  0  0  0  0
  9 25  1  0  0  0  0
  7  8  1  0  0  0  0
  7  9  1  0  0  0  0
 29 30  1  0  0  0  0
 29 31  1  0  0  0  0
 29 32  1  0  0  0  0
 27 28  1  0  0  0  0
 27 29  1  0  0  0  0
M  END
$$$$
default_name
  -OEChem-01062215323D

 32 32  0     1  0  0  0  0  0999 V2000
   -3.8405   -3.7518    1.6252 H   0  0  0  0  0  0  0  0  0  0  0  0
   -3.7965   -2.8768    0.9782 C   0  0  0  0  0  0  0  0  0  0  0  0
   -4.5465   -2.1527    1.2902 H   0  0  0  0  0  0  0  0  0  0  0  0
   -3.9745   -3.1748   -0.0538 H   0  0  0  0  0  0  0  0  0  0  0  0
   -2.4245   -2.2537    1.0882 C   0  0  0  0  0  0  0  0  0  0  0  0
   -1.5805   -2.7478    1.8242 O   0  0  0  0  0  0  0  0  0  0  0  0
   -2.2045   -1.1637    0.3562 N   0  0  0  0  0  0  0  0  0  0  0  0
   -2.9595   -0.7907   -0.2008 H   0  0  0  0  0  0  0  0  0  0  0  0
   -0.9485   -0.4087    0.3482 C   0  0  1  0  0  0  0  0  0  0  0  0
   -0.1408   -1.0795    0.0507 H   0  0  0  0  0  0  0  0  0  0  0  0
   -1.0432    0.7243   -0.6879 C   0  0  0  0  0  0  0  0  0  0  0  0
   -1.9343    1.3194   -0.4831 H   0  0  0  0  0  0  0  0  0  0  0  0
   -0.1784    1.3799   -0.5752 H   0  0  0  0  0  0  0  0  0  0  0  0
   -1.1209    0.2405   -2.1235 C   0  0  0  0  0  0  0  0  0  0  0  0
    0.0471   -0.1357   -2.8135 C   0  0  0  0  0  0  0  0  0  0  0  0
    1.0111   -0.0602   -2.3305 H   0  0  0  0  0  0  0  0  0  0  0  0
   -0.0374   -0.6226   -4.1310 C   0  0  0  0  0  0  0  0  0  0  0  0
    0.8609   -0.9085   -4.6600 H   0  0  0  0  0  0  0  0  0  0  0  0
   -1.2889   -0.7359   -4.7598 C   0  0  0  0  0  0  0  0  0  0  0  0
   -1.3535   -1.1078   -5.7728 H   0  0  0  0  0  0  0  0  0  0  0  0
   -2.4578   -0.3594   -4.0736 C   0  0  0  0  0  0  0  0  0  0  0  0
   -3.4194   -0.4414   -4.5587 H   0  0  0  0  0  0  0  0  0  0  0  0
   -2.3728    0.1302   -2.7582 C   0  0  0  0  0  0  0  0  0  0  0  0
   -3.2725    0.4227   -2.2325 H   0  0  0  0  0  0  0  0  0  0  0  0
   -0.6196    0.1253    1.7539 C   0  0  0  0  0  0  0  0  0  0  0  0
    0.0470   -0.5554    2.5348 O   0  0  0  0  0  0  0  0  0  0  0  0
   -1.0888    1.3366    2.0790 N   0  0  0  0  0  0  0  0  0  0  0  0
   -1.6737    1.8083    1.4061 H   0  0  0  0  0  0  0  0  0  0  0  0
   -0.8744    1.9816    3.3721 C   0  0  0  0  0  0  0  0  0  0  0  0
    0.1912    1.9854    3.6112 H   0  0  0  0  0  0  0  0  0  0  0  0
   -1.2407    3.0082    3.3467 H   0  0  0  0  0  0  0  0  0  0  0  0
   -1.4040    1.4289    4.1505 H   0  0  0  0  0  0  0  0  0  0  0  0
  5  6  2  0  0  0  0
  5  7  1  0  0  0  0
  2  3  1  0  0  0  0
  2  4  1  0  0  0  0
  2  5  1  0  0  0  0
  1  2  1  0  0  0  0
 25 26  2  0  0  0  0
 25 27  1  0  0  0  0
 23 24  1  0  0  0  0
 21 22  1  0  0  0  0
 21 23  2  0  0  0  0
 19 20  1  0  0  0  0
 19 21  1  0  0  0  0
 17 18  1  0  0  0  0
 17 19  2  0  0  0  0
 15 16  1  0  0  0  0
 15 17  1  0  0  0  0
 14 15  2  0  0  0  0
 14 23  1  0  0  0  0
 11 12  1  0  0  0  0
 11 13  1  0  0  0  0
 11 14  1  0  0  0  0
  9 10  1  0  0  0  0
  9 11  1  0  0  0  0
  9 25  1  0  0  0  0
  7  8  1  0  0  0  0
  7  9  1  0  0  0  0
 29 30  1  0  0  0  0
 29 31  1  0  0  0  0
 29 32  1  0  0  0  0
 27 28  1  0  0  0  0
 27 29  1  0  0  0  0
M  END
$$$$
default_name
  -OEChem-01062215323D

 32 32  0     1  0  0  0  0  0999 V2000
   -3.8405   -3.7518    1.6252 H   0  0  0  0  0  0  0  0  0  0  0  0
   -3.7965   -2.8768    0.9782 C   0  0  0  0  0  0  0  0  0  0  0  0
   -4.5465   -2.1527    1.2902 H   0  0  0  0  0  0  0  0  0  0  0  0
   -3.9745   -3.1748   -0.0538 H   0  0  0  0  0  0  0  0  0  0  0  0
   -2.4245   -2.2537    1.0882 C   0  0  0  0  0  0  0  0  0  0  0  0
   -1.5805   -2.7478    1.8242 O   0  0  0  0  0  0  0  0  0  0  0  0
   -2.2045   -1.1637    0.3562 N   0  0  0  0  0  0  0  0  0  0  0  0
   -2.9595   -0.7907   -0.2008 H   0  0  0  0  0  0  0  0  0  0  0  0
   -0.9485   -0.4087    0.3482 C   0  0  1  0  0  0  0  0  0  0  0  0
   -0.1408   -1.0795    0.0507 H   0  0  0  0  0  0  0  0  0  0  0  0
   -1.0432    0.7243   -0.6879 C   0  0  0  0  0  0  0  0  0  0  0  0
   -1.9343    1.3194   -0.4831 H   0  0  0  0  0  0  0  0  0  0  0  0
   -0.1784    1.3799   -0.5752 H   0  0  0  0  0  0  0  0  0  0  0  0
   -1.1209    0.2405   -2.1235 C   0  0  0  0  0  0  0  0  0  0  0  0
    0.0471   -0.1357   -2.8135 C   0  0  0  0  0  0  0  0  0  0  0  0
    1.0111   -0.0602   -2.3305 H   0  0  0  0  0  0  0  0  0  0  0  0
   -0.0374   -0.6226   -4.1310 C   0  0  0  0  0  0  0  0  0  0  0  0
    0.8609   -0.9085   -4.6600 H   0  0  0  0  0  0  0  0  0  0  0  0
   -1.2889   -0.7359   -4.7598 C   0  0  0  0  0  0  0  0  0  0  0  0
   -1.3535   -1.1078   -5.7728 H   0  0  0  0  0  0  0  0  0  0  0  0
   -2.4578   -0.3594   -4.0736 C   0  0  0  0  0  0  0  0  0  0  0  0
   -3.4194   -0.4414   -4.5587 H   0  0  0  0  0  0  0  0  0  0  0  0
   -2.3728    0.1302   -2.7582 C   0  0  0  0  0  0  0  0  0  0  0  0
   -3.2725    0.4227   -2.2325 H   0  0  0  0  0  0  0  0  0  0  0  0
   -0.6196    0.1253    1.7539 C   0  0  0  0  0  0  0  0  0  0  0  0
    0.2598   -0.4105    2.4299 O   0  0  0  0  0  0  0  0  0  0  0  0
   -1.3254    1.1737    2.1962 N   0  0  0  0  0  0  0  0  0  0  0  0
   -2.0665    1.5215    1.6069 H   0  0  0  0  0  0  0  0  0  0  0  0
   -1.1441    1.7931    3.5069 C   0  0  0  0  0  0  0  0  0  0  0  0
   -0.0910    2.0407    3.6562 H   0  0  0  0  0  0  0  0  0  0  0  0
   -1.7410    2.7025    3.5799 H   0  0  0  0  0  0  0  0  0  0  0  0
   -1.4522    1.0958    4.2884 H   0  0  0  0  0  0  0  0  0  0  0  0
  5  6  2  0  0  0  0
  5  7  1  0  0  0  0
  2  3  1  0  0  0  0
  2  4  1  0  0  0  0
  2  5  1  0  0  0  0
  1  2  1  0  0  0  0
 25 26  2  0  0  0  0
 25 27  1  0  0  0  0
 23 24  1  0  0  0  0
 21 22  1  0  0  0  0
 21 23  2  0  0  0  0
 19 20  1  0  0  0  0
 19 21  1  0  0  0  0
 17 18  1  0  0  0  0
 17 19  2  0  0  0  0
 15 16  1  0  0  0  0
 15 17  1  0  0  0  0
 14 15  2  0  0  0  0
 14 23  1  0  0  0  0
 11 12  1  0  0  0  0
 11 13  1  0  0  0  0
 11 14  1  0  0  0  0
  9 10  1  0  0  0  0
  9 11  1  0  0  0  0
  9 25  1  0  0  0  0
  7  8  1  0  0  0  0
  7  9  1  0  0  0  0
 29 30  1  0  0  0  0
 29 31  1  0  0  0  0
 29 32  1  0  0  0  0
 27 28  1  0  0  0  0
 27 29  1  0  0  0  0
M  END
$$$$
default_name
  -OEChem-01062215323D

 32 32  0     1  0  0  0  0  0999 V2000
   -3.8405   -3.7518    1.6252 H   0  0  0  0  0  0  0  0  0  0  0  0
   -3.7965   -2.8768    0.9782 C   0  0  0  0  0  0  0  0  0  0  0  0
   -4.5465   -2.1527    1.2902 H   0  0  0  0  0  0  0  0  0  0  0  0
   -3.9745   -3.1748   -0.0538 H   0  0  0  0  0  0  0  0  0  0  0  0
   -2.4245   -2.2537    1.0882 C   0  0  0  0  0  0  0  0  0  0  0  0
   -1.5805   -2.7478    1.8242 O   0  0  0  0  0  0  0  0  0  0  0  0
   -2.2045   -1.1637    0.3562 N   0  0  0  0  0  0  0  0  0  0  0  0
   -2.9595   -0.7907   -0.2008 H   0  0  0  0  0  0  0  0  0  0  0  0
   -0.9485   -0.4087    0.3482 C   0  0  1  0  0  0  0  0  0  0  0  0
   -0.1408   -1.0795    0.0507 H   0  0  0  0  0  0  0  0  0  0  0  0
   -1.0432    0.7243   -0.6879 C   0  0  0  0  0  0  0  0  0  0  0  0
   -1.9343    1.3194   -0.4831 H   0  0  0  0  0  0  0  0  0  0  0  0
   -0.1784    1.3799   -0.5752 H   0  0  0  0  0  0  0  0  0  0  0  0
   -1.1209    0.2405   -2.1235 C   0  0  0  0  0  0  0  0  0  0  0  0
    0.0471   -0.1357   -2.8135 C   0  0  0  0  0  0  0  0  0  0  0  0
    1.0111   -0.0602   -2.3305 H   0  0  0  0  0  0  0  0  0  0  0  0
   -0.0374   -0.6226   -4.1310 C   0  0  0  0  0  0  0  0  0  0  0  0
    0.8609   -0.9085   -4.6600 H   0  0  0  0  0  0  0  0  0  0  0  0
   -1.2889   -0.7359   -4.7598 C   0  0  0  0  0  0  0  0  0  0  0  0
   -1.3535   -1.1078   -5.7728 H   0  0  0  0  0  0  0  0  0  0  0  0
   -2.4578   -0.3594   -4.0736 C   0  0  0  0  0  0  0  0  0  0  0  0
   -3.4194   -0.4414   -4.5587 H   0  0  0  0  0  0  0  0  0  0  0  0
   -2.3728    0.1302   -2.7582 C   0  0  0  0  0  0  0  0  0  0  0  0
   -3.2725    0.4227   -2.2325 H   0  0  0  0  0  0  0  0  0  0  0  0
   -0.6196    0.1253    1.7539 C   0  0  0  0  0  0  0  0  0  0  0  0
    0.4217   -0.2144    2.3176 O   0  0  0  0  0  0  0  0  0  0  0  0
   -1.5050    0.9540    2.3217 N   0  0  0  0  0  0  0  0  0  0  0  0
   -2.3601    1.1406    1.8203 H   0  0  0  0  0  0  0  0  0  0  0  0
   -1.3479    1.5398    3.6508 C   0  0  0  0  0  0  0  0  0  0  0  0
   -0.3726    2.0249    3.7281 H   0  0  0  0  0  0  0  0  0  0  0  0
   -2.1311    2.2761    3.8332 H   0  0  0  0  0  0  0  0  0  0  0  0
   -1.4076    0.7550    4.4074 H   0  0  0  0  0  0  0  0  0  0  0  0
  5  6  2  0  0  0  0
  5  7  1  0  0  0  0
  2  3  1  0  0  0  0
  2  4  1  0  0  0  0
  2  5  1  0  0  0  0
  1  2  1  0  0  0  0
 25 26  2  0  0  0  0
 25 27  1  0  0  0  0
 23 24  1  0  0  0  0
 21 22  1  0  0  0  0
 21 23  2  0  0  0  0
 19 20  1  0  0  0  0
 19 21  1  0  0  0  0
 17 18  1  0  0  0  0
 17 19  2  0  0  0  0
 15 16  1  0  0  0  0
 15 17  1  0  0  0  0
 14 15  2  0  0  0  0
 14 23  1  0  0  0  0
 11 12  1  0  0  0  0
 11 13  1  0  0  0  0
 11 14  1  0  0  0  0
  9 10  1  0  0  0  0
  9 11  1  0  0  0  0
  9 25  1  0  0  0  0
  7  8  1  0  0  0  0
  7  9  1  0  0  0  0
 29 30  1  0  0  0  0
 29 31  1  0  0  0  0
 29 32  1  0  0  0  0
 27 28  1  0  0  0  0
 27 29  1  0  0  0  0
M  END
$$$$
default_name
  -OEChem-01062215323D

 32 32  0     1  0  0  0  0  0999 V2000
   -3.8405   -3.7518    1.6252 H   0  0  0  0  0  0  0  0  0  0  0  0
   -3.7965   -2.8768    0.9782 C   0  0  0  0  0  0  0  0  0  0  0  0
   -4.5465   -2.1527    1.2902 H   0  0  0  0  0  0  0  0  0  0  0  0
   -3.9745   -3.1748   -0.0538 H   0  0  0  0  0  0  0  0  0  0  0  0
   -2.4245   -2.2537    1.0882 C   0  0  0  0  0  0  0  0  0  0  0  0
   -1.5805   -2.7478    1.8242 O   0  0  0  0  0  0  0  0  0  0  0  0
   -2.2045   -1.1637    0.3562 N   0  0  0  0  0  0  0  0  0  0  0  0
   -2.9595   -0.7907   -0.2008 H   0  0  0  0  0  0  0  0  0  0  0  0
   -0.9485   -0.4087    0.3482 C   0  0  1  0  0  0  0  0  0  0  0  0
   -0.1408   -1.0795    0.0507 H   0  0  0  0  0  0  0  0  0  0  0  0
   -1.0432    0.7243   -0.6879 C   0  0  0  0  0  0  0  0  0  0  0  0
   -1.9343    1.3194   -0.4831 H   0  0  0  0  0  0  0  0  0  0  0  0
   -0.1784    1.3799   -0.5752 H   0  0  0  0  0  0  0  0  0  0  0  0
   -1.1209    0.2405   -2.1235 C   0  0  0  0  0  0  0  0  0  0  0  0
    0.0471   -0.1357   -2.8135 C   0  0  0  0  0  0  0  0  0  0  0  0
    1.0111   -0.0602   -2.3305 H   0  0  0  0  0  0  0  0  0  0  0  0
   -0.0374   -0.6226   -4.1310 C   0  0  0  0  0  0  0  0  0  0  0  0
    0.8609   -0.9085   -4.6600 H   0  0  0  0  0  0  0  0  0  0  0  0
   -1.2889   -0.7359   -4.7598 C   0  0  0  0  0  0  0  0  0  0  0  0
   -1.3535   -1.1078   -5.7728 H   0  0  0  0  0  0  0  0  0  0  0  0
   -2.4578   -0.3594   -4.0736 C   0  0  0  0  0  0  0  0  0  0  0  0
   -3.4194   -0.4414   -4.5587 H   0  0  0  0  0  0  0  0  0  0  0  0
   -2.3728    0.1302   -2.7582 C   0  0  0  0  0  0  0  0  0  0  0  0
   -3.2725    0.4227   -2.2325 H   0  0  0  0  0  0  0  0  0  0  0  0
   -0.6196    0.1253    1.7539 C   0  0  0  0  0  0  0  0  0  0  0  0
    0.5216    0.0194    2.2054 O   0  0  0  0  0  0  0  0  0  0  0  0
   -1.6152    0.6924    2.4469 N   0  0  0  0  0  0  0  0  0  0  0  0
   -2.5345    0.6914    2.0318 H   0  0  0  0  0  0  0  0  0  0  0  0
   -1.4720    1.2390    3.7941 C   0  0  0  0  0  0  0  0  0  0  0  0
   -0.6345    1.9391    3.8219 H   0  0  0  0  0  0  0  0  0  0  0  0
   -2.3844    1.7580    4.0892 H   0  0  0  0  0  0  0  0  0  0  0  0
   -1.2733    0.4298    4.4995 H   0  0  0  0  0  0  0  0  0  0  0  0
  5  6  2  0  0  0  0
  5  7  1  0  0  0  0
  2  3  1  0  0  0  0
  2  4  1  0  0  0  0
  2  5  1  0  0  0  0
  1  2  1  0  0  0  0
 25 26  2  0  0  0  0
 25 27  1  0  0  0  0
 23 24  1  0  0  0  0
 21 22  1  0  0  0  0
 21 23  2  0  0  0  0
 19 20  1  0  0  0  0
 19 21  1  0  0  0  0
 17 18  1  0  0  0  0
 17 19  2  0  0  0  0
 15 16  1  0  0  0  0
 15 17  1  0  0  0  0
 14 15  2  0  0  0  0
 14 23  1  0  0  0  0
 11 12  1  0  0  0  0
 11 13  1  0  0  0  0
 11 14  1  0  0  0  0
  9 10  1  0  0  0  0
  9 11  1  0  0  0  0
  9 25  1  0  0  0  0
  7  8  1  0  0  0  0
  7  9  1  0  0  0  0
 29 30  1  0  0  0  0
 29 31  1  0  0  0  0
 29 32  1  0  0  0  0
 27 28  1  0  0  0  0
 27 29  1  0  0  0  0
M  END
$$$$
default_name
  -OEChem-01062215323D

 32 32  0     1  0  0  0  0  0999 V2000
   -3.8405   -3.7518    1.6252 H   0  0  0  0  0  0  0  0  0  0  0  0
   -3.7965   -2.8768    0.9782 C   0  0  0  0  0  0  0  0  0  0  0  0
   -4.5465   -2.1527    1.2902 H   0  0  0  0  0  0  0  0  0  0  0  0
   -3.9745   -3.1748   -0.0538 H   0  0  0  0  0  0  0  0  0  0  0  0
   -2.4245   -2.2537    1.0882 C   0  0  0  0  0  0  0  0  0  0  0  0
   -1.5805   -2.7478    1.8242 O   0  0  0  0  0  0  0  0  0  0  0  0
   -2.2045   -1.1637    0.3562 N   0  0  0  0  0  0  0  0  0  0  0  0
   -2.9595   -0.7907   -0.2008 H   0  0  0  0  0  0  0  0  0  0  0  0
   -0.9485   -0.4087    0.3482 C   0  0  1  0  0  0  0  0  0  0  0  0
   -0.1408   -1.0795    0.0507 H   0  0  0  0  0  0  0  0  0  0  0  0
   -1.0432    0.7243   -0.6879 C   0  0  0  0  0  0  0  0  0  0  0  0
   -1.9343    1.3194   -0.4831 H   0  0  0  0  0  0  0  0  0  0  0  0
   -0.1784    1.3799   -0.5752 H   0  0  0  0  0  0  0  0  0  0  0  0
   -1.1209    0.2405   -2.1235 C   0  0  0  0  0  0  0  0  0  0  0  0
    0.0471   -0.1357   -2.8135 C   0  0  0  0  0  0  0  0  0  0  0  0
    1.0111   -0.0602   -2.3305 H   0  0  0  0  0  0  0  0  0  0  0  0
   -0.0374   -0.6226   -4.1310 C   0  0  0  0  0  0  0  0  0  0  0  0
    0.8609   -0.9085   -4.6600 H   0  0  0  0  0  0  0  0  0  0  0  0
   -1.2889   -0.7359   -4.7598 C   0  0  0  0  0  0  0  0  0  0  0  0
   -1.3535   -1.1078   -5.7728 H   0  0  0  0  0  0  0  0  0  0  0  0
   -2.4578   -0.3594   -4.0736 C   0  0  0  0  0  0  0  0  0  0  0  0
   -3.4194   -0.4414   -4.5587 H   0  0  0  0  0  0  0  0  0  0  0  0
   -2.3728    0.1302   -2.7582 C   0  0  0  0  0  0  0  0  0  0  0  0
   -3.2725    0.4227   -2.2325 H   0  0  0  0  0  0  0  0  0  0  0  0
   -0.6196    0.1253    1.7539 C   0  0  0  0  0  0  0  0  0  0  0  0
    0.5528    0.2751    2.1009 O   0  0  0  0  0  0  0  0  0  0  0  0
   -1.6486    0.4067    2.5632 N   0  0  0  0  0  0  0  0  0  0  0  0
   -2.5778    0.2046    2.2268 H   0  0  0  0  0  0  0  0  0  0  0  0
   -1.5080    0.9111    3.9271 C   0  0  0  0  0  0  0  0  0  0  0  0
   -0.8587    1.7892    3.9314 H   0  0  0  0  0  0  0  0  0  0  0  0
   -2.4835    1.1836    4.3307 H   0  0  0  0  0  0  0  0  0  0  0  0
   -1.0585    0.1423    4.5585 H   0  0  0  0  0  0  0  0  0  0  0  0
  5  6  2  0  0  0  0
  5  7  1  0  0  0  0
  2  3  1  0  0  0  0
  2  4  1  0  0  0  0
  2  5  1  0  0  0  0
  1  2  1  0  0  0  0
 25 26  2  0  0  0  0
 25 27  1  0  0  0  0
 23 24  1  0  0  0  0
 21 22  1  0  0  0  0
 21 23  2  0  0  0  0
 19 20  1  0  0  0  0
 19 21  1  0  0  0  0
 17 18  1  0  0  0  0
 17 19  2  0  0  0  0
 15 16  1  0  0  0  0
 15 17  1  0  0  0  0
 14 15  2  0  0  0  0
 14 23  1  0  0  0  0
 11 12  1  0  0  0  0
 11 13  1  0  0  0  0
 11 14  1  0  0  0  0
  9 10  1  0  0  0  0
  9 11  1  0  0  0  0
  9 25  1  0  0  0  0
  7  8  1  0  0  0  0
  7  9  1  0  0  0  0
 29 30  1  0  0  0  0
 29 31  1  0  0  0  0
 29 32  1  0  0  0  0
 27 28  1  0  0  0  0
 27 29  1  0  0  0  0
M  END
$$$$
default_name
  -OEChem-01062215323D

 32 32  0     1  0  0  0  0  0999 V2000
   -3.8405   -3.7518    1.6252 H   0  0  0  0  0  0  0  0  0  0  0  0
   -3.7965   -2.8768    0.9782 C   0  0  0  0  0  0  0  0  0  0  0  0
   -4.5465   -2.1527    1.2902 H   0  0  0  0  0  0  0  0  0  0  0  0
   -3.9745   -3.1748   -0.0538 H   0  0  0  0  0  0  0  0  0  0  0  0
   -2.4245   -2.2537    1.0882 C   0  0  0  0  0  0  0  0  0  0  0  0
   -1.5805   -2.7478    1.8242 O   0  0  0  0  0  0  0  0  0  0  0  0
   -2.2045   -1.1637    0.3562 N   0  0  0  0  0  0  0  0  0  0  0  0
   -2.9595   -0.7907   -0.2008 H   0  0  0  0  0  0  0  0  0  0  0  0
   -0.9485   -0.4087    0.3482 C   0  0  1  0  0  0  0  0  0  0  0  0
   -0.1408   -1.0795    0.0507 H   0  0  0  0  0  0  0  0  0  0  0  0
   -1.0432    0.7243   -0.6879 C   0  0  0  0  0  0  0  0  0  0  0  0
   -1.9343    1.3194   -0.4831 H   0  0  0  0  0  0  0  0  0  0  0  0
   -0.1784    1.3799   -0.5752 H   0  0  0  0  0  0  0  0  0  0  0  0
   -1.1209    0.2405   -2.1235 C   0  0  0  0  0  0  0  0  0  0  0  0
    0.0471   -0.1357   -2.8135 C   0  0  0  0  0  0  0  0  0  0  0  0
    1.0111   -0.0602   -2.3305 H   0  0  0  0  0  0  0  0  0  0  0  0
   -0.0374   -0.6226   -4.1310 C   0  0  0  0  0  0  0  0  0  0  0  0
    0.8609   -0.9085   -4.6600 H   0  0  0  0  0  0  0  0  0  0  0  0
   -1.2889   -0.7359   -4.7598 C   0  0  0  0  0  0  0  0  0  0  0  0
   -1.3535   -1.1078   -5.7728 H   0  0  0  0  0  0  0  0  0  0  0  0
   -2.4578   -0.3594   -4.0736 C   0  0  0  0  0  0  0  0  0  0  0  0
   -3.4194   -0.4414   -4.5587 H   0  0  0  0  0  0  0  0  0  0  0  0
   -2.3728    0.1302   -2.7582 C   0  0  0  0  0  0  0  0  0  0  0  0
   -3.2725    0.4227   -2.2325 H   0  0  0  0  0  0  0  0  0  0  0  0
   -0.6196    0.1253    1.7539 C   0  0  0  0  0  0  0  0  0  0  0  0
    0.5131    0.5353    2.0114 O   0  0  0  0  0  0  0  0  0  0  0  0
   -1.6029    0.1165    2.6628 N   0  0  0  0  0  0  0  0  0  0  0  0
   -2.4870   -0.2866    2.3922 H   0  0  0  0  0  0  0  0  0  0  0  0
   -1.4533    0.5787    4.0406 C   0  0  0  0  0  0  0  0  0  0  0  0
   -1.0299    1.5853    4.0489 H   0  0  0  0  0  0  0  0  0  0  0  0
   -2.4219    0.5919    4.5410 H   0  0  0  0  0  0  0  0  0  0  0  0
   -0.7777   -0.0879    4.5802 H   0  0  0  0  0  0  0  0  0  0  0  0
  5  6  2  0  0  0  0
  5  7  1  0  0  0  0
  2  3  1  0  0  0  0
  2  4  1  0  0  0  0
  2  5  1  0  0  0  0
  1  2  1  0  0  0  0
 25 26  2  0  0  0  0
 25 27  1  0  0  0  0
 23 24  1  0  0  0  0
 21 22  1  0  0  0  0
 21 23  2  0  0  0  0
 19 20  1  0  0  0  0
 19 21  1  0  0  0  0
 17 18  1  0  0  0  0
 17 19  2  0  0  0  0
 15 16  1  0  0  0  0
 15 17  1  0  0  0  0
 14 15  2  0  0  0  0
 14 23  1  0  0  0  0
 11 12  1  0  0  0  0
 11 13  1  0  0  0  0
 11 14  1  0  0  0  0
  9 10  1  0  0  0  0
  9 11  1  0  0  0  0
  9 25  1  0  0  0  0
  7  8  1  0  0  0  0
  7  9  1  0  0  0  0
 29 30  1  0  0  0  0
 29 31  1  0  0  0  0
 29 32  1  0  0  0  0
 27 28  1  0  0  0  0
 27 29  1  0  0  0  0
M  END
$$$$
default_name
  -OEChem-01062215323D

 32 32  0     1  0  0  0  0  0999 V2000
   -3.8405   -3.7518    1.6252 H   0  0  0  0  0  0  0  0  0  0  0  0
   -3.7965   -2.8768    0.9782 C   0  0  0  0  0  0  0  0  0  0  0  0
   -4.5465   -2.1527    1.2902 H   0  0  0  0  0  0  0  0  0  0  0  0
   -3.9745   -3.1748   -0.0538 H   0  0  0  0  0  0  0  0  0  0  0  0
   -2.4245   -2.2537    1.0882 C   0  0  0  0  0  0  0  0  0  0  0  0
   -1.5805   -2.7478    1.8242 O   0  0  0  0  0  0  0  0  0  0  0  0
   -2.2045   -1.1637    0.3562 N   0  0  0  0  0  0  0  0  0  0  0  0
   -2.9595   -0.7907   -0.2008 H   0  0  0  0  0  0  0  0  0  0  0  0
   -0.9485   -0.4087    0.3482 C   0  0  1  0  0  0  0  0  0  0  0  0
   -0.1408   -1.0795    0.0507 H   0  0  0  0  0  0  0  0  0  0  0  0
   -1.0432    0.7243   -0.6879 C   0  0  0  0  0  0  0  0  0  0  0  0
   -1.9343    1.3194   -0.4831 H   0  0  0  0  0  0  0  0  0  0  0  0
   -0.1784    1.3799   -0.5752 H   0  0  0  0  0  0  0  0  0  0  0  0
   -1.1209    0.2405   -2.1235 C   0  0  0  0  0  0  0  0  0  0  0  0
    0.0471   -0.1357   -2.8135 C   0  0  0  0  0  0  0  0  0  0  0  0
    1.0111   -0.0602   -2.3305 H   0  0  0  0  0  0  0  0  0  0  0  0
   -0.0374   -0.6226   -4.1310 C   0  0  0  0  0  0  0  0  0  0  0  0
    0.8609   -0.9085   -4.6600 H   0  0  0  0  0  0  0  0  0  0  0  0
   -1.2889   -0.7359   -4.7598 C   0  0  0  0  0  0  0  0  0  0  0  0
   -1.3535   -1.1078   -5.7728 H   0  0  0  0  0  0  0  0  0  0  0  0
   -2.4578   -0.3594   -4.0736 C   0  0  0  0  0  0  0  0  0  0  0  0
   -3.4194   -0.4414   -4.5587 H   0  0  0  0  0  0  0  0  0  0  0  0
   -2.3728    0.1302   -2.7582 C   0  0  0  0  0  0  0  0  0  0  0  0
   -3.2725    0.4227   -2.2325 H   0  0  0  0  0  0  0  0  0  0  0  0
   -0.6196    0.1253    1.7539 C   0  0  0  0  0  0  0  0  0  0  0  0
    0.4053    0.7821    1.9428 O   0  0  0  0  0  0  0  0  0  0  0  0
   -1.4812   -0.1586    2.7388 N   0  0  0  0  0  0  0  0  0  0  0  0
   -2.2685   -0.7487    2.5167 H   0  0  0  0  0  0  0  0  0  0  0  0
   -1.3116    0.2642    4.1269 C   0  0  0  0  0  0  0  0  0  0  0  0
   -1.1367    1.3414    4.1665 H   0  0  0  0  0  0  0  0  0  0  0  0
   -2.2036    0.0234    4.7060 H   0  0  0  0  0  0  0  0  0  0  0  0
   -0.4501   -0.2450    4.5633 H   0  0  0  0  0  0  0  0  0  0  0  0
  5  6  2  0  0  0  0
  5  7  1  0  0  0  0
  2  3  1  0  0  0  0
  2  4  1  0  0  0  0
  2  5  1  0  0  0  0
  1  2  1  0  0  0  0
 25 26  2  0  0  0  0
 25 27  1  0  0  0  0
 23 24  1  0  0  0  0
 21 22  1  0  0  0  0
 21 23  2  0  0  0  0
 19 20  1  0  0  0  0
 19 21  1  0  0  0  0
 17 18  1  0  0  0  0
 17 19  2  0  0  0  0
 15 16  1  0  0  0  0
 15 17  1  0  0  0  0
 14 15  2  0  0  0  0
 14 23  1  0  0  0  0
 11 12  1  0  0  0  0
 11 13  1  0  0  0  0
 11 14  1  0  0  0  0
  9 10  1  0  0  0  0
  9 11  1  0  0  0  0
  9 25  1  0  0  0  0
  7  8  1  0  0  0  0
  7  9  1  0  0  0  0
 29 30  1  0  0  0  0
 29 31  1  0  0  0  0
 29 32  1  0  0  0  0
 27 28  1  0  0  0  0
 27 29  1  0  0  0  0
M  END
$$$$
default_name
  -OEChem-01062215323D

 32 32  0     1  0  0  0  0  0999 V2000
   -3.8405   -3.7518    1.6252 H   0  0  0  0  0  0  0  0  0  0  0  0
   -3.7965   -2.8768    0.9782 C   0  0  0  0  0  0  0  0  0  0  0  0
   -4.5465   -2.1527    1.2902 H   0  0  0  0  0  0  0  0  0  0  0  0
   -3.9745   -3.1748   -0.0538 H   0  0  0  0  0  0  0  0  0  0  0  0
   -2.4245   -2.2537    1.0882 C   0  0  0  0  0  0  0  0  0  0  0  0
   -1.5805   -2.7478    1.8242 O   0  0  0  0  0  0  0  0  0  0  0  0
   -2.2045   -1.1637    0.3562 N   0  0  0  0  0  0  0  0  0  0  0  0
   -2.9595   -0.7907   -0.2008 H   0  0  0  0  0  0  0  0  0  0  0  0
   -0.9485   -0.4087    0.3482 C   0  0  1  0  0  0  0  0  0  0  0  0
   -0.1408   -1.0795    0.0507 H   0  0  0  0  0  0  0  0  0  0  0  0
   -1.0432    0.7243   -0.6879 C   0  0  0  0  0  0  0  0  0  0  0  0
   -1.9343    1.3194   -0.4831 H   0  0  0  0  0  0  0  0  0  0  0  0
   -0.1784    1.3799   -0.5752 H   0  0  0  0  0  0  0  0  0  0  0  0
   -1.1209    0.2405   -2.1235 C   0  0  0  0  0  0  0  0  0  0  0  0
    0.0471   -0.1357   -2.8135 C   0  0  0  0  0  0  0  0  0  0  0  0
    1.0111   -0.0602   -2.3305 H   0  0  0  0  0  0  0  0  0  0  0  0
   -0.0374   -0.6226   -4.1310 C   0  0  0  0  0  0  0  0  0  0  0  0
    0.8609   -0.9085   -4.6600 H   0  0  0  0  0  0  0  0  0  0  0  0
   -1.2889   -0.7359   -4.7598 C   0  0  0  0  0  0  0  0  0  0  0  0
   -1.3535   -1.1078   -5.7728 H   0  0  0  0  0  0  0  0  0  0  0  0
   -2.4578   -0.3594   -4.0736 C   0  0  0  0  0  0  0  0  0  0  0  0
   -3.4194   -0.4414   -4.5587 H   0  0  0  0  0  0  0  0  0  0  0  0
   -2.3728    0.1302   -2.7582 C   0  0  0  0  0  0  0  0  0  0  0  0
   -3.2725    0.4227   -2.2325 H   0  0  0  0  0  0  0  0  0  0  0  0
   -0.6196    0.1253    1.7539 C   0  0  0  0  0  0  0  0  0  0  0  0
    0.2366    0.9988    1.9000 O   0  0  0  0  0  0  0  0  0  0  0  0
   -1.2918   -0.3998    2.7861 N   0  0  0  0  0  0  0  0  0  0  0  0
   -1.9369   -1.1504    2.5917 H   0  0  0  0  0  0  0  0  0  0  0  0
   -1.0927   -0.0109    4.1802 C   0  0  0  0  0  0  0  0  0  0  0  0
   -1.1715    1.0740    4.2762 H   0  0  0  0  0  0  0  0  0  0  0  0
   -1.8435   -0.4833    4.8142 H   0  0  0  0  0  0  0  0  0  0  0  0
   -0.0981   -0.3185    4.5088 H   0  0  0  0  0  0  0  0  0  0  0  0
  5  6  2  0  0  0  0
  5  7  1  0  0  0  0
  2  3  1  0  0  0  0
  2  4  1  0  0  0  0
  2  5  1  0  0  0  0
  1  2  1  0  0  0  0
 25 26  2  0  0  0  0
 25 27  1  0  0  0  0
 23 24  1  0  0  0  0
 21 22  1  0  0  0  0
 21 23  2  0  0  0  0
 19 20  1  0  0  0  0
 19 21  1  0  0  0  0
 17 18  1  0  0  0  0
 17 19  2  0  0  0  0
 15 16  1  0  0  0  0
 15 17  1  0  0  0  0
 14 15  2  0  0  0  0
 14 23  1  0  0  0  0
 11 12  1  0  0  0  0
 11 13  1  0  0  0  0
 11 14  1  0  0  0  0
  9 10  1  0  0  0  0
  9 11  1  0  0  0  0
  9 25  1  0  0  0  0
  7  8  1  0  0  0  0
  7  9  1  0  0  0  0
 29 30  1  0  0  0  0
 29 31  1  0  0  0  0
 29 32  1  0  0  0  0
 27 28  1  0  0  0  0
 27 29  1  0  0  0  0
M  END
$$$$
default_name
  -OEChem-01062215323D

 32 32  0     1  0  0  0  0  0999 V2000
   -3.8405   -3.7518    1.6252 H   0  0  0  0  0  0  0  0  0  0  0  0
   -3.7965   -2.8768    0.9782 C   0  0  0  0  0  0  0  0  0  0  0  0
   -4.5465   -2.1527    1.2902 H   0  0  0  0  0  0  0  0  0  0  0  0
   -3.9745   -3.1748   -0.0538 H   0  0  0  0  0  0  0  0  0  0  0  0
   -2.4245   -2.2537    1.0882 C   0  0  0  0  0  0  0  0  0  0  0  0
   -1.5805   -2.7478    1.8242 O   0  0  0  0  0  0  0  0  0  0  0  0
   -2.2045   -1.1637    0.3562 N   0  0  0  0  0  0  0  0  0  0  0  0
   -2.9595   -0.7907   -0.2008 H   0  0  0  0  0  0  0  0  0  0  0  0
   -0.9485   -0.4087    0.3482 C   0  0  1  0  0  0  0  0  0  0  0  0
   -0.1408   -1.0795    0.0507 H   0  0  0  0  0  0  0  0  0  0  0  0
   -1.0432    0.7243   -0.6879 C   0  0  0  0  0  0  0  0  0  0  0  0
   -1.9343    1.3194   -0.4831 H   0  0  0  0  0  0  0  0  0  0  0  0
   -0.1784    1.3799   -0.5752 H   0  0  0  0  0  0  0  0  0  0  0  0
   -1.1209    0.2405   -2.1235 C   0  0  0  0  0  0  0  0  0  0  0  0
    0.0471   -0.1357   -2.8135 C   0  0  0  0  0  0  0  0  0  0  0  0
    1.0111   -0.0602   -2.3305 H   0  0  0  0  0  0  0  0  0  0  0  0
   -0.0374   -0.6226   -4.1310 C   0  0  0  0  0  0  0  0  0  0  0  0
    0.8609   -0.9085   -4.6600 H   0  0  0  0  0  0  0  0  0  0  0  0
   -1.2889   -0.7359   -4.7598 C   0  0  0  0  0  0  0  0  0  0  0  0
   -1.3535   -1.1078   -5.7728 H   0  0  0  0  0  0  0  0  0  0  0  0
   -2.4578   -0.3594   -4.0736 C   0  0  0  0  0  0  0  0  0  0  0  0
   -3.4194   -0.4414   -4.5587 H   0  0  0  0  0  0  0  0  0  0  0  0
   -2.3728    0.1302   -2.7582 C   0  0  0  0  0  0  0  0  0  0  0  0
   -3.2725    0.4227   -2.2325 H   0  0  0  0  0  0  0  0  0  0  0  0
   -0.6196    0.1253    1.7539 C   0  0  0  0  0  0  0  0  0  0  0  0
    0.0186    1.1707    1.8857 O   0  0  0  0  0  0  0  0  0  0  0  0
   -1.0476   -0.5906    2.8015 N   0  0  0  0  0  0  0  0  0  0  0  0
   -1.5150   -1.4641    2.6122 H   0  0  0  0  0  0  0  0  0  0  0  0
   -0.8115   -0.2279    4.1968 C   0  0  0  0  0  0  0  0  0  0  0  0
   -1.1321    0.8015    4.3706 H   0  0  0  0  0  0  0  0  0  0  0  0
   -1.3662   -0.8937    4.8585 H   0  0  0  0  0  0  0  0  0  0  0  0
    0.2544   -0.3032    4.4205 H   0  0  0  0  0  0  0  0  0  0  0  0
  5  6  2  0  0  0  0
  5  7  1  0  0  0  0
  2  3  1  0  0  0  0
  2  4  1  0  0  0  0
  2  5  1  0  0  0  0
  1  2  1  0  0  0  0
 25 26  2  0  0  0  0
 25 27  1  0  0  0  0
 23 24  1  0  0  0  0
 21 22  1  0  0  0  0
 21 23  2  0  0  0  0
 19 20  1  0  0  0  0
 19 21  1  0  0  0  0
 17 18  1  0  0  0  0
 17 19  2  0  0  0  0
 15 16  1  0  0  0  0
 15 17  1  0  0  0  0
 14 15  2  0  0  0  0
 14 23  1  0  0  0  0
 11 12  1  0  0  0  0
 11 13  1  0  0  0  0
 11 14  1  0  0  0  0
  9 10  1  0  0  0  0
  9 11  1  0  0  0  0
  9 25  1  0  0  0  0
  7  8  1  0  0  0  0
  7  9  1  0  0  0  0
 29 30  1  0  0  0  0
 29 31  1  0  0  0  0
 29 32  1  0  0  0  0
 27 28  1  0  0  0  0
 27 29  1  0  0  0  0
M  END
$$$$
default_name
  -OEChem-01062215323D

 32 32  0     1  0  0  0  0  0999 V2000
   -3.8405   -3.7518    1.6252 H   0  0  0  0  0  0  0  0  0  0  0  0
   -3.7965   -2.8768    0.9782 C   0  0  0  0  0  0  0  0  0  0  0  0
   -4.5465   -2.1527    1.2902 H   0  0  0  0  0  0  0  0  0  0  0  0
   -3.9745   -3.1748   -0.0538 H   0  0  0  0  0  0  0  0  0  0  0  0
   -2.4245   -2.2537    1.0882 C   0  0  0  0  0  0  0  0  0  0  0  0
   -1.5805   -2.7478    1.8242 O   0  0  0  0  0  0  0  0  0  0  0  0
   -2.2045   -1.1637    0.3562 N   0  0  0  0  0  0  0  0  0  0  0  0
   -2.9595   -0.7907   -0.2008 H   0  0  0  0  0  0  0  0  0  0  0  0
   -0.9485   -0.4087    0.3482 C   0  0  1  0  0  0  0  0  0  0  0  0
   -0.1408   -1.0795    0.0507 H   0  0  0  0  0  0  0  0  0  0  0  0
   -1.0432    0.7243   -0.6879 C   0  0  0  0  0  0  0  0  0  0  0  0
   -1.9343    1.3194   -0.4831 H   0  0  0  0  0  0  0  0  0  0  0  0
   -0.1784    1.3799   -0.5752 H   0  0  0  0  0  0  0  0  0  0  0  0
   -1.1209    0.2405   -2.1235 C   0  0  0  0  0  0  0  0  0  0  0  0
    0.0471   -0.1357   -2.8135 C   0  0  0  0  0  0  0  0  0  0  0  0
    1.0111   -0.0602   -2.3305 H   0  0  0  0  0  0  0  0  0  0  0  0
   -0.0374   -0.6226   -4.1310 C   0  0  0  0  0  0  0  0  0  0  0  0
    0.8609   -0.9085   -4.6600 H   0  0  0  0  0  0  0  0  0  0  0  0
   -1.2889   -0.7359   -4.7598 C   0  0  0  0  0  0  0  0  0  0  0  0
   -1.3535   -1.1078   -5.7728 H   0  0  0  0  0  0  0  0  0  0  0  0
   -2.4578   -0.3594   -4.0736 C   0  0  0  0  0  0  0  0  0  0  0  0
   -3.4194   -0.4414   -4.5587 H   0  0  0  0  0  0  0  0  0  0  0  0
   -2.3728    0.1302   -2.7582 C   0  0  0  0  0  0  0  0  0  0  0  0
   -3.2725    0.4227   -2.2325 H   0  0  0  0  0  0  0  0  0  0  0  0
   -0.6196    0.1253    1.7539 C   0  0  0  0  0  0  0  0  0  0  0  0
   -0.2339    1.2859    1.9010 O   0  0  0  0  0  0  0  0  0  0  0  0
   -0.7653   -0.7180    2.7838 N   0  0  0  0  0  0  0  0  0  0  0  0
   -1.0314   -1.6685    2.5767 H   0  0  0  0  0  0  0  0  0  0  0  0
   -0.4871   -0.3718    4.1756 C   0  0  0  0  0  0  0  0  0  0  0  0
   -1.0212    0.5423    4.4431 H   0  0  0  0  0  0  0  0  0  0  0  0
   -0.8043   -1.1797    4.8356 H   0  0  0  0  0  0  0  0  0  0  0  0
    0.5834   -0.2002    4.3045 H   0  0  0  0  0  0  0  0  0  0  0  0
  5  6  2  0  0  0  0
  5  7  1  0  0  0  0
  2  3  1  0  0  0  0
  2  4  1  0  0  0  0
  2  5  1  0  0  0  0
  1  2  1  0  0  0  0
 25 26  2  0  0  0  0
 25 27  1  0  0  0  0
 23 24  1  0  0  0  0
 21 22  1  0  0  0  0
 21 23  2  0  0  0  0
 19 20  1  0  0  0  0
 19 21  1  0  0  0  0
 17 18  1  0  0  0  0
 17 19  2  0  0  0  0
 15 16  1  0  0  0  0
 15 17  1  0  0  0  0
 14 15  2  0  0  0  0
 14 23  1  0  0  0  0
 11 12  1  0  0  0  0
 11 13  1  0  0  0  0
 11 14  1  0  0  0  0
  9 10  1  0  0  0  0
  9 11  1  0  0  0  0
  9 25  1  0  0  0  0
  7  8  1  0  0  0  0
  7  9  1  0  0  0  0
 29 30  1  0  0  0  0
 29 31  1  0  0  0  0
 29 32  1  0  0  0  0
 27 28  1  0  0  0  0
 27 29  1  0  0  0  0
M  END
$$$$
default_name
  -OEChem-01062215323D

 32 32  0     1  0  0  0  0  0999 V2000
   -3.8405   -3.7518    1.6252 H   0  0  0  0  0  0  0  0  0  0  0  0
   -3.7965   -2.8768    0.9782 C   0  0  0  0  0  0  0  0  0  0  0  0
   -4.5465   -2.1527    1.2902 H   0  0  0  0  0  0  0  0  0  0  0  0
   -3.9745   -3.1748   -0.0538 H   0  0  0  0  0  0  0  0  0  0  0  0
   -2.4245   -2.2537    1.0882 C   0  0  0  0  0  0  0  0  0  0  0  0
   -1.5805   -2.7478    1.8242 O   0  0  0  0  0  0  0  0  0  0  0  0
   -2.2045   -1.1637    0.3562 N   0  0  0  0  0  0  0  0  0  0  0  0
   -2.9595   -0.7907   -0.2008 H   0  0  0  0  0  0  0  0  0  0  0  0
   -0.9485   -0.4087    0.3482 C   0  0  1  0  0  0  0  0  0  0  0  0
   -0.1408   -1.0795    0.0507 H   0  0  0  0  0  0  0  0  0  0  0  0
   -1.0432    0.7243   -0.6879 C   0  0  0  0  0  0  0  0  0  0  0  0
   -1.9343    1.3194   -0.4831 H   0  0  0  0  0  0  0  0  0  0  0  0
   -0.1784    1.3799   -0.5752 H   0  0  0  0  0  0  0  0  0  0  0  0
   -1.1209    0.2405   -2.1235 C   0  0  0  0  0  0  0  0  0  0  0  0
    0.0471   -0.1357   -2.8135 C   0  0  0  0  0  0  0  0  0  0  0  0
    1.0111   -0.0602   -2.3305 H   0  0  0  0  0  0  0  0  0  0  0  0
   -0.0374   -0.6226   -4.1310 C   0  0  0  0  0  0  0  0  0  0  0  0
    0.8609   -0.9085   -4.6600 H   0  0  0  0  0  0  0  0  0  0  0  0
   -1.2889   -0.7359   -4.7598 C   0  0  0  0  0  0  0  0  0  0  0  0
   -1.3535   -1.1078   -5.7728 H   0  0  0  0  0  0  0  0  0  0  0  0
   -2.4578   -0.3594   -4.0736 C   0  0  0  0  0  0  0  0  0  0  0  0
   -3.4194   -0.4414   -4.5587 H   0  0  0  0  0  0  0  0  0  0  0  0
   -2.3728    0.1302   -2.7582 C   0  0  0  0  0  0  0  0  0  0  0  0
   -3.2725    0.4227   -2.2325 H   0  0  0  0  0  0  0  0  0  0  0  0
   -0.6196    0.1253    1.7539 C   0  0  0  0  0  0  0  0  0  0  0  0
   -0.5037    1.3367    1.9448 O   0  0  0  0  0  0  0  0  0  0  0  0
   -0.4640   -0.7733    2.7344 N   0  0  0  0  0  0  0  0  0  0  0  0
   -0.5192   -1.7498    2.4877 H   0  0  0  0  0  0  0  0  0  0  0  0
   -0.1416   -0.4330    4.1180 C   0  0  0  0  0  0  0  0  0  0  0  0
   -0.8463    0.3142    4.4888 H   0  0  0  0  0  0  0  0  0  0  0  0
   -0.1959   -1.3218    4.7473 H   0  0  0  0  0  0  0  0  0  0  0  0
    0.8663   -0.0166    4.1685 H   0  0  0  0  0  0  0  0  0  0  0  0
  5  6  2  0  0  0  0
  5  7  1  0  0  0  0
  2  3  1  0  0  0  0
  2  4  1  0  0  0  0
  2  5  1  0  0  0  0
  1  2  1  0  0  0  0
 25 26  2  0  0  0  0
 25 27  1  0  0  0  0
 23 24  1  0  0  0  0
 21 22  1  0  0  0  0
 21 23  2  0  0  0  0
 19 20  1  0  0  0  0
 19 21  1  0  0  0  0
 17 18  1  0  0  0  0
 17 19  2  0  0  0  0
 15 16  1  0  0  0  0
 15 17  1  0  0  0  0
 14 15  2  0  0  0  0
 14 23  1  0  0  0  0
 11 12  1  0  0  0  0
 11 13  1  0  0  0  0
 11 14  1  0  0  0  0
  9 10  1  0  0  0  0
  9 11  1  0  0  0  0
  9 25  1  0  0  0  0
  7  8  1  0  0  0  0
  7  9  1  0  0  0  0
 29 30  1  0  0  0  0
 29 31  1  0  0  0  0
 29 32  1  0  0  0  0
 27 28  1  0  0  0  0
 27 29  1  0  0  0  0
M  END
$$$$
default_name
  -OEChem-01062215323D

 32 32  0     1  0  0  0  0  0999 V2000
   -3.8405   -3.7518    1.6252 H   0  0  0  0  0  0  0  0  0  0  0  0
   -3.7965   -2.8768    0.9782 C   0  0  0  0  0  0  0  0  0  0  0  0
   -4.5465   -2.1527    1.2902 H   0  0  0  0  0  0  0  0  0  0  0  0
   -3.9745   -3.1748   -0.0538 H   0  0  0  0  0  0  0  0  0  0  0  0
   -2.4245   -2.2537    1.0882 C   0  0  0  0  0  0  0  0  0  0  0  0
   -1.5805   -2.7478    1.8242 O   0  0  0  0  0  0  0  0  0  0  0  0
   -2.2045   -1.1637    0.3562 N   0  0  0  0  0  0  0  0  0  0  0  0
   -2.9595   -0.7907   -0.2008 H   0  0  0  0  0  0  0  0  0  0  0  0
   -0.9485   -0.4087    0.3482 C   0  0  1  0  0  0  0  0  0  0  0  0
   -0.1408   -1.0795    0.0507 H   0  0  0  0  0  0  0  0  0  0  0  0
   -1.0432    0.7243   -0.6879 C   0  0  0  0  0  0  0  0  0  0  0  0
   -1.9343    1.3194   -0.4831 H   0  0  0  0  0  0  0  0  0  0  0  0
   -0.1784    1.3799   -0.5752 H   0  0  0  0  0  0  0  0  0  0  0  0
   -1.1209    0.2405   -2.1235 C   0  0  0  0  0  0  0  0  0  0  0  0
    0.0471   -0.1357   -2.8135 C   0  0  0  0  0  0  0  0  0  0  0  0
    1.0111   -0.0602   -2.3305 H   0  0  0  0  0  0  0  0  0  0  0  0
   -0.0374   -0.6226   -4.1310 C   0  0  0  0  0  0  0  0  0  0  0  0
    0.8609   -0.9085   -4.6600 H   0  0  0  0  0  0  0  0  0  0  0  0
   -1.2889   -0.7359   -4.7598 C   0  0  0  0  0  0  0  0  0  0  0  0
   -1.3535   -1.1078   -5.7728 H   0  0  0  0  0  0  0  0  0  0  0  0
   -2.4578   -0.3594   -4.0736 C   0  0  0  0  0  0  0  0  0  0  0  0
   -3.4194   -0.4414   -4.5587 H   0  0  0  0  0  0  0  0  0  0  0  0
   -2.3728    0.1302   -2.7582 C   0  0  0  0  0  0  0  0  0  0  0  0
   -3.2725    0.4227   -2.2325 H   0  0  0  0  0  0  0  0  0  0  0  0
   -0.6196    0.1253    1.7539 C   0  0  0  0  0  0  0  0  0  0  0  0
   -0.7723    1.3196    2.0142 O   0  0  0  0  0  0  0  0  0  0  0  0
   -0.1644   -0.7529    2.6565 N   0  0  0  0  0  0  0  0  0  0  0  0
   -0.0133   -1.7022    2.3513 H   0  0  0  0  0  0  0  0  0  0  0  0
    0.2014   -0.4073    4.0280 C   0  0  0  0  0  0  0  0  0  0  0  0
   -0.6194    0.1327    4.5047 H   0  0  0  0  0  0  0  0  0  0  0  0
    0.4174   -1.3104    4.5995 H   0  0  0  0  0  0  0  0  0  0  0  0
    1.0841    0.2351    4.0219 H   0  0  0  0  0  0  0  0  0  0  0  0
  5  6  2  0  0  0  0
  5  7  1  0  0  0  0
  2  3  1  0  0  0  0
  2  4  1  0  0  0  0
  2  5  1  0  0  0  0
  1  2  1  0  0  0  0
 25 26  2  0  0  0  0
 25 27  1  0  0  0  0
 23 24  1  0  0  0  0
 21 22  1  0  0  0  0
 21 23  2  0  0  0  0
 19 20  1  0  0  0  0
 19 21  1  0  0  0  0
 17 18  1  0  0  0  0
 17 19  2  0  0  0  0
 15 16  1  0  0  0  0
 15 17  1  0  0  0  0
 14 15  2  0  0  0  0
 14 23  1  0  0  0  0
 11 12  1  0  0  0  0
 11 13  1  0  0  0  0
 11 14  1  0  0  0  0
  9 10  1  0  0  0  0
  9 11  1  0  0  0  0
  9 25  1  0  0  0  0
  7  8  1  0  0  0  0
  7  9  1  0  0  0  0
 29 30  1  0  0  0  0
 29 31  1  0  0  0  0
 29 32  1  0  0  0  0
 27 28  1  0  0  0  0
 27 29  1  0  0  0  0
M  END
$$$$
default_name
  -OEChem-01062215323D

 32 32  0     1  0  0  0  0  0999 V2000
   -3.8405   -3.7518    1.6252 H   0  0  0  0  0  0  0  0  0  0  0  0
   -3.7965   -2.8768    0.9782 C   0  0  0  0  0  0  0  0  0  0  0  0
   -4.5465   -2.1527    1.2902 H   0  0  0  0  0  0  0  0  0  0  0  0
   -3.9745   -3.1748   -0.0538 H   0  0  0  0  0  0  0  0  0  0  0  0
   -2.4245   -2.2537    1.0882 C   0  0  0  0  0  0  0  0  0  0  0  0
   -1.5805   -2.7478    1.8242 O   0  0  0  0  0  0  0  0  0  0  0  0
   -2.2045   -1.1637    0.3562 N   0  0  0  0  0  0  0  0  0  0  0  0
   -2.9595   -0.7907   -0.2008 H   0  0  0  0  0  0  0  0  0  0  0  0
   -0.9485   -0.4087    0.3482 C   0  0  1  0  0  0  0  0  0  0  0  0
   -0.1408   -1.0795    0.0507 H   0  0  0  0  0  0  0  0  0  0  0  0
   -1.0432    0.7243   -0.6879 C   0  0  0  0  0  0  0  0  0  0  0  0
   -1.9343    1.3194   -0.4831 H   0  0  0  0  0  0  0  0  0  0  0  0
   -0.1784    1.3799   -0.5752 H   0  0  0  0  0  0  0  0  0  0  0  0
   -1.1209    0.2405   -2.1235 C   0  0  0  0  0  0  0  0  0  0  0  0
    0.0471   -0.1357   -2.8135 C   0  0  0  0  0  0  0  0  0  0  0  0
    1.0111   -0.0602   -2.3305 H   0  0  0  0  0  0  0  0  0  0  0  0
   -0.0374   -0.6226   -4.1310 C   0  0  0  0  0  0  0  0  0  0  0  0
    0.8609   -0.9085   -4.6600 H   0  0  0  0  0  0  0  0  0  0  0  0
   -1.2889   -0.7359   -4.7598 C   0  0  0  0  0  0  0  0  0  0  0  0
   -1.3535   -1.1078   -5.7728 H   0  0  0  0  0  0  0  0  0  0  0  0
   -2.4578   -0.3594   -4.0736 C   0  0  0  0  0  0  0  0  0  0  0  0
   -3.4194   -0.4414   -4.5587 H   0  0  0  0  0  0  0  0  0  0  0  0
   -2.3728    0.1302   -2.7582 C   0  0  0  0  0  0  0  0  0  0  0  0
   -3.2725    0.4227   -2.2325 H   0  0  0  0  0  0  0  0  0  0  0  0
   -0.6196    0.1253    1.7539 C   0  0  0  0  0  0  0  0  0  0  0  0
   -1.0215    1.2357    2.1043 O   0  0  0  0  0  0  0  0  0  0  0  0
    0.1132   -0.6580    2.5555 N   0  0  0  0  0  0  0  0  0  0  0  0
    0.4520   -1.5292    2.1767 H   0  0  0  0  0  0  0  0  0  0  0  0
    0.5186   -0.2964    3.9117 C   0  0  0  0  0  0  0  0  0  0  0  0
   -0.3558    0.0101    4.4896 H   0  0  0  0  0  0  0  0  0  0  0  0
    0.9938   -1.1463    4.4023 H   0  0  0  0  0  0  0  0  0  0  0  0
    1.2217    0.5379    3.8747 H   0  0  0  0  0  0  0  0  0  0  0  0
  5  6  2  0  0  0  0
  5  7  1  0  0  0  0
  2  3  1  0  0  0  0
  2  4  1  0  0  0  0
  2  5  1  0  0  0  0
  1  2  1  0  0  0  0
 25 26  2  0  0  0  0
 25 27  1  0  0  0  0
 23 24  1  0  0  0  0
 21 22  1  0  0  0  0
 21 23  2  0  0  0  0
 19 20  1  0  0  0  0
 19 21  1  0  0  0  0
 17 18  1  0  0  0  0
 17 19  2  0  0  0  0
 15 16  1  0  0  0  0
 15 17  1  0  0  0  0
 14 15  2  0  0  0  0
 14 23  1  0  0  0  0
 11 12  1  0  0  0  0
 11 13  1  0  0  0  0
 11 14  1  0  0  0  0
  9 10  1  0  0  0  0
  9 11  1  0  0  0  0
  9 25  1  0  0  0  0
  7  8  1  0  0  0  0
  7  9  1  0  0  0  0
 29 30  1  0  0  0  0
 29 31  1  0  0  0  0
 29 32  1  0  0  0  0
 27 28  1  0  0  0  0
 27 29  1  0  0  0  0
M  END
$$$$
default_name
  -OEChem-01062215323D

 32 32  0     1  0  0  0  0  0999 V2000
   -3.8405   -3.7518    1.6252 H   0  0  0  0  0  0  0  0  0  0  0  0
   -3.7965   -2.8768    0.9782 C   0  0  0  0  0  0  0  0  0  0  0  0
   -4.5465   -2.1527    1.2902 H   0  0  0  0  0  0  0  0  0  0  0  0
   -3.9745   -3.1748   -0.0538 H   0  0  0  0  0  0  0  0  0  0  0  0
   -2.4245   -2.2537    1.0882 C   0  0  0  0  0  0  0  0  0  0  0  0
   -1.5805   -2.7478    1.8242 O   0  0  0  0  0  0  0  0  0  0  0  0
   -2.2045   -1.1637    0.3562 N   0  0  0  0  0  0  0  0  0  0  0  0
   -2.9595   -0.7907   -0.2008 H   0  0  0  0  0  0  0  0  0  0  0  0
   -0.9485   -0.4087    0.3482 C   0  0  1  0  0  0  0  0  0  0  0  0
   -0.1408   -1.0795    0.0507 H   0  0  0  0  0  0  0  0  0  0  0  0
   -1.0432    0.7243   -0.6879 C   0  0  0  0  0  0  0  0  0  0  0  0
   -1.9343    1.3194   -0.4831 H   0  0  0  0  0  0  0  0  0  0  0  0
   -0.1784    1.3799   -0.5752 H   0  0  0  0  0  0  0  0  0  0  0  0
   -1.1209    0.2405   -2.1235 C   0  0  0  0  0  0  0  0  0  0  0  0
    0.0471   -0.1357   -2.8135 C   0  0  0  0  0  0  0  0  0  0  0  0
    1.0111   -0.0602   -2.3305 H   0  0  0  0  0  0  0  0  0  0  0  0
   -0.0374   -0.6226   -4.1310 C   0  0  0  0  0  0  0  0  0  0  0  0
    0.8609   -0.9085   -4.6600 H   0  0  0  0  0  0  0  0  0  0  0  0
   -1.2889   -0.7359   -4.7598 C   0  0  0  0  0  0  0  0  0  0  0  0
   -1.3535   -1.1078   -5.7728 H   0  0  0  0  0  0  0  0  0  0  0  0
   -2.4578   -0.3594   -4.0736 C   0  0  0  0  0  0  0  0  0  0  0  0
   -3.4194   -0.4414   -4.5587 H   0  0  0  0  0  0  0  0  0  0  0  0
   -2.3728    0.1302   -2.7582 C   0  0  0  0  0  0  0  0  0  0  0  0
   -3.2725    0.4227   -2.2325 H   0  0  0  0  0  0  0  0  0  0  0  0
   -0.6196    0.1253    1.7539 C   0  0  0  0  0  0  0  0  0  0  0  0
   -1.2343    1.0909    2.2091 O   0  0  0  0  0  0  0  0  0  0  0  0
    0.3498   -0.4951    2.4383 N   0  0  0  0  0  0  0  0  0  0  0  0
    0.8448   -1.2425    1.9758 H   0  0  0  0  0  0  0  0  0  0  0  0
    0.7883   -0.1079    3.7769 C   0  0  0  0  0  0  0  0  0  0  0  0
   -0.0736   -0.0452    4.4446 H   0  0  0  0  0  0  0  0  0  0  0  0
    1.4941   -0.8407    4.1691 H   0  0  0  0  0  0  0  0  0  0  0  0
    1.2699    0.8710    3.7368 H   0  0  0  0  0  0  0  0  0  0  0  0
  5  6  2  0  0  0  0
  5  7  1  0  0  0  0
  2  3  1  0  0  0  0
  2  4  1  0  0  0  0
  2  5  1  0  0  0  0
  1  2  1  0  0  0  0
 25 26  2  0  0  0  0
 25 27  1  0  0  0  0
 23 24  1  0  0  0  0
 21 22  1  0  0  0  0
 21 23  2  0  0  0  0
 19 20  1  0  0  0  0
 19 21  1  0  0  0  0
 17 18  1  0  0  0  0
 17 19  2  0  0  0  0
 15 16  1  0  0  0  0
 15 17  1  0  0  0  0
 14 15  2  0  0  0  0
 14 23  1  0  0  0  0
 11 12  1  0  0  0  0
 11 13  1  0  0  0  0
 11 14  1  0  0  0  0
  9 10  1  0  0  0  0
  9 11  1  0  0  0  0
  9 25  1  0  0  0  0
  7  8  1  0  0  0  0
  7  9  1  0  0  0  0
 29 30  1  0  0  0  0
 29 31  1  0  0  0  0
 29 32  1  0  0  0  0
 27 28  1  0  0  0  0
 27 29  1  0  0  0  0
M  END
$$$$
default_name
  -OEChem-01062215323D

 32 32  0     1  0  0  0  0  0999 V2000
   -3.8405   -3.7518    1.6252 H   0  0  0  0  0  0  0  0  0  0  0  0
   -3.7965   -2.8768    0.9782 C   0  0  0  0  0  0  0  0  0  0  0  0
   -4.5465   -2.1527    1.2902 H   0  0  0  0  0  0  0  0  0  0  0  0
   -3.9745   -3.1748   -0.0538 H   0  0  0  0  0  0  0  0  0  0  0  0
   -2.4245   -2.2537    1.0882 C   0  0  0  0  0  0  0  0  0  0  0  0
   -1.5805   -2.7478    1.8242 O   0  0  0  0  0  0  0  0  0  0  0  0
   -2.2045   -1.1637    0.3562 N   0  0  0  0  0  0  0  0  0  0  0  0
   -2.9595   -0.7907   -0.2008 H   0  0  0  0  0  0  0  0  0  0  0  0
   -0.9485   -0.4087    0.3482 C   0  0  1  0  0  0  0  0  0  0  0  0
   -0.1408   -1.0795    0.0507 H   0  0  0  0  0  0  0  0  0  0  0  0
   -1.0432    0.7243   -0.6879 C   0  0  0  0  0  0  0  0  0  0  0  0
   -1.9343    1.3194   -0.4831 H   0  0  0  0  0  0  0  0  0  0  0  0
   -0.1784    1.3799   -0.5752 H   0  0  0  0  0  0  0  0  0  0  0  0
   -1.1209    0.2405   -2.1235 C   0  0  0  0  0  0  0  0  0  0  0  0
    0.0471   -0.1357   -2.8135 C   0  0  0  0  0  0  0  0  0  0  0  0
    1.0111   -0.0602   -2.3305 H   0  0  0  0  0  0  0  0  0  0  0  0
   -0.0374   -0.6226   -4.1310 C   0  0  0  0  0  0  0  0  0  0  0  0
    0.8609   -0.9085   -4.6600 H   0  0  0  0  0  0  0  0  0  0  0  0
   -1.2889   -0.7359   -4.7598 C   0  0  0  0  0  0  0  0  0  0  0  0
   -1.3535   -1.1078   -5.7728 H   0  0  0  0  0  0  0  0  0  0  0  0
   -2.4578   -0.3594   -4.0736 C   0  0  0  0  0  0  0  0  0  0  0  0
   -3.4194   -0.4414   -4.5587 H   0  0  0  0  0  0  0  0  0  0  0  0
   -2.3728    0.1302   -2.7582 C   0  0  0  0  0  0  0  0  0  0  0  0
   -3.2725    0.4227   -2.2325 H   0  0  0  0  0  0  0  0  0  0  0  0
   -0.6196    0.1253    1.7539 C   0  0  0  0  0  0  0  0  0  0  0  0
   -1.3962    0.8948    2.3215 O   0  0  0  0  0  0  0  0  0  0  0  0
    0.5294   -0.2754    2.3128 N   0  0  0  0  0  0  0  0  0  0  0  0
    1.1384   -0.8615    1.7624 H   0  0  0  0  0  0  0  0  0  0  0  0
    0.9922    0.1454    3.6330 C   0  0  0  0  0  0  0  0  0  0  0  0
    0.2080   -0.0294    4.3727 H   0  0  0  0  0  0  0  0  0  0  0  0
    1.8842   -0.4143    3.9158 H   0  0  0  0  0  0  0  0  0  0  0  0
    1.2253    1.2118    3.6178 H   0  0  0  0  0  0  0  0  0  0  0  0
  5  6  2  0  0  0  0
  5  7  1  0  0  0  0
  2  3  1  0  0  0  0
  2  4  1  0  0  0  0
  2  5  1  0  0  0  0
  1  2  1  0  0  0  0
 25 26  2  0  0  0  0
 25 27  1  0  0  0  0
 23 24  1  0  0  0  0
 21 22  1  0  0  0  0
 21 23  2  0  0  0  0
 19 20  1  0  0  0  0
 19 21  1  0  0  0  0
 17 18  1  0  0  0  0
 17 19  2  0  0  0  0
 15 16  1  0  0  0  0
 15 17  1  0  0  0  0
 14 15  2  0  0  0  0
 14 23  1  0  0  0  0
 11 12  1  0  0  0  0
 11 13  1  0  0  0  0
 11 14  1  0  0  0  0
  9 10  1  0  0  0  0
  9 11  1  0  0  0  0
  9 25  1  0  0  0  0
  7  8  1  0  0  0  0
  7  9  1  0  0  0  0
 29 30  1  0  0  0  0
 29 31  1  0  0  0  0
 29 32  1  0  0  0  0
 27 28  1  0  0  0  0
 27 29  1  0  0  0  0
M  END
$$$$
default_name
  -OEChem-01062215323D

 32 32  0     1  0  0  0  0  0999 V2000
   -3.8405   -3.7518    1.6252 H   0  0  0  0  0  0  0  0  0  0  0  0
   -3.7965   -2.8768    0.9782 C   0  0  0  0  0  0  0  0  0  0  0  0
   -4.5465   -2.1527    1.2902 H   0  0  0  0  0  0  0  0  0  0  0  0
   -3.9745   -3.1748   -0.0538 H   0  0  0  0  0  0  0  0  0  0  0  0
   -2.4245   -2.2537    1.0882 C   0  0  0  0  0  0  0  0  0  0  0  0
   -1.5805   -2.7478    1.8242 O   0  0  0  0  0  0  0  0  0  0  0  0
   -2.2045   -1.1637    0.3562 N   0  0  0  0  0  0  0  0  0  0  0  0
   -2.9595   -0.7907   -0.2008 H   0  0  0  0  0  0  0  0  0  0  0  0
   -0.9485   -0.4087    0.3482 C   0  0  1  0  0  0  0  0  0  0  0  0
   -0.1408   -1.0795    0.0507 H   0  0  0  0  0  0  0  0  0  0  0  0
   -1.0432    0.7243   -0.6879 C   0  0  0  0  0  0  0  0  0  0  0  0
   -1.9343    1.3194   -0.4831 H   0  0  0  0  0  0  0  0  0  0  0  0
   -0.1784    1.3799   -0.5752 H   0  0  0  0  0  0  0  0  0  0  0  0
   -1.1209    0.2405   -2.1235 C   0  0  0  0  0  0  0  0  0  0  0  0
    0.0471   -0.1357   -2.8135 C   0  0  0  0  0  0  0  0  0  0  0  0
    1.0111   -0.0602   -2.3305 H   0  0  0  0  0  0  0  0  0  0  0  0
   -0.0374   -0.6226   -4.1310 C   0  0  0  0  0  0  0  0  0  0  0  0
    0.8609   -0.9085   -4.6600 H   0  0  0  0  0  0  0  0  0  0  0  0
   -1.2889   -0.7359   -4.7598 C   0  0  0  0  0  0  0  0  0  0  0  0
   -1.3535   -1.1078   -5.7728 H   0  0  0  0  0  0  0  0  0  0  0  0
   -2.4578   -0.3594   -4.0736 C   0  0  0  0  0  0  0  0  0  0  0  0
   -3.4194   -0.4414   -4.5587 H   0  0  0  0  0  0  0  0  0  0  0  0
   -2.3728    0.1302   -2.7582 C   0  0  0  0  0  0  0  0  0  0  0  0
   -3.2725    0.4227   -2.2325 H   0  0  0  0  0  0  0  0  0  0  0  0
   -0.6196    0.1253    1.7539 C   0  0  0  0  0  0  0  0  0  0  0  0
   -1.4961    0.6610    2.4337 O   0  0  0  0  0  0  0  0  0  0  0  0
    0.6396   -0.0138    2.1876 N   0  0  0  0  0  0  0  0  0  0  0  0
    1.3128   -0.4124    1.5510 H   0  0  0  0  0  0  0  0  0  0  0  0
    1.1163    0.4462    3.4897 C   0  0  0  0  0  0  0  0  0  0  0  0
    0.4699    0.0564    4.2788 H   0  0  0  0  0  0  0  0  0  0  0  0
    2.1374    0.1038    3.6597 H   0  0  0  0  0  0  0  0  0  0  0  0
    1.0910    1.5370    3.5257 H   0  0  0  0  0  0  0  0  0  0  0  0
  5  6  2  0  0  0  0
  5  7  1  0  0  0  0
  2  3  1  0  0  0  0
  2  4  1  0  0  0  0
  2  5  1  0  0  0  0
  1  2  1  0  0  0  0
 25 26  2  0  0  0  0
 25 27  1  0  0  0  0
 23 24  1  0  0  0  0
 21 22  1  0  0  0  0
 21 23  2  0  0  0  0
 19 20  1  0  0  0  0
 19 21  1  0  0  0  0
 17 18  1  0  0  0  0
 17 19  2  0  0  0  0
 15 16  1  0  0  0  0
 15 17  1  0  0  0  0
 14 15  2  0  0  0  0
 14 23  1  0  0  0  0
 11 12  1  0  0  0  0
 11 13  1  0  0  0  0
 11 14  1  0  0  0  0
  9 10  1  0  0  0  0
  9 11  1  0  0  0  0
  9 25  1  0  0  0  0
  7  8  1  0  0  0  0
  7  9  1  0  0  0  0
 29 30  1  0  0  0  0
 29 31  1  0  0  0  0
 29 32  1  0  0  0  0
 27 28  1  0  0  0  0
 27 29  1  0  0  0  0
M  END
$$$$
default_name
  -OEChem-01062215323D

 32 32  0     1  0  0  0  0  0999 V2000
   -3.8405   -3.7518    1.6252 H   0  0  0  0  0  0  0  0  0  0  0  0
   -3.7965   -2.8768    0.9782 C   0  0  0  0  0  0  0  0  0  0  0  0
   -4.5465   -2.1527    1.2902 H   0  0  0  0  0  0  0  0  0  0  0  0
   -3.9745   -3.1748   -0.0538 H   0  0  0  0  0  0  0  0  0  0  0  0
   -2.4245   -2.2537    1.0882 C   0  0  0  0  0  0  0  0  0  0  0  0
   -1.5805   -2.7478    1.8242 O   0  0  0  0  0  0  0  0  0  0  0  0
   -2.2045   -1.1637    0.3562 N   0  0  0  0  0  0  0  0  0  0  0  0
   -2.9595   -0.7907   -0.2008 H   0  0  0  0  0  0  0  0  0  0  0  0
   -0.9485   -0.4087    0.3482 C   0  0  1  0  0  0  0  0  0  0  0  0
   -0.1408   -1.0795    0.0507 H   0  0  0  0  0  0  0  0  0  0  0  0
   -1.0432    0.7243   -0.6879 C   0  0  0  0  0  0  0  0  0  0  0  0
   -1.9343    1.3194   -0.4831 H   0  0  0  0  0  0  0  0  0  0  0  0
   -0.1784    1.3799   -0.5752 H   0  0  0  0  0  0  0  0  0  0  0  0
   -1.1209    0.2405   -2.1235 C   0  0  0  0  0  0  0  0  0  0  0  0
    0.0471   -0.1357   -2.8135 C   0  0  0  0  0  0  0  0  0  0  0  0
    1.0111   -0.0602   -2.3305 H   0  0  0  0  0  0  0  0  0  0  0  0
   -0.0374   -0.6226   -4.1310 C   0  0  0  0  0  0  0  0  0  0  0  0
    0.8609   -0.9085   -4.6600 H   0  0  0  0  0  0  0  0  0  0  0  0
   -1.2889   -0.7359   -4.7598 C   0  0  0  0  0  0  0  0  0  0  0  0
   -1.3535   -1.1078   -5.7728 H   0  0  0  0  0  0  0  0  0  0  0  0
   -2.4578   -0.3594   -4.0736 C   0  0  0  0  0  0  0  0  0  0  0  0
   -3.4194   -0.4414   -4.5587 H   0  0  0  0  0  0  0  0  0  0  0  0
   -2.3728    0.1302   -2.7582 C   0  0  0  0  0  0  0  0  0  0  0  0
   -3.2725    0.4227   -2.2325 H   0  0  0  0  0  0  0  0  0  0  0  0
   -0.6196    0.1253    1.7539 C   0  0  0  0  0  0  0  0  0  0  0  0
   -1.5273    0.4053    2.5382 O   0  0  0  0  0  0  0  0  0  0  0  0
    0.6730    0.2719    2.0713 N   0  0  0  0  0  0  0  0  0  0  0  0
    1.3561    0.0744    1.3559 H   0  0  0  0  0  0  0  0  0  0  0  0
    1.1522    0.7740    3.3568 C   0  0  0  0  0  0  0  0  0  0  0  0
    0.6941    0.2063    4.1694 H   0  0  0  0  0  0  0  0  0  0  0  0
    2.2366    0.6783    3.4183 H   0  0  0  0  0  0  0  0  0  0  0  0
    0.8762    1.8245    3.4667 H   0  0  0  0  0  0  0  0  0  0  0  0
  5  6  2  0  0  0  0
  5  7  1  0  0  0  0
  2  3  1  0  0  0  0
  2  4  1  0  0  0  0
  2  5  1  0  0  0  0
  1  2  1  0  0  0  0
 25 26  2  0  0  0  0
 25 27  1  0  0  0  0
 23 24  1  0  0  0  0
 21 22  1  0  0  0  0
 21 23  2  0  0  0  0
 19 20  1  0  0  0  0
 19 21  1  0  0  0  0
 17 18  1  0  0  0  0
 17 19  2  0  0  0  0
 15 16  1  0  0  0  0
 15 17  1  0  0  0  0
 14 15  2  0  0  0  0
 14 23  1  0  0  0  0
 11 12  1  0  0  0  0
 11 13  1  0  0  0  0
 11 14  1  0  0  0  0
  9 10  1  0  0  0  0
  9 11  1  0  0  0  0
  9 25  1  0  0  0  0
  7  8  1  0  0  0  0
  7  9  1  0  0  0  0
 29 30  1  0  0  0  0
 29 31  1  0  0  0  0
 29 32  1  0  0  0  0
 27 28  1  0  0  0  0
 27 29  1  0  0  0  0
M  END
$$$$
default_name
  -OEChem-01062215323D

 32 32  0     1  0  0  0  0  0999 V2000
   -3.8405   -3.7518    1.6252 H   0  0  0  0  0  0  0  0  0  0  0  0
   -3.7965   -2.8768    0.9782 C   0  0  0  0  0  0  0  0  0  0  0  0
   -4.5465   -2.1527    1.2902 H   0  0  0  0  0  0  0  0  0  0  0  0
   -3.9745   -3.1748   -0.0538 H   0  0  0  0  0  0  0  0  0  0  0  0
   -2.4245   -2.2537    1.0882 C   0  0  0  0  0  0  0  0  0  0  0  0
   -1.5805   -2.7478    1.8242 O   0  0  0  0  0  0  0  0  0  0  0  0
   -2.2045   -1.1637    0.3562 N   0  0  0  0  0  0  0  0  0  0  0  0
   -2.9595   -0.7907   -0.2008 H   0  0  0  0  0  0  0  0  0  0  0  0
   -0.9485   -0.4087    0.3482 C   0  0  1  0  0  0  0  0  0  0  0  0
   -0.1408   -1.0795    0.0507 H   0  0  0  0  0  0  0  0  0  0  0  0
   -1.0432    0.7243   -0.6879 C   0  0  0  0  0  0  0  0  0  0  0  0
   -1.9343    1.3194   -0.4831 H   0  0  0  0  0  0  0  0  0  0  0  0
   -0.1784    1.3799   -0.5752 H   0  0  0  0  0  0  0  0  0  0  0  0
   -1.1209    0.2405   -2.1235 C   0  0  0  0  0  0  0  0  0  0  0  0
    0.0471   -0.1357   -2.8135 C   0  0  0  0  0  0  0  0  0  0  0  0
    1.0111   -0.0602   -2.3305 H   0  0  0  0  0  0  0  0  0  0  0  0
   -0.0374   -0.6226   -4.1310 C   0  0  0  0  0  0  0  0  0  0  0  0
    0.8609   -0.9085   -4.6600 H   0  0  0  0  0  0  0  0  0  0  0  0
   -1.2889   -0.7359   -4.7598 C   0  0  0  0  0  0  0  0  0  0  0  0
   -1.3535   -1.1078   -5.7728 H   0  0  0  0  0  0  0  0  0  0  0  0
   -2.4578   -0.3594   -4.0736 C   0  0  0  0  0  0  0  0  0  0  0  0
   -3.4194   -0.4414   -4.5587 H   0  0  0  0  0  0  0  0  0  0  0  0
   -2.3728    0.1302   -2.7582 C   0  0  0  0  0  0  0  0  0  0  0  0
   -3.2725    0.4227   -2.2325 H   0  0  0  0  0  0  0  0  0  0  0  0
   -0.6196    0.1253    1.7539 C   0  0  0  0  0  0  0  0  0  0  0  0
   -1.4876    0.1451    2.6277 O   0  0  0  0  0  0  0  0  0  0  0  0
    0.6273    0.5622    1.9717 N   0  0  0  0  0  0  0  0  0  0  0  0
    1.2654    0.5656    1.1905 H   0  0  0  0  0  0  0  0  0  0  0  0
    1.0975    1.1065    3.2432 C   0  0  0  0  0  0  0  0  0  0  0  0
    0.8653    0.4102    4.0519 H   0  0  0  0  0  0  0  0  0  0  0  0
    2.1750    1.2699    3.2079 H   0  0  0  0  0  0  0  0  0  0  0  0
    0.5954    2.0547    3.4450 H   0  0  0  0  0  0  0  0  0  0  0  0
  5  6  2  0  0  0  0
  5  7  1  0  0  0  0
  2  3  1  0  0  0  0
  2  4  1  0  0  0  0
  2  5  1  0  0  0  0
  1  2  1  0  0  0  0
 25 26  2  0  0  0  0
 25 27  1  0  0  0  0
 23 24  1  0  0  0  0
 21 22  1  0  0  0  0
 21 23  2  0  0  0  0
 19 20  1  0  0  0  0
 19 21  1  0  0  0  0
 17 18  1  0  0  0  0
 17 19  2  0  0  0  0
 15 16  1  0  0  0  0
 15 17  1  0  0  0  0
 14 15  2  0  0  0  0
 14 23  1  0  0  0  0
 11 12  1  0  0  0  0
 11 13  1  0  0  0  0
 11 14  1  0  0  0  0
  9 10  1  0  0  0  0
  9 11  1  0  0  0  0
  9 25  1  0  0  0  0
  7  8  1  0  0  0  0
  7  9  1  0  0  0  0
 29 30  1  0  0  0  0
 29 31  1  0  0  0  0
 29 32  1  0  0  0  0
 27 28  1  0  0  0  0
 27 29  1  0  0  0  0
M  END
$$$$
default_name
  -OEChem-01062215323D

 32 32  0     1  0  0  0  0  0999 V2000
   -3.8405   -3.7518    1.6252 H   0  0  0  0  0  0  0  0  0  0  0  0
   -3.7965   -2.8768    0.9782 C   0  0  0  0  0  0  0  0  0  0  0  0
   -4.5465   -2.1527    1.2902 H   0  0  0  0  0  0  0  0  0  0  0  0
   -3.9745   -3.1748   -0.0538 H   0  0  0  0  0  0  0  0  0  0  0  0
   -2.4245   -2.2537    1.0882 C   0  0  0  0  0  0  0  0  0  0  0  0
   -1.5805   -2.7478    1.8242 O   0  0  0  0  0  0  0  0  0  0  0  0
   -2.2045   -1.1637    0.3562 N   0  0  0  0  0  0  0  0  0  0  0  0
   -2.9595   -0.7907   -0.2008 H   0  0  0  0  0  0  0  0  0  0  0  0
   -0.9485   -0.4087    0.3482 C   0  0  1  0  0  0  0  0  0  0  0  0
   -0.1988   -0.9856   -0.1957 H   0  0  0  0  0  0  0  0  0  0  0  0
   -1.1617    0.9246   -0.3888 C   0  0  0  0  0  0  0  0  0  0  0  0
   -2.0076    1.4472    0.0600 H   0  0  0  0  0  0  0  0  0  0  0  0
   -0.2789    1.5506   -0.2500 H   0  0  0  0  0  0  0  0  0  0  0  0
   -1.4378    0.7704   -1.8723 C   0  0  0  0  0  0  0  0  0  0  0  0
   -0.3785    0.5726   -2.7782 C   0  0  0  0  0  0  0  0  0  0  0  0
    0.6423    0.5523   -2.4235 H   0  0  0  0  0  0  0  0  0  0  0  0
   -0.6457    0.3892   -4.1474 C   0  0  0  0  0  0  0  0  0  0  0  0
    0.1694    0.2401   -4.8417 H   0  0  0  0  0  0  0  0  0  0  0  0
   -1.9715    0.4012   -4.6129 C   0  0  0  0  0  0  0  0  0  0  0  0
   -2.1766    0.2626   -5.6652 H   0  0  0  0  0  0  0  0  0  0  0  0
   -3.0323    0.6000   -3.7105 C   0  0  0  0  0  0  0  0  0  0  0  0
   -4.0511    0.6147   -4.0689 H   0  0  0  0  0  0  0  0  0  0  0  0
   -2.7648    0.7866   -2.3427 C   0  0  0  0  0  0  0  0  0  0  0  0
   -3.5815    0.9429   -1.6500 H   0  0  0  0  0  0  0  0  0  0  0  0
   -0.4266   -0.1955    1.7805 C   0  0  0  0  0  0  0  0  0  0  0  0
   -1.0581   -0.6364    2.7419 O   0  0  0  0  0  0  0  0  0  0  0  0
    0.7191    0.4825    1.9251 N   0  0  0  0  0  0  0  0  0  0  0  0
    1.1480    0.8597    1.0938 H   0  0  0  0  0  0  0  0  0  0  0  0
    1.3428    0.7778    3.2127 C   0  0  0  0  0  0  0  0  0  0  0  0
    1.4498   -0.1421    3.7913 H   0  0  0  0  0  0  0  0  0  0  0  0
    2.3263    1.2238    3.0616 H   0  0  0  0  0  0  0  0  0  0  0  0
    0.7147    1.4718    3.7745 H   0  0  0  0  0  0  0  0  0  0  0  0
  5  6  2  0  0  0  0
  5  7  1  0  0  0  0
  2  3  1  0  0  0  0
  2  4  1  0  0  0  0
  2  5  1  0  0  0  0
  1  2  1  0  0  0  0
 25 26  2  0  0  0  0
 25 27  1  0  0  0  0
 23 24  1  0  0  0  0
 21 22  1  0  0  0  0
 21 23  2  0  0  0  0
 19 20  1  0  0  0  0
 19 21  1  0  0  0  0
 17 18  1  0  0  0  0
 17 19  2  0  0  0  0
 15 16  1  0  0  0  0
 15 17  1  0  0  0  0
 14 15  2  0  0  0  0
 14 23  1  0  0  0  0
 11 12  1  0  0  0  0
 11 13  1  0  0  0  0
 11 14  1  0  0  0  0
  9 10  1  0  0  0  0
  9 11  1  0  0  0  0
  9 25  1  0  0  0  0
  7  8  1  0  0  0  0
  7  9  1  0  0  0  0
 29 30  1  0  0  0  0
 29 31  1  0  0  0  0
 29 32  1  0  0  0  0
 27 28  1  0  0  0  0
 27 29  1  0  0  0  0
M  END
$$$$
default_name
  -OEChem-01062215323D

 32 32  0     1  0  0  0  0  0999 V2000
   -3.8405   -3.7518    1.6252 H   0  0  0  0  0  0  0  0  0  0  0  0
   -3.7965   -2.8768    0.9782 C   0  0  0  0  0  0  0  0  0  0  0  0
   -4.5465   -2.1527    1.2902 H   0  0  0  0  0  0  0  0  0  0  0  0
   -3.9745   -3.1748   -0.0538 H   0  0  0  0  0  0  0  0  0  0  0  0
   -2.4245   -2.2537    1.0882 C   0  0  0  0  0  0  0  0  0  0  0  0
   -1.5805   -2.7478    1.8242 O   0  0  0  0  0  0  0  0  0  0  0  0
   -2.2045   -1.1637    0.3562 N   0  0  0  0  0  0  0  0  0  0  0  0
   -2.9595   -0.7907   -0.2008 H   0  0  0  0  0  0  0  0  0  0  0  0
   -0.9485   -0.4087    0.3482 C   0  0  1  0  0  0  0  0  0  0  0  0
   -0.1988   -0.9856   -0.1957 H   0  0  0  0  0  0  0  0  0  0  0  0
   -1.1617    0.9246   -0.3888 C   0  0  0  0  0  0  0  0  0  0  0  0
   -2.0076    1.4472    0.0600 H   0  0  0  0  0  0  0  0  0  0  0  0
   -0.2789    1.5506   -0.2500 H   0  0  0  0  0  0  0  0  0  0  0  0
   -1.4378    0.7704   -1.8723 C   0  0  0  0  0  0  0  0  0  0  0  0
   -0.3785    0.5726   -2.7782 C   0  0  0  0  0  0  0  0  0  0  0  0
    0.6423    0.5523   -2.4235 H   0  0  0  0  0  0  0  0  0  0  0  0
   -0.6457    0.3892   -4.1474 C   0  0  0  0  0  0  0  0  0  0  0  0
    0.1694    0.2401   -4.8417 H   0  0  0  0  0  0  0  0  0  0  0  0
   -1.9715    0.4012   -4.6129 C   0  0  0  0  0  0  0  0  0  0  0  0
   -2.1766    0.2626   -5.6652 H   0  0  0  0  0  0  0  0  0  0  0  0
   -3.0323    0.6000   -3.7105 C   0  0  0  0  0  0  0  0  0  0  0  0
   -4.0511    0.6147   -4.0689 H   0  0  0  0  0  0  0  0  0  0  0  0
   -2.7648    0.7866   -2.3427 C   0  0  0  0  0  0  0  0  0  0  0  0
   -3.5815    0.9429   -1.6500 H   0  0  0  0  0  0  0  0  0  0  0  0
   -0.4266   -0.1955    1.7805 C   0  0  0  0  0  0  0  0  0  0  0  0
   -0.8888   -0.8549    2.7127 O   0  0  0  0  0  0  0  0  0  0  0  0
    0.5290    0.7255    1.9581 N   0  0  0  0  0  0  0  0  0  0  0  0
    0.8160    1.2634    1.1546 H   0  0  0  0  0  0  0  0  0  0  0  0
    1.1234    1.0549    3.2514 C   0  0  0  0  0  0  0  0  0  0  0  0
    1.4741    0.1434    3.7400 H   0  0  0  0  0  0  0  0  0  0  0  0
    1.9634    1.7370    3.1175 H   0  0  0  0  0  0  0  0  0  0  0  0
    0.3743    1.5265    3.8904 H   0  0  0  0  0  0  0  0  0  0  0  0
  5  6  2  0  0  0  0
  5  7  1  0  0  0  0
  2  3  1  0  0  0  0
  2  4  1  0  0  0  0
  2  5  1  0  0  0  0
  1  2  1  0  0  0  0
 25 26  2  0  0  0  0
 25 27  1  0  0  0  0
 23 24  1  0  0  0  0
 21 22  1  0  0  0  0
 21 23  2  0  0  0  0
 19 20  1  0  0  0  0
 19 21  1  0  0  0  0
 17 18  1  0  0  0  0
 17 19  2  0  0  0  0
 15 16  1  0  0  0  0
 15 17  1  0  0  0  0
 14 15  2  0  0  0  0
 14 23  1  0  0  0  0
 11 12  1  0  0  0  0
 11 13  1  0  0  0  0
 11 14  1  0  0  0  0
  9 10  1  0  0  0  0
  9 11  1  0  0  0  0
  9 25  1  0  0  0  0
  7  8  1  0  0  0  0
  7  9  1  0  0  0  0
 29 30  1  0  0  0  0
 29 31  1  0  0  0  0
 29 32  1  0  0  0  0
 27 28  1  0  0  0  0
 27 29  1  0  0  0  0
M  END
$$$$
default_name
  -OEChem-01062215323D

 32 32  0     1  0  0  0  0  0999 V2000
   -3.8405   -3.7518    1.6252 H   0  0  0  0  0  0  0  0  0  0  0  0
   -3.7965   -2.8768    0.9782 C   0  0  0  0  0  0  0  0  0  0  0  0
   -4.5465   -2.1527    1.2902 H   0  0  0  0  0  0  0  0  0  0  0  0
   -3.9745   -3.1748   -0.0538 H   0  0  0  0  0  0  0  0  0  0  0  0
   -2.4245   -2.2537    1.0882 C   0  0  0  0  0  0  0  0  0  0  0  0
   -1.5805   -2.7478    1.8242 O   0  0  0  0  0  0  0  0  0  0  0  0
   -2.2045   -1.1637    0.3562 N   0  0  0  0  0  0  0  0  0  0  0  0
   -2.9595   -0.7907   -0.2008 H   0  0  0  0  0  0  0  0  0  0  0  0
   -0.9485   -0.4087    0.3482 C   0  0  1  0  0  0  0  0  0  0  0  0
   -0.1988   -0.9856   -0.1957 H   0  0  0  0  0  0  0  0  0  0  0  0
   -1.1617    0.9246   -0.3888 C   0  0  0  0  0  0  0  0  0  0  0  0
   -2.0076    1.4472    0.0600 H   0  0  0  0  0  0  0  0  0  0  0  0
   -0.2789    1.5506   -0.2500 H   0  0  0  0  0  0  0  0  0  0  0  0
   -1.4378    0.7704   -1.8723 C   0  0  0  0  0  0  0  0  0  0  0  0
   -0.3785    0.5726   -2.7782 C   0  0  0  0  0  0  0  0  0  0  0  0
    0.6423    0.5523   -2.4235 H   0  0  0  0  0  0  0  0  0  0  0  0
   -0.6457    0.3892   -4.1474 C   0  0  0  0  0  0  0  0  0  0  0  0
    0.1694    0.2401   -4.8417 H   0  0  0  0  0  0  0  0  0  0  0  0
   -1.9715    0.4012   -4.6129 C   0  0  0  0  0  0  0  0  0  0  0  0
   -2.1766    0.2626   -5.6652 H   0  0  0  0  0  0  0  0  0  0  0  0
   -3.0323    0.6000   -3.7105 C   0  0  0  0  0  0  0  0  0  0  0  0
   -4.0511    0.6147   -4.0689 H   0  0  0  0  0  0  0  0  0  0  0  0
   -2.7648    0.7866   -2.3427 C   0  0  0  0  0  0  0  0  0  0  0  0
   -3.5815    0.9429   -1.6500 H   0  0  0  0  0  0  0  0  0  0  0  0
   -0.4266   -0.1955    1.7805 C   0  0  0  0  0  0  0  0  0  0  0  0
   -0.6737   -1.0226    2.6593 O   0  0  0  0  0  0  0  0  0  0  0  0
    0.2882    0.9116    2.0182 N   0  0  0  0  0  0  0  0  0  0  0  0
    0.4004    1.5681    1.2608 H   0  0  0  0  0  0  0  0  0  0  0  0
    0.8460    1.2662    3.3210 C   0  0  0  0  0  0  0  0  0  0  0  0
    1.4270    0.4295    3.7145 H   0  0  0  0  0  0  0  0  0  0  0  0
    1.4913    2.1403    3.2295 H   0  0  0  0  0  0  0  0  0  0  0  0
    0.0365    1.4872    4.0193 H   0  0  0  0  0  0  0  0  0  0  0  0
  5  6  2  0  0  0  0
  5  7  1  0  0  0  0
  2  3  1  0  0  0  0
  2  4  1  0  0  0  0
  2  5  1  0  0  0  0
  1  2  1  0  0  0  0
 25 26  2  0  0  0  0
 25 27  1  0  0  0  0
 23 24  1  0  0  0  0
 21 22  1  0  0  0  0
 21 23  2  0  0  0  0
 19 20  1  0  0  0  0
 19 21  1  0  0  0  0
 17 18  1  0  0  0  0
 17 19  2  0  0  0  0
 15 16  1  0  0  0  0
 15 17  1  0  0  0  0
 14 15  2  0  0  0  0
 14 23  1  0  0  0  0
 11 12  1  0  0  0  0
 11 13  1  0  0  0  0
 11 14  1  0  0  0  0
  9 10  1  0  0  0  0
  9 11  1  0  0  0  0
  9 25  1  0  0  0  0
  7  8  1  0  0  0  0
  7  9  1  0  0  0  0
 29 30  1  0  0  0  0
 29 31  1  0  0  0  0
 29 32  1  0  0  0  0
 27 28  1  0  0  0  0
 27 29  1  0  0  0  0
M  END
$$$$
default_name
  -OEChem-01062215323D

 32 32  0     1  0  0  0  0  0999 V2000
   -3.8405   -3.7518    1.6252 H   0  0  0  0  0  0  0  0  0  0  0  0
   -3.7965   -2.8768    0.9782 C   0  0  0  0  0  0  0  0  0  0  0  0
   -4.5465   -2.1527    1.2902 H   0  0  0  0  0  0  0  0  0  0  0  0
   -3.9745   -3.1748   -0.0538 H   0  0  0  0  0  0  0  0  0  0  0  0
   -2.4245   -2.2537    1.0882 C   0  0  0  0  0  0  0  0  0  0  0  0
   -1.5805   -2.7478    1.8242 O   0  0  0  0  0  0  0  0  0  0  0  0
   -2.2045   -1.1637    0.3562 N   0  0  0  0  0  0  0  0  0  0  0  0
   -2.9595   -0.7907   -0.2008 H   0  0  0  0  0  0  0  0  0  0  0  0
   -0.9485   -0.4087    0.3482 C   0  0  1  0  0  0  0  0  0  0  0  0
   -0.1988   -0.9856   -0.1957 H   0  0  0  0  0  0  0  0  0  0  0  0
   -1.1617    0.9246   -0.3888 C   0  0  0  0  0  0  0  0  0  0  0  0
   -2.0076    1.4472    0.0600 H   0  0  0  0  0  0  0  0  0  0  0  0
   -0.2789    1.5506   -0.2500 H   0  0  0  0  0  0  0  0  0  0  0  0
   -1.4378    0.7704   -1.8723 C   0  0  0  0  0  0  0  0  0  0  0  0
   -0.3785    0.5726   -2.7782 C   0  0  0  0  0  0  0  0  0  0  0  0
    0.6423    0.5523   -2.4235 H   0  0  0  0  0  0  0  0  0  0  0  0
   -0.6457    0.3892   -4.1474 C   0  0  0  0  0  0  0  0  0  0  0  0
    0.1694    0.2401   -4.8417 H   0  0  0  0  0  0  0  0  0  0  0  0
   -1.9715    0.4012   -4.6129 C   0  0  0  0  0  0  0  0  0  0  0  0
   -2.1766    0.2626   -5.6652 H   0  0  0  0  0  0  0  0  0  0  0  0
   -3.0323    0.6000   -3.7105 C   0  0  0  0  0  0  0  0  0  0  0  0
   -4.0511    0.6147   -4.0689 H   0  0  0  0  0  0  0  0  0  0  0  0
   -2.7648    0.7866   -2.3427 C   0  0  0  0  0  0  0  0  0  0  0  0
   -3.5815    0.9429   -1.6500 H   0  0  0  0  0  0  0  0  0  0  0  0
   -0.4266   -0.1955    1.7805 C   0  0  0  0  0  0  0  0  0  0  0  0
   -0.4274   -1.1282    2.5853 O   0  0  0  0  0  0  0  0  0  0  0  0
    0.0128    1.0281    2.1012 N   0  0  0  0  0  0  0  0  0  0  0  0
   -0.0707    1.7530    1.4049 H   0  0  0  0  0  0  0  0  0  0  0  0
    0.5297    1.3975    3.4167 C   0  0  0  0  0  0  0  0  0  0  0  0
    1.3117    0.6967    3.7168 H   0  0  0  0  0  0  0  0  0  0  0  0
    0.9422    2.4064    3.3899 H   0  0  0  0  0  0  0  0  0  0  0  0
   -0.2757    1.3566    4.1525 H   0  0  0  0  0  0  0  0  0  0  0  0
  5  6  2  0  0  0  0
  5  7  1  0  0  0  0
  2  3  1  0  0  0  0
  2  4  1  0  0  0  0
  2  5  1  0  0  0  0
  1  2  1  0  0  0  0
 25 26  2  0  0  0  0
 25 27  1  0  0  0  0
 23 24  1  0  0  0  0
 21 22  1  0  0  0  0
 21 23  2  0  0  0  0
 19 20  1  0  0  0  0
 19 21  1  0  0  0  0
 17 18  1  0  0  0  0
 17 19  2  0  0  0  0
 15 16  1  0  0  0  0
 15 17  1  0  0  0  0
 14 15  2  0  0  0  0
 14 23  1  0  0  0  0
 11 12  1  0  0  0  0
 11 13  1  0  0  0  0
 11 14  1  0  0  0  0
  9 10  1  0  0  0  0
  9 11  1  0  0  0  0
  9 25  1  0  0  0  0
  7  8  1  0  0  0  0
  7  9  1  0  0  0  0
 29 30  1  0  0  0  0
 29 31  1  0  0  0  0
 29 32  1  0  0  0  0
 27 28  1  0  0  0  0
 27 29  1  0  0  0  0
M  END
$$$$
default_name
  -OEChem-01062215323D

 32 32  0     1  0  0  0  0  0999 V2000
   -3.8405   -3.7518    1.6252 H   0  0  0  0  0  0  0  0  0  0  0  0
   -3.7965   -2.8768    0.9782 C   0  0  0  0  0  0  0  0  0  0  0  0
   -4.5465   -2.1527    1.2902 H   0  0  0  0  0  0  0  0  0  0  0  0
   -3.9745   -3.1748   -0.0538 H   0  0  0  0  0  0  0  0  0  0  0  0
   -2.4245   -2.2537    1.0882 C   0  0  0  0  0  0  0  0  0  0  0  0
   -1.5805   -2.7478    1.8242 O   0  0  0  0  0  0  0  0  0  0  0  0
   -2.2045   -1.1637    0.3562 N   0  0  0  0  0  0  0  0  0  0  0  0
   -2.9595   -0.7907   -0.2008 H   0  0  0  0  0  0  0  0  0  0  0  0
   -0.9485   -0.4087    0.3482 C   0  0  1  0  0  0  0  0  0  0  0  0
   -0.1988   -0.9856   -0.1957 H   0  0  0  0  0  0  0  0  0  0  0  0
   -1.1617    0.9246   -0.3888 C   0  0  0  0  0  0  0  0  0  0  0  0
   -2.0076    1.4472    0.0600 H   0  0  0  0  0  0  0  0  0  0  0  0
   -0.2789    1.5506   -0.2500 H   0  0  0  0  0  0  0  0  0  0  0  0
   -1.4378    0.7704   -1.8723 C   0  0  0  0  0  0  0  0  0  0  0  0
   -0.3785    0.5726   -2.7782 C   0  0  0  0  0  0  0  0  0  0  0  0
    0.6423    0.5523   -2.4235 H   0  0  0  0  0  0  0  0  0  0  0  0
   -0.6457    0.3892   -4.1474 C   0  0  0  0  0  0  0  0  0  0  0  0
    0.1694    0.2401   -4.8417 H   0  0  0  0  0  0  0  0  0  0  0  0
   -1.9715    0.4012   -4.6129 C   0  0  0  0  0  0  0  0  0  0  0  0
   -2.1766    0.2626   -5.6652 H   0  0  0  0  0  0  0  0  0  0  0  0
   -3.0323    0.6000   -3.7105 C   0  0  0  0  0  0  0  0  0  0  0  0
   -4.0511    0.6147   -4.0689 H   0  0  0  0  0  0  0  0  0  0  0  0
   -2.7648    0.7866   -2.3427 C   0  0  0  0  0  0  0  0  0  0  0  0
   -3.5815    0.9429   -1.6500 H   0  0  0  0  0  0  0  0  0  0  0  0
   -0.4266   -0.1955    1.7805 C   0  0  0  0  0  0  0  0  0  0  0  0
   -0.1668   -1.1643    2.4957 O   0  0  0  0  0  0  0  0  0  0  0  0
   -0.2782    1.0669    2.2015 N   0  0  0  0  0  0  0  0  0  0  0  0
   -0.5651    1.8054    1.5772 H   0  0  0  0  0  0  0  0  0  0  0  0
    0.1960    1.4397    3.5320 C   0  0  0  0  0  0  0  0  0  0  0  0
    1.1360    0.9269    3.7465 H   0  0  0  0  0  0  0  0  0  0  0  0
    0.3534    2.5171    3.5880 H   0  0  0  0  0  0  0  0  0  0  0  0
   -0.5411    1.1436    4.2809 H   0  0  0  0  0  0  0  0  0  0  0  0
  5  6  2  0  0  0  0
  5  7  1  0  0  0  0
  2  3  1  0  0  0  0
  2  4  1  0  0  0  0
  2  5  1  0  0  0  0
  1  2  1  0  0  0  0
 25 26  2  0  0  0  0
 25 27  1  0  0  0  0
 23 24  1  0  0  0  0
 21 22  1  0  0  0  0
 21 23  2  0  0  0  0
 19 20  1  0  0  0  0
 19 21  1  0  0  0  0
 17 18  1  0  0  0  0
 17 19  2  0  0  0  0
 15 16  1  0  0  0  0
 15 17  1  0  0  0  0
 14 15  2  0  0  0  0
 14 23  1  0  0  0  0
 11 12  1  0  0  0  0
 11 13  1  0  0  0  0
 11 14  1  0  0  0  0
  9 10  1  0  0  0  0
  9 11  1  0  0  0  0
  9 25  1  0  0  0  0
  7  8  1  0  0  0  0
  7  9  1  0  0  0  0
 29 30  1  0  0  0  0
 29 31  1  0  0  0  0
 29 32  1  0  0  0  0
 27 28  1  0  0  0  0
 27 29  1  0  0  0  0
M  END
$$$$
default_name
  -OEChem-01062215323D

 32 32  0     1  0  0  0  0  0999 V2000
   -3.8405   -3.7518    1.6252 H   0  0  0  0  0  0  0  0  0  0  0  0
   -3.7965   -2.8768    0.9782 C   0  0  0  0  0  0  0  0  0  0  0  0
   -4.5465   -2.1527    1.2902 H   0  0  0  0  0  0  0  0  0  0  0  0
   -3.9745   -3.1748   -0.0538 H   0  0  0  0  0  0  0  0  0  0  0  0
   -2.4245   -2.2537    1.0882 C   0  0  0  0  0  0  0  0  0  0  0  0
   -1.5805   -2.7478    1.8242 O   0  0  0  0  0  0  0  0  0  0  0  0
   -2.2045   -1.1637    0.3562 N   0  0  0  0  0  0  0  0  0  0  0  0
   -2.9595   -0.7907   -0.2008 H   0  0  0  0  0  0  0  0  0  0  0  0
   -0.9485   -0.4087    0.3482 C   0  0  1  0  0  0  0  0  0  0  0  0
   -0.1988   -0.9856   -0.1957 H   0  0  0  0  0  0  0  0  0  0  0  0
   -1.1617    0.9246   -0.3888 C   0  0  0  0  0  0  0  0  0  0  0  0
   -2.0076    1.4472    0.0600 H   0  0  0  0  0  0  0  0  0  0  0  0
   -0.2789    1.5506   -0.2500 H   0  0  0  0  0  0  0  0  0  0  0  0
   -1.4378    0.7704   -1.8723 C   0  0  0  0  0  0  0  0  0  0  0  0
   -0.3785    0.5726   -2.7782 C   0  0  0  0  0  0  0  0  0  0  0  0
    0.6423    0.5523   -2.4235 H   0  0  0  0  0  0  0  0  0  0  0  0
   -0.6457    0.3892   -4.1474 C   0  0  0  0  0  0  0  0  0  0  0  0
    0.1694    0.2401   -4.8417 H   0  0  0  0  0  0  0  0  0  0  0  0
   -1.9715    0.4012   -4.6129 C   0  0  0  0  0  0  0  0  0  0  0  0
   -2.1766    0.2626   -5.6652 H   0  0  0  0  0  0  0  0  0  0  0  0
   -3.0323    0.6000   -3.7105 C   0  0  0  0  0  0  0  0  0  0  0  0
   -4.0511    0.6147   -4.0689 H   0  0  0  0  0  0  0  0  0  0  0  0
   -2.7648    0.7866   -2.3427 C   0  0  0  0  0  0  0  0  0  0  0  0
   -3.5815    0.9429   -1.6500 H   0  0  0  0  0  0  0  0  0  0  0  0
   -0.4266   -0.1955    1.7805 C   0  0  0  0  0  0  0  0  0  0  0  0
    0.0905   -1.1285    2.3966 O   0  0  0  0  0  0  0  0  0  0  0  0
   -0.5651    1.0256    2.3121 N   0  0  0  0  0  0  0  0  0  0  0  0
   -1.0491    1.7219    1.7660 H   0  0  0  0  0  0  0  0  0  0  0  0
   -0.1323    1.3899    3.6591 C   0  0  0  0  0  0  0  0  0  0  0  0
    0.9120    1.1044    3.8017 H   0  0  0  0  0  0  0  0  0  0  0  0
   -0.2348    2.4649    3.8101 H   0  0  0  0  0  0  0  0  0  0  0  0
   -0.7415    0.8626    4.3958 H   0  0  0  0  0  0  0  0  0  0  0  0
  5  6  2  0  0  0  0
  5  7  1  0  0  0  0
  2  3  1  0  0  0  0
  2  4  1  0  0  0  0
  2  5  1  0  0  0  0
  1  2  1  0  0  0  0
 25 26  2  0  0  0  0
 25 27  1  0  0  0  0
 23 24  1  0  0  0  0
 21 22  1  0  0  0  0
 21 23  2  0  0  0  0
 19 20  1  0  0  0  0
 19 21  1  0  0  0  0
 17 18  1  0  0  0  0
 17 19  2  0  0  0  0
 15 16  1  0  0  0  0
 15 17  1  0  0  0  0
 14 15  2  0  0  0  0
 14 23  1  0  0  0  0
 11 12  1  0  0  0  0
 11 13  1  0  0  0  0
 11 14  1  0  0  0  0
  9 10  1  0  0  0  0
  9 11  1  0  0  0  0
  9 25  1  0  0  0  0
  7  8  1  0  0  0  0
  7  9  1  0  0  0  0
 29 30  1  0  0  0  0
 29 31  1  0  0  0  0
 29 32  1  0  0  0  0
 27 28  1  0  0  0  0
 27 29  1  0  0  0  0
M  END
$$$$
default_name
  -OEChem-01062215323D

 32 32  0     1  0  0  0  0  0999 V2000
   -3.8405   -3.7518    1.6252 H   0  0  0  0  0  0  0  0  0  0  0  0
   -3.7965   -2.8768    0.9782 C   0  0  0  0  0  0  0  0  0  0  0  0
   -4.5465   -2.1527    1.2902 H   0  0  0  0  0  0  0  0  0  0  0  0
   -3.9745   -3.1748   -0.0538 H   0  0  0  0  0  0  0  0  0  0  0  0
   -2.4245   -2.2537    1.0882 C   0  0  0  0  0  0  0  0  0  0  0  0
   -1.5805   -2.7478    1.8242 O   0  0  0  0  0  0  0  0  0  0  0  0
   -2.2045   -1.1637    0.3562 N   0  0  0  0  0  0  0  0  0  0  0  0
   -2.9595   -0.7907   -0.2008 H   0  0  0  0  0  0  0  0  0  0  0  0
   -0.9485   -0.4087    0.3482 C   0  0  1  0  0  0  0  0  0  0  0  0
   -0.1988   -0.9856   -0.1957 H   0  0  0  0  0  0  0  0  0  0  0  0
   -1.1617    0.9246   -0.3888 C   0  0  0  0  0  0  0  0  0  0  0  0
   -2.0076    1.4472    0.0600 H   0  0  0  0  0  0  0  0  0  0  0  0
   -0.2789    1.5506   -0.2500 H   0  0  0  0  0  0  0  0  0  0  0  0
   -1.4378    0.7704   -1.8723 C   0  0  0  0  0  0  0  0  0  0  0  0
   -0.3785    0.5726   -2.7782 C   0  0  0  0  0  0  0  0  0  0  0  0
    0.6423    0.5523   -2.4235 H   0  0  0  0  0  0  0  0  0  0  0  0
   -0.6457    0.3892   -4.1474 C   0  0  0  0  0  0  0  0  0  0  0  0
    0.1694    0.2401   -4.8417 H   0  0  0  0  0  0  0  0  0  0  0  0
   -1.9715    0.4012   -4.6129 C   0  0  0  0  0  0  0  0  0  0  0  0
   -2.1766    0.2626   -5.6652 H   0  0  0  0  0  0  0  0  0  0  0  0
   -3.0323    0.6000   -3.7105 C   0  0  0  0  0  0  0  0  0  0  0  0
   -4.0511    0.6147   -4.0689 H   0  0  0  0  0  0  0  0  0  0  0  0
   -2.7648    0.7866   -2.3427 C   0  0  0  0  0  0  0  0  0  0  0  0
   -3.5815    0.9429   -1.6500 H   0  0  0  0  0  0  0  0  0  0  0  0
   -0.4266   -0.1955    1.7805 C   0  0  0  0  0  0  0  0  0  0  0  0
    0.3268   -1.0234    2.2949 O   0  0  0  0  0  0  0  0  0  0  0  0
   -0.8283    0.9069    2.4257 N   0  0  0  0  0  0  0  0  0  0  0  0
   -1.4897    1.5081    1.9584 H   0  0  0  0  0  0  0  0  0  0  0  0
   -0.4330    1.2517    3.7892 C   0  0  0  0  0  0  0  0  0  0  0  0
    0.6548    1.2169    3.8787 H   0  0  0  0  0  0  0  0  0  0  0  0
   -0.7825    2.2533    4.0412 H   0  0  0  0  0  0  0  0  0  0  0  0
   -0.8632    0.5329    4.4892 H   0  0  0  0  0  0  0  0  0  0  0  0
  5  6  2  0  0  0  0
  5  7  1  0  0  0  0
  2  3  1  0  0  0  0
  2  4  1  0  0  0  0
  2  5  1  0  0  0  0
  1  2  1  0  0  0  0
 25 26  2  0  0  0  0
 25 27  1  0  0  0  0
 23 24  1  0  0  0  0
 21 22  1  0  0  0  0
 21 23  2  0  0  0  0
 19 20  1  0  0  0  0
 19 21  1  0  0  0  0
 17 18  1  0  0  0  0
 17 19  2  0  0  0  0
 15 16  1  0  0  0  0
 15 17  1  0  0  0  0
 14 15  2  0  0  0  0
 14 23  1  0  0  0  0
 11 12  1  0  0  0  0
 11 13  1  0  0  0  0
 11 14  1  0  0  0  0
  9 10  1  0  0  0  0
  9 11  1  0  0  0  0
  9 25  1  0  0  0  0
  7  8  1  0  0  0  0
  7  9  1  0  0  0  0
 29 30  1  0  0  0  0
 29 31  1  0  0  0  0
 29 32  1  0  0  0  0
 27 28  1  0  0  0  0
 27 29  1  0  0  0  0
M  END
$$$$
default_name
  -OEChem-01062215323D

 32 32  0     1  0  0  0  0  0999 V2000
   -3.8405   -3.7518    1.6252 H   0  0  0  0  0  0  0  0  0  0  0  0
   -3.7965   -2.8768    0.9782 C   0  0  0  0  0  0  0  0  0  0  0  0
   -4.5465   -2.1527    1.2902 H   0  0  0  0  0  0  0  0  0  0  0  0
   -3.9745   -3.1748   -0.0538 H   0  0  0  0  0  0  0  0  0  0  0  0
   -2.4245   -2.2537    1.0882 C   0  0  0  0  0  0  0  0  0  0  0  0
   -1.5805   -2.7478    1.8242 O   0  0  0  0  0  0  0  0  0  0  0  0
   -2.2045   -1.1637    0.3562 N   0  0  0  0  0  0  0  0  0  0  0  0
   -2.9595   -0.7907   -0.2008 H   0  0  0  0  0  0  0  0  0  0  0  0
   -0.9485   -0.4087    0.3482 C   0  0  1  0  0  0  0  0  0  0  0  0
   -0.1988   -0.9856   -0.1957 H   0  0  0  0  0  0  0  0  0  0  0  0
   -1.1617    0.9246   -0.3888 C   0  0  0  0  0  0  0  0  0  0  0  0
   -2.0076    1.4472    0.0600 H   0  0  0  0  0  0  0  0  0  0  0  0
   -0.2789    1.5506   -0.2500 H   0  0  0  0  0  0  0  0  0  0  0  0
   -1.4378    0.7704   -1.8723 C   0  0  0  0  0  0  0  0  0  0  0  0
   -0.3785    0.5726   -2.7782 C   0  0  0  0  0  0  0  0  0  0  0  0
    0.6423    0.5523   -2.4235 H   0  0  0  0  0  0  0  0  0  0  0  0
   -0.6457    0.3892   -4.1474 C   0  0  0  0  0  0  0  0  0  0  0  0
    0.1694    0.2401   -4.8417 H   0  0  0  0  0  0  0  0  0  0  0  0
   -1.9715    0.4012   -4.6129 C   0  0  0  0  0  0  0  0  0  0  0  0
   -2.1766    0.2626   -5.6652 H   0  0  0  0  0  0  0  0  0  0  0  0
   -3.0323    0.6000   -3.7105 C   0  0  0  0  0  0  0  0  0  0  0  0
   -4.0511    0.6147   -4.0689 H   0  0  0  0  0  0  0  0  0  0  0  0
   -2.7648    0.7866   -2.3427 C   0  0  0  0  0  0  0  0  0  0  0  0
   -3.5815    0.9429   -1.6500 H   0  0  0  0  0  0  0  0  0  0  0  0
   -0.4266   -0.1955    1.7805 C   0  0  0  0  0  0  0  0  0  0  0  0
    0.5261   -0.8559    2.1973 O   0  0  0  0  0  0  0  0  0  0  0  0
   -1.0499    0.7189    2.5344 N   0  0  0  0  0  0  0  0  0  0  0  0
   -1.8569    1.1786    2.1413 H   0  0  0  0  0  0  0  0  0  0  0  0
   -0.6854    1.0343    3.9135 C   0  0  0  0  0  0  0  0  0  0  0  0
    0.3821    1.2570    3.9721 H   0  0  0  0  0  0  0  0  0  0  0  0
   -1.2523    1.8967    4.2655 H   0  0  0  0  0  0  0  0  0  0  0  0
   -0.8981    0.1769    4.5549 H   0  0  0  0  0  0  0  0  0  0  0  0
  5  6  2  0  0  0  0
  5  7  1  0  0  0  0
  2  3  1  0  0  0  0
  2  4  1  0  0  0  0
  2  5  1  0  0  0  0
  1  2  1  0  0  0  0
 25 26  2  0  0  0  0
 25 27  1  0  0  0  0
 23 24  1  0  0  0  0
 21 22  1  0  0  0  0
 21 23  2  0  0  0  0
 19 20  1  0  0  0  0
 19 21  1  0  0  0  0
 17 18  1  0  0  0  0
 17 19  2  0  0  0  0
 15 16  1  0  0  0  0
 15 17  1  0  0  0  0
 14 15  2  0  0  0  0
 14 23  1  0  0  0  0
 11 12  1  0  0  0  0
 11 13  1  0  0  0  0
 11 14  1  0  0  0  0
  9 10  1  0  0  0  0
  9 11  1  0  0  0  0
  9 25  1  0  0  0  0
  7  8  1  0  0  0  0
  7  9  1  0  0  0  0
 29 30  1  0  0  0  0
 29 31  1  0  0  0  0
 29 32  1  0  0  0  0
 27 28  1  0  0  0  0
 27 29  1  0  0  0  0
M  END
$$$$
default_name
  -OEChem-01062215323D

 32 32  0     1  0  0  0  0  0999 V2000
   -3.8405   -3.7518    1.6252 H   0  0  0  0  0  0  0  0  0  0  0  0
   -3.7965   -2.8768    0.9782 C   0  0  0  0  0  0  0  0  0  0  0  0
   -4.5465   -2.1527    1.2902 H   0  0  0  0  0  0  0  0  0  0  0  0
   -3.9745   -3.1748   -0.0538 H   0  0  0  0  0  0  0  0  0  0  0  0
   -2.4245   -2.2537    1.0882 C   0  0  0  0  0  0  0  0  0  0  0  0
   -1.5805   -2.7478    1.8242 O   0  0  0  0  0  0  0  0  0  0  0  0
   -2.2045   -1.1637    0.3562 N   0  0  0  0  0  0  0  0  0  0  0  0
   -2.9595   -0.7907   -0.2008 H   0  0  0  0  0  0  0  0  0  0  0  0
   -0.9485   -0.4087    0.3482 C   0  0  1  0  0  0  0  0  0  0  0  0
   -0.1988   -0.9856   -0.1957 H   0  0  0  0  0  0  0  0  0  0  0  0
   -1.1617    0.9246   -0.3888 C   0  0  0  0  0  0  0  0  0  0  0  0
   -2.0076    1.4472    0.0600 H   0  0  0  0  0  0  0  0  0  0  0  0
   -0.2789    1.5506   -0.2500 H   0  0  0  0  0  0  0  0  0  0  0  0
   -1.4378    0.7704   -1.8723 C   0  0  0  0  0  0  0  0  0  0  0  0
   -0.3785    0.5726   -2.7782 C   0  0  0  0  0  0  0  0  0  0  0  0
    0.6423    0.5523   -2.4235 H   0  0  0  0  0  0  0  0  0  0  0  0
   -0.6457    0.3892   -4.1474 C   0  0  0  0  0  0  0  0  0  0  0  0
    0.1694    0.2401   -4.8417 H   0  0  0  0  0  0  0  0  0  0  0  0
   -1.9715    0.4012   -4.6129 C   0  0  0  0  0  0  0  0  0  0  0  0
   -2.1766    0.2626   -5.6652 H   0  0  0  0  0  0  0  0  0  0  0  0
   -3.0323    0.6000   -3.7105 C   0  0  0  0  0  0  0  0  0  0  0  0
   -4.0511    0.6147   -4.0689 H   0  0  0  0  0  0  0  0  0  0  0  0
   -2.7648    0.7866   -2.3427 C   0  0  0  0  0  0  0  0  0  0  0  0
   -3.5815    0.9429   -1.6500 H   0  0  0  0  0  0  0  0  0  0  0  0
   -0.4266   -0.1955    1.7805 C   0  0  0  0  0  0  0  0  0  0  0  0
    0.6748   -0.6377    2.1107 O   0  0  0  0  0  0  0  0  0  0  0  0
   -1.2147    0.4744    2.6309 N   0  0  0  0  0  0  0  0  0  0  0  0
   -2.1257    0.7559    2.3022 H   0  0  0  0  0  0  0  0  0  0  0  0
   -0.8724    0.7526    4.0236 C   0  0  0  0  0  0  0  0  0  0  0  0
    0.1124    1.2218    4.0756 H   0  0  0  0  0  0  0  0  0  0  0  0
   -1.6121    1.4194    4.4676 H   0  0  0  0  0  0  0  0  0  0  0  0
   -0.8437   -0.1812    4.5884 H   0  0  0  0  0  0  0  0  0  0  0  0
  5  6  2  0  0  0  0
  5  7  1  0  0  0  0
  2  3  1  0  0  0  0
  2  4  1  0  0  0  0
  2  5  1  0  0  0  0
  1  2  1  0  0  0  0
 25 26  2  0  0  0  0
 25 27  1  0  0  0  0
 23 24  1  0  0  0  0
 21 22  1  0  0  0  0
 21 23  2  0  0  0  0
 19 20  1  0  0  0  0
 19 21  1  0  0  0  0
 17 18  1  0  0  0  0
 17 19  2  0  0  0  0
 15 16  1  0  0  0  0
 15 17  1  0  0  0  0
 14 15  2  0  0  0  0
 14 23  1  0  0  0  0
 11 12  1  0  0  0  0
 11 13  1  0  0  0  0
 11 14  1  0  0  0  0
  9 10  1  0  0  0  0
  9 11  1  0  0  0  0
  9 25  1  0  0  0  0
  7  8  1  0  0  0  0
  7  9  1  0  0  0  0
 29 30  1  0  0  0  0
 29 31  1  0  0  0  0
 29 32  1  0  0  0  0
 27 28  1  0  0  0  0
 27 29  1  0  0  0  0
M  END
$$$$
default_name
  -OEChem-01062215323D

 32 32  0     1  0  0  0  0  0999 V2000
   -3.8405   -3.7518    1.6252 H   0  0  0  0  0  0  0  0  0  0  0  0
   -3.7965   -2.8768    0.9782 C   0  0  0  0  0  0  0  0  0  0  0  0
   -4.5465   -2.1527    1.2902 H   0  0  0  0  0  0  0  0  0  0  0  0
   -3.9745   -3.1748   -0.0538 H   0  0  0  0  0  0  0  0  0  0  0  0
   -2.4245   -2.2537    1.0882 C   0  0  0  0  0  0  0  0  0  0  0  0
   -1.5805   -2.7478    1.8242 O   0  0  0  0  0  0  0  0  0  0  0  0
   -2.2045   -1.1637    0.3562 N   0  0  0  0  0  0  0  0  0  0  0  0
   -2.9595   -0.7907   -0.2008 H   0  0  0  0  0  0  0  0  0  0  0  0
   -0.9485   -0.4087    0.3482 C   0  0  1  0  0  0  0  0  0  0  0  0
   -0.1988   -0.9856   -0.1957 H   0  0  0  0  0  0  0  0  0  0  0  0
   -1.1617    0.9246   -0.3888 C   0  0  0  0  0  0  0  0  0  0  0  0
   -2.0076    1.4472    0.0600 H   0  0  0  0  0  0  0  0  0  0  0  0
   -0.2789    1.5506   -0.2500 H   0  0  0  0  0  0  0  0  0  0  0  0
   -1.4378    0.7704   -1.8723 C   0  0  0  0  0  0  0  0  0  0  0  0
   -0.3785    0.5726   -2.7782 C   0  0  0  0  0  0  0  0  0  0  0  0
    0.6423    0.5523   -2.4235 H   0  0  0  0  0  0  0  0  0  0  0  0
   -0.6457    0.3892   -4.1474 C   0  0  0  0  0  0  0  0  0  0  0  0
    0.1694    0.2401   -4.8417 H   0  0  0  0  0  0  0  0  0  0  0  0
   -1.9715    0.4012   -4.6129 C   0  0  0  0  0  0  0  0  0  0  0  0
   -2.1766    0.2626   -5.6652 H   0  0  0  0  0  0  0  0  0  0  0  0
   -3.0323    0.6000   -3.7105 C   0  0  0  0  0  0  0  0  0  0  0  0
   -4.0511    0.6147   -4.0689 H   0  0  0  0  0  0  0  0  0  0  0  0
   -2.7648    0.7866   -2.3427 C   0  0  0  0  0  0  0  0  0  0  0  0
   -3.5815    0.9429   -1.6500 H   0  0  0  0  0  0  0  0  0  0  0  0
   -0.4266   -0.1955    1.7805 C   0  0  0  0  0  0  0  0  0  0  0  0
    0.7627   -0.3834    2.0408 O   0  0  0  0  0  0  0  0  0  0  0  0
   -1.3116    0.1900    2.7085 N   0  0  0  0  0  0  0  0  0  0  0  0
   -2.2778    0.2686    2.4301 H   0  0  0  0  0  0  0  0  0  0  0  0
   -0.9813    0.4259    4.1119 C   0  0  0  0  0  0  0  0  0  0  0  0
   -0.1360    1.1137    4.1822 H   0  0  0  0  0  0  0  0  0  0  0  0
   -1.8375    0.8540    4.6339 H   0  0  0  0  0  0  0  0  0  0  0  0
   -0.7037   -0.5169    4.5874 H   0  0  0  0  0  0  0  0  0  0  0  0
  5  6  2  0  0  0  0
  5  7  1  0  0  0  0
  2  3  1  0  0  0  0
  2  4  1  0  0  0  0
  2  5  1  0  0  0  0
  1  2  1  0  0  0  0
 25 26  2  0  0  0  0
 25 27  1  0  0  0  0
 23 24  1  0  0  0  0
 21 22  1  0  0  0  0
 21 23  2  0  0  0  0
 19 20  1  0  0  0  0
 19 21  1  0  0  0  0
 17 18  1  0  0  0  0
 17 19  2  0  0  0  0
 15 16  1  0  0  0  0
 15 17  1  0  0  0  0
 14 15  2  0  0  0  0
 14 23  1  0  0  0  0
 11 12  1  0  0  0  0
 11 13  1  0  0  0  0
 11 14  1  0  0  0  0
  9 10  1  0  0  0  0
  9 11  1  0  0  0  0
  9 25  1  0  0  0  0
  7  8  1  0  0  0  0
  7  9  1  0  0  0  0
 29 30  1  0  0  0  0
 29 31  1  0  0  0  0
 29 32  1  0  0  0  0
 27 28  1  0  0  0  0
 27 29  1  0  0  0  0
M  END
$$$$
default_name
  -OEChem-01062215323D

 32 32  0     1  0  0  0  0  0999 V2000
   -3.8405   -3.7518    1.6252 H   0  0  0  0  0  0  0  0  0  0  0  0
   -3.7965   -2.8768    0.9782 C   0  0  0  0  0  0  0  0  0  0  0  0
   -4.5465   -2.1527    1.2902 H   0  0  0  0  0  0  0  0  0  0  0  0
   -3.9745   -3.1748   -0.0538 H   0  0  0  0  0  0  0  0  0  0  0  0
   -2.4245   -2.2537    1.0882 C   0  0  0  0  0  0  0  0  0  0  0  0
   -1.5805   -2.7478    1.8242 O   0  0  0  0  0  0  0  0  0  0  0  0
   -2.2045   -1.1637    0.3562 N   0  0  0  0  0  0  0  0  0  0  0  0
   -2.9595   -0.7907   -0.2008 H   0  0  0  0  0  0  0  0  0  0  0  0
   -0.9485   -0.4087    0.3482 C   0  0  1  0  0  0  0  0  0  0  0  0
   -0.1988   -0.9856   -0.1957 H   0  0  0  0  0  0  0  0  0  0  0  0
   -1.1617    0.9246   -0.3888 C   0  0  0  0  0  0  0  0  0  0  0  0
   -2.0076    1.4472    0.0600 H   0  0  0  0  0  0  0  0  0  0  0  0
   -0.2789    1.5506   -0.2500 H   0  0  0  0  0  0  0  0  0  0  0  0
   -1.4378    0.7704   -1.8723 C   0  0  0  0  0  0  0  0  0  0  0  0
   -0.3785    0.5726   -2.7782 C   0  0  0  0  0  0  0  0  0  0  0  0
    0.6423    0.5523   -2.4235 H   0  0  0  0  0  0  0  0  0  0  0  0
   -0.6457    0.3892   -4.1474 C   0  0  0  0  0  0  0  0  0  0  0  0
    0.1694    0.2401   -4.8417 H   0  0  0  0  0  0  0  0  0  0  0  0
   -1.9715    0.4012   -4.6129 C   0  0  0  0  0  0  0  0  0  0  0  0
   -2.1766    0.2626   -5.6652 H   0  0  0  0  0  0  0  0  0  0  0  0
   -3.0323    0.6000   -3.7105 C   0  0  0  0  0  0  0  0  0  0  0  0
   -4.0511    0.6147   -4.0689 H   0  0  0  0  0  0  0  0  0  0  0  0
   -2.7648    0.7866   -2.3427 C   0  0  0  0  0  0  0  0  0  0  0  0
   -3.5815    0.9429   -1.6500 H   0  0  0  0  0  0  0  0  0  0  0  0
   -0.4266   -0.1955    1.7805 C   0  0  0  0  0  0  0  0  0  0  0  0
    0.7839   -0.1105    1.9924 O   0  0  0  0  0  0  0  0  0  0  0  0
   -1.3339   -0.1148    2.7620 N   0  0  0  0  0  0  0  0  0  0  0  0
   -2.3027   -0.2498    2.5164 H   0  0  0  0  0  0  0  0  0  0  0  0
   -1.0046    0.0763    4.1725 C   0  0  0  0  0  0  0  0  0  0  0  0
   -0.3461    0.9402    4.2846 H   0  0  0  0  0  0  0  0  0  0  0  0
   -1.9130    0.2390    4.7530 H   0  0  0  0  0  0  0  0  0  0  0  0
   -0.4877   -0.8073    4.5519 H   0  0  0  0  0  0  0  0  0  0  0  0
  5  6  2  0  0  0  0
  5  7  1  0  0  0  0
  2  3  1  0  0  0  0
  2  4  1  0  0  0  0
  2  5  1  0  0  0  0
  1  2  1  0  0  0  0
 25 26  2  0  0  0  0
 25 27  1  0  0  0  0
 23 24  1  0  0  0  0
 21 22  1  0  0  0  0
 21 23  2  0  0  0  0
 19 20  1  0  0  0  0
 19 21  1  0  0  0  0
 17 18  1  0  0  0  0
 17 19  2  0  0  0  0
 15 16  1  0  0  0  0
 15 17  1  0  0  0  0
 14 15  2  0  0  0  0
 14 23  1  0  0  0  0
 11 12  1  0  0  0  0
 11 13  1  0  0  0  0
 11 14  1  0  0  0  0
  9 10  1  0  0  0  0
  9 11  1  0  0  0  0
  9 25  1  0  0  0  0
  7  8  1  0  0  0  0
  7  9  1  0  0  0  0
 29 30  1  0  0  0  0
 29 31  1  0  0  0  0
 29 32  1  0  0  0  0
 27 28  1  0  0  0  0
 27 29  1  0  0  0  0
M  END
$$$$
default_name
  -OEChem-01062215323D

 32 32  0     1  0  0  0  0  0999 V2000
   -3.8405   -3.7518    1.6252 H   0  0  0  0  0  0  0  0  0  0  0  0
   -3.7965   -2.8768    0.9782 C   0  0  0  0  0  0  0  0  0  0  0  0
   -4.5465   -2.1527    1.2902 H   0  0  0  0  0  0  0  0  0  0  0  0
   -3.9745   -3.1748   -0.0538 H   0  0  0  0  0  0  0  0  0  0  0  0
   -2.4245   -2.2537    1.0882 C   0  0  0  0  0  0  0  0  0  0  0  0
   -1.5805   -2.7478    1.8242 O   0  0  0  0  0  0  0  0  0  0  0  0
   -2.2045   -1.1637    0.3562 N   0  0  0  0  0  0  0  0  0  0  0  0
   -2.9595   -0.7907   -0.2008 H   0  0  0  0  0  0  0  0  0  0  0  0
   -0.9485   -0.4087    0.3482 C   0  0  1  0  0  0  0  0  0  0  0  0
   -0.1988   -0.9856   -0.1957 H   0  0  0  0  0  0  0  0  0  0  0  0
   -1.1617    0.9246   -0.3888 C   0  0  0  0  0  0  0  0  0  0  0  0
   -2.0076    1.4472    0.0600 H   0  0  0  0  0  0  0  0  0  0  0  0
   -0.2789    1.5506   -0.2500 H   0  0  0  0  0  0  0  0  0  0  0  0
   -1.4378    0.7704   -1.8723 C   0  0  0  0  0  0  0  0  0  0  0  0
   -0.3785    0.5726   -2.7782 C   0  0  0  0  0  0  0  0  0  0  0  0
    0.6423    0.5523   -2.4235 H   0  0  0  0  0  0  0  0  0  0  0  0
   -0.6457    0.3892   -4.1474 C   0  0  0  0  0  0  0  0  0  0  0  0
    0.1694    0.2401   -4.8417 H   0  0  0  0  0  0  0  0  0  0  0  0
   -1.9715    0.4012   -4.6129 C   0  0  0  0  0  0  0  0  0  0  0  0
   -2.1766    0.2626   -5.6652 H   0  0  0  0  0  0  0  0  0  0  0  0
   -3.0323    0.6000   -3.7105 C   0  0  0  0  0  0  0  0  0  0  0  0
   -4.0511    0.6147   -4.0689 H   0  0  0  0  0  0  0  0  0  0  0  0
   -2.7648    0.7866   -2.3427 C   0  0  0  0  0  0  0  0  0  0  0  0
   -3.5815    0.9429   -1.6500 H   0  0  0  0  0  0  0  0  0  0  0  0
   -0.4266   -0.1955    1.7805 C   0  0  0  0  0  0  0  0  0  0  0  0
    0.7369    0.1625    1.9689 O   0  0  0  0  0  0  0  0  0  0  0  0
   -1.2801   -0.4193    2.7878 N   0  0  0  0  0  0  0  0  0  0  0  0
   -2.1989   -0.7642    2.5551 H   0  0  0  0  0  0  0  0  0  0  0  0
   -0.9407   -0.2723    4.2011 C   0  0  0  0  0  0  0  0  0  0  0  0
   -0.5035    0.7130    4.3758 H   0  0  0  0  0  0  0  0  0  0  0  0
   -1.8337   -0.3837    4.8168 H   0  0  0  0  0  0  0  0  0  0  0  0
   -0.2103   -1.0327    4.4844 H   0  0  0  0  0  0  0  0  0  0  0  0
  5  6  2  0  0  0  0
  5  7  1  0  0  0  0
  2  3  1  0  0  0  0
  2  4  1  0  0  0  0
  2  5  1  0  0  0  0
  1  2  1  0  0  0  0
 25 26  2  0  0  0  0
 25 27  1  0  0  0  0
 23 24  1  0  0  0  0
 21 22  1  0  0  0  0
 21 23  2  0  0  0  0
 19 20  1  0  0  0  0
 19 21  1  0  0  0  0
 17 18  1  0  0  0  0
 17 19  2  0  0  0  0
 15 16  1  0  0  0  0
 15 17  1  0  0  0  0
 14 15  2  0  0  0  0
 14 23  1  0  0  0  0
 11 12  1  0  0  0  0
 11 13  1  0  0  0  0
 11 14  1  0  0  0  0
  9 10  1  0  0  0  0
  9 11  1  0  0  0  0
  9 25  1  0  0  0  0
  7  8  1  0  0  0  0
  7  9  1  0  0  0  0
 29 30  1  0  0  0  0
 29 31  1  0  0  0  0
 29 32  1  0  0  0  0
 27 28  1  0  0  0  0
 27 29  1  0  0  0  0
M  END
$$$$
default_name
  -OEChem-01062215323D

 32 32  0     1  0  0  0  0  0999 V2000
   -3.8405   -3.7518    1.6252 H   0  0  0  0  0  0  0  0  0  0  0  0
   -3.7965   -2.8768    0.9782 C   0  0  0  0  0  0  0  0  0  0  0  0
   -4.5465   -2.1527    1.2902 H   0  0  0  0  0  0  0  0  0  0  0  0
   -3.9745   -3.1748   -0.0538 H   0  0  0  0  0  0  0  0  0  0  0  0
   -2.4245   -2.2537    1.0882 C   0  0  0  0  0  0  0  0  0  0  0  0
   -1.5805   -2.7478    1.8242 O   0  0  0  0  0  0  0  0  0  0  0  0
   -2.2045   -1.1637    0.3562 N   0  0  0  0  0  0  0  0  0  0  0  0
   -2.9595   -0.7907   -0.2008 H   0  0  0  0  0  0  0  0  0  0  0  0
   -0.9485   -0.4087    0.3482 C   0  0  1  0  0  0  0  0  0  0  0  0
   -0.1988   -0.9856   -0.1957 H   0  0  0  0  0  0  0  0  0  0  0  0
   -1.1617    0.9246   -0.3888 C   0  0  0  0  0  0  0  0  0  0  0  0
   -2.0076    1.4472    0.0600 H   0  0  0  0  0  0  0  0  0  0  0  0
   -0.2789    1.5506   -0.2500 H   0  0  0  0  0  0  0  0  0  0  0  0
   -1.4378    0.7704   -1.8723 C   0  0  0  0  0  0  0  0  0  0  0  0
   -0.3785    0.5726   -2.7782 C   0  0  0  0  0  0  0  0  0  0  0  0
    0.6423    0.5523   -2.4235 H   0  0  0  0  0  0  0  0  0  0  0  0
   -0.6457    0.3892   -4.1474 C   0  0  0  0  0  0  0  0  0  0  0  0
    0.1694    0.2401   -4.8417 H   0  0  0  0  0  0  0  0  0  0  0  0
   -1.9715    0.4012   -4.6129 C   0  0  0  0  0  0  0  0  0  0  0  0
   -2.1766    0.2626   -5.6652 H   0  0  0  0  0  0  0  0  0  0  0  0
   -3.0323    0.6000   -3.7105 C   0  0  0  0  0  0  0  0  0  0  0  0
   -4.0511    0.6147   -4.0689 H   0  0  0  0  0  0  0  0  0  0  0  0
   -2.7648    0.7866   -2.3427 C   0  0  0  0  0  0  0  0  0  0  0  0
   -3.5815    0.9429   -1.6500 H   0  0  0  0  0  0  0  0  0  0  0  0
   -0.4266   -0.1955    1.7805 C   0  0  0  0  0  0  0  0  0  0  0  0
    0.6250    0.4169    1.9718 O   0  0  0  0  0  0  0  0  0  0  0  0
   -1.1539   -0.7027    2.7840 N   0  0  0  0  0  0  0  0  0  0  0  0
   -1.9733   -1.2394    2.5436 H   0  0  0  0  0  0  0  0  0  0  0  0
   -0.7940   -0.5962    4.1958 C   0  0  0  0  0  0  0  0  0  0  0  0
   -0.5976    0.4476    4.4496 H   0  0  0  0  0  0  0  0  0  0  0  0
   -1.6047   -0.9716    4.8209 H   0  0  0  0  0  0  0  0  0  0  0  0
    0.1094   -1.1777    4.3894 H   0  0  0  0  0  0  0  0  0  0  0  0
  5  6  2  0  0  0  0
  5  7  1  0  0  0  0
  2  3  1  0  0  0  0
  2  4  1  0  0  0  0
  2  5  1  0  0  0  0
  1  2  1  0  0  0  0
 25 26  2  0  0  0  0
 25 27  1  0  0  0  0
 23 24  1  0  0  0  0
 21 22  1  0  0  0  0
 21 23  2  0  0  0  0
 19 20  1  0  0  0  0
 19 21  1  0  0  0  0
 17 18  1  0  0  0  0
 17 19  2  0  0  0  0
 15 16  1  0  0  0  0
 15 17  1  0  0  0  0
 14 15  2  0  0  0  0
 14 23  1  0  0  0  0
 11 12  1  0  0  0  0
 11 13  1  0  0  0  0
 11 14  1  0  0  0  0
  9 10  1  0  0  0  0
  9 11  1  0  0  0  0
  9 25  1  0  0  0  0
  7  8  1  0  0  0  0
  7  9  1  0  0  0  0
 29 30  1  0  0  0  0
 29 31  1  0  0  0  0
 29 32  1  0  0  0  0
 27 28  1  0  0  0  0
 27 29  1  0  0  0  0
M  END
$$$$
default_name
  -OEChem-01062215323D

 32 32  0     1  0  0  0  0  0999 V2000
   -3.8405   -3.7518    1.6252 H   0  0  0  0  0  0  0  0  0  0  0  0
   -3.7965   -2.8768    0.9782 C   0  0  0  0  0  0  0  0  0  0  0  0
   -4.5465   -2.1527    1.2902 H   0  0  0  0  0  0  0  0  0  0  0  0
   -3.9745   -3.1748   -0.0538 H   0  0  0  0  0  0  0  0  0  0  0  0
   -2.4245   -2.2537    1.0882 C   0  0  0  0  0  0  0  0  0  0  0  0
   -1.5805   -2.7478    1.8242 O   0  0  0  0  0  0  0  0  0  0  0  0
   -2.2045   -1.1637    0.3562 N   0  0  0  0  0  0  0  0  0  0  0  0
   -2.9595   -0.7907   -0.2008 H   0  0  0  0  0  0  0  0  0  0  0  0
   -0.9485   -0.4087    0.3482 C   0  0  1  0  0  0  0  0  0  0  0  0
   -0.1988   -0.9856   -0.1957 H   0  0  0  0  0  0  0  0  0  0  0  0
   -1.1617    0.9246   -0.3888 C   0  0  0  0  0  0  0  0  0  0  0  0
   -2.0076    1.4472    0.0600 H   0  0  0  0  0  0  0  0  0  0  0  0
   -0.2789    1.5506   -0.2500 H   0  0  0  0  0  0  0  0  0  0  0  0
   -1.4378    0.7704   -1.8723 C   0  0  0  0  0  0  0  0  0  0  0  0
   -0.3785    0.5726   -2.7782 C   0  0  0  0  0  0  0  0  0  0  0  0
    0.6423    0.5523   -2.4235 H   0  0  0  0  0  0  0  0  0  0  0  0
   -0.6457    0.3892   -4.1474 C   0  0  0  0  0  0  0  0  0  0  0  0
    0.1694    0.2401   -4.8417 H   0  0  0  0  0  0  0  0  0  0  0  0
   -1.9715    0.4012   -4.6129 C   0  0  0  0  0  0  0  0  0  0  0  0
   -2.1766    0.2626   -5.6652 H   0  0  0  0  0  0  0  0  0  0  0  0
   -3.0323    0.6000   -3.7105 C   0  0  0  0  0  0  0  0  0  0  0  0
   -4.0511    0.6147   -4.0689 H   0  0  0  0  0  0  0  0  0  0  0  0
   -2.7648    0.7866   -2.3427 C   0  0  0  0  0  0  0  0  0  0  0  0
   -3.5815    0.9429   -1.6500 H   0  0  0  0  0  0  0  0  0  0  0  0
   -0.4266   -0.1955    1.7805 C   0  0  0  0  0  0  0  0  0  0  0  0
    0.4557    0.6354    2.0010 O   0  0  0  0  0  0  0  0  0  0  0  0
   -0.9639   -0.9457    2.7509 N   0  0  0  0  0  0  0  0  0  0  0  0
   -1.6414   -1.6432    2.4828 H   0  0  0  0  0  0  0  0  0  0  0  0
   -0.5745   -0.8733    4.1571 C   0  0  0  0  0  0  0  0  0  0  0  0
   -0.6220    0.1621    4.5009 H   0  0  0  0  0  0  0  0  0  0  0  0
   -1.2419   -1.4848    4.7650 H   0  0  0  0  0  0  0  0  0  0  0  0
    0.4498   -1.2325    4.2735 H   0  0  0  0  0  0  0  0  0  0  0  0
  5  6  2  0  0  0  0
  5  7  1  0  0  0  0
  2  3  1  0  0  0  0
  2  4  1  0  0  0  0
  2  5  1  0  0  0  0
  1  2  1  0  0  0  0
 25 26  2  0  0  0  0
 25 27  1  0  0  0  0
 23 24  1  0  0  0  0
 21 22  1  0  0  0  0
 21 23  2  0  0  0  0
 19 20  1  0  0  0  0
 19 21  1  0  0  0  0
 17 18  1  0  0  0  0
 17 19  2  0  0  0  0
 15 16  1  0  0  0  0
 15 17  1  0  0  0  0
 14 15  2  0  0  0  0
 14 23  1  0  0  0  0
 11 12  1  0  0  0  0
 11 13  1  0  0  0  0
 11 14  1  0  0  0  0
  9 10  1  0  0  0  0
  9 11  1  0  0  0  0
  9 25  1  0  0  0  0
  7  8  1  0  0  0  0
  7  9  1  0  0  0  0
 29 30  1  0  0  0  0
 29 31  1  0  0  0  0
 29 32  1  0  0  0  0
 27 28  1  0  0  0  0
 27 29  1  0  0  0  0
M  END
$$$$
default_name
  -OEChem-01062215323D

 32 32  0     1  0  0  0  0  0999 V2000
   -3.8405   -3.7518    1.6252 H   0  0  0  0  0  0  0  0  0  0  0  0
   -3.7965   -2.8768    0.9782 C   0  0  0  0  0  0  0  0  0  0  0  0
   -4.5465   -2.1527    1.2902 H   0  0  0  0  0  0  0  0  0  0  0  0
   -3.9745   -3.1748   -0.0538 H   0  0  0  0  0  0  0  0  0  0  0  0
   -2.4245   -2.2537    1.0882 C   0  0  0  0  0  0  0  0  0  0  0  0
   -1.5805   -2.7478    1.8242 O   0  0  0  0  0  0  0  0  0  0  0  0
   -2.2045   -1.1637    0.3562 N   0  0  0  0  0  0  0  0  0  0  0  0
   -2.9595   -0.7907   -0.2008 H   0  0  0  0  0  0  0  0  0  0  0  0
   -0.9485   -0.4087    0.3482 C   0  0  1  0  0  0  0  0  0  0  0  0
   -0.1988   -0.9856   -0.1957 H   0  0  0  0  0  0  0  0  0  0  0  0
   -1.1617    0.9246   -0.3888 C   0  0  0  0  0  0  0  0  0  0  0  0
   -2.0076    1.4472    0.0600 H   0  0  0  0  0  0  0  0  0  0  0  0
   -0.2789    1.5506   -0.2500 H   0  0  0  0  0  0  0  0  0  0  0  0
   -1.4378    0.7704   -1.8723 C   0  0  0  0  0  0  0  0  0  0  0  0
   -0.3785    0.5726   -2.7782 C   0  0  0  0  0  0  0  0  0  0  0  0
    0.6423    0.5523   -2.4235 H   0  0  0  0  0  0  0  0  0  0  0  0
   -0.6457    0.3892   -4.1474 C   0  0  0  0  0  0  0  0  0  0  0  0
    0.1694    0.2401   -4.8417 H   0  0  0  0  0  0  0  0  0  0  0  0
   -1.9715    0.4012   -4.6129 C   0  0  0  0  0  0  0  0  0  0  0  0
   -2.1766    0.2626   -5.6652 H   0  0  0  0  0  0  0  0  0  0  0  0
   -3.0323    0.6000   -3.7105 C   0  0  0  0  0  0  0  0  0  0  0  0
   -4.0511    0.6147   -4.0689 H   0  0  0  0  0  0  0  0  0  0  0  0
   -2.7648    0.7866   -2.3427 C   0  0  0  0  0  0  0  0  0  0  0  0
   -3.5815    0.9429   -1.6500 H   0  0  0  0  0  0  0  0  0  0  0  0
   -0.4266   -0.1955    1.7805 C   0  0  0  0  0  0  0  0  0  0  0  0
    0.2406    0.8031    2.0544 O   0  0  0  0  0  0  0  0  0  0  0  0
   -0.7230   -1.1318    2.6908 N   0  0  0  0  0  0  0  0  0  0  0  0
   -1.2257   -1.9478    2.3766 H   0  0  0  0  0  0  0  0  0  0  0  0
   -0.2972   -1.0846    4.0875 C   0  0  0  0  0  0  0  0  0  0  0  0
   -0.5749   -0.1240    4.5264 H   0  0  0  0  0  0  0  0  0  0  0  0
   -0.7698   -1.8881    4.6530 H   0  0  0  0  0  0  0  0  0  0  0  0
    0.7876   -1.1932    4.1446 H   0  0  0  0  0  0  0  0  0  0  0  0
  5  6  2  0  0  0  0
  5  7  1  0  0  0  0
  2  3  1  0  0  0  0
  2  4  1  0  0  0  0
  2  5  1  0  0  0  0
  1  2  1  0  0  0  0
 25 26  2  0  0  0  0
 25 27  1  0  0  0  0
 23 24  1  0  0  0  0
 21 22  1  0  0  0  0
 21 23  2  0  0  0  0
 19 20  1  0  0  0  0
 19 21  1  0  0  0  0
 17 18  1  0  0  0  0
 17 19  2  0  0  0  0
 15 16  1  0  0  0  0
 15 17  1  0  0  0  0
 14 15  2  0  0  0  0
 14 23  1  0  0  0  0
 11 12  1  0  0  0  0
 11 13  1  0  0  0  0
 11 14  1  0  0  0  0
  9 10  1  0  0  0  0
  9 11  1  0  0  0  0
  9 25  1  0  0  0  0
  7  8  1  0  0  0  0
  7  9  1  0  0  0  0
 29 30  1  0  0  0  0
 29 31  1  0  0  0  0
 29 32  1  0  0  0  0
 27 28  1  0  0  0  0
 27 29  1  0  0  0  0
M  END
$$$$
default_name
  -OEChem-01062215323D

 32 32  0     1  0  0  0  0  0999 V2000
   -3.8405   -3.7518    1.6252 H   0  0  0  0  0  0  0  0  0  0  0  0
   -3.7965   -2.8768    0.9782 C   0  0  0  0  0  0  0  0  0  0  0  0
   -4.5465   -2.1527    1.2902 H   0  0  0  0  0  0  0  0  0  0  0  0
   -3.9745   -3.1748   -0.0538 H   0  0  0  0  0  0  0  0  0  0  0  0
   -2.4245   -2.2537    1.0882 C   0  0  0  0  0  0  0  0  0  0  0  0
   -1.5805   -2.7478    1.8242 O   0  0  0  0  0  0  0  0  0  0  0  0
   -2.2045   -1.1637    0.3562 N   0  0  0  0  0  0  0  0  0  0  0  0
   -2.9595   -0.7907   -0.2008 H   0  0  0  0  0  0  0  0  0  0  0  0
   -0.9485   -0.4087    0.3482 C   0  0  1  0  0  0  0  0  0  0  0  0
   -0.1988   -0.9856   -0.1957 H   0  0  0  0  0  0  0  0  0  0  0  0
   -1.1617    0.9246   -0.3888 C   0  0  0  0  0  0  0  0  0  0  0  0
   -2.0076    1.4472    0.0600 H   0  0  0  0  0  0  0  0  0  0  0  0
   -0.2789    1.5506   -0.2500 H   0  0  0  0  0  0  0  0  0  0  0  0
   -1.4378    0.7704   -1.8723 C   0  0  0  0  0  0  0  0  0  0  0  0
   -0.3785    0.5726   -2.7782 C   0  0  0  0  0  0  0  0  0  0  0  0
    0.6423    0.5523   -2.4235 H   0  0  0  0  0  0  0  0  0  0  0  0
   -0.6457    0.3892   -4.1474 C   0  0  0  0  0  0  0  0  0  0  0  0
    0.1694    0.2401   -4.8417 H   0  0  0  0  0  0  0  0  0  0  0  0
   -1.9715    0.4012   -4.6129 C   0  0  0  0  0  0  0  0  0  0  0  0
   -2.1766    0.2626   -5.6652 H   0  0  0  0  0  0  0  0  0  0  0  0
   -3.0323    0.6000   -3.7105 C   0  0  0  0  0  0  0  0  0  0  0  0
   -4.0511    0.6147   -4.0689 H   0  0  0  0  0  0  0  0  0  0  0  0
   -2.7648    0.7866   -2.3427 C   0  0  0  0  0  0  0  0  0  0  0  0
   -3.5815    0.9429   -1.6500 H   0  0  0  0  0  0  0  0  0  0  0  0
   -0.4266   -0.1955    1.7805 C   0  0  0  0  0  0  0  0  0  0  0  0
   -0.0057    0.9087    2.1284 O   0  0  0  0  0  0  0  0  0  0  0  0
   -0.4476   -1.2483    2.6078 N   0  0  0  0  0  0  0  0  0  0  0  0
   -0.7546   -2.1327    2.2325 H   0  0  0  0  0  0  0  0  0  0  0  0
    0.0191   -1.2158    3.9918 C   0  0  0  0  0  0  0  0  0  0  0  0
   -0.4596   -0.3912    4.5241 H   0  0  0  0  0  0  0  0  0  0  0  0
   -0.2206   -2.1542    4.4925 H   0  0  0  0  0  0  0  0  0  0  0  0
    1.0998   -1.0625    4.0114 H   0  0  0  0  0  0  0  0  0  0  0  0
  5  6  2  0  0  0  0
  5  7  1  0  0  0  0
  2  3  1  0  0  0  0
  2  4  1  0  0  0  0
  2  5  1  0  0  0  0
  1  2  1  0  0  0  0
 25 26  2  0  0  0  0
 25 27  1  0  0  0  0
 23 24  1  0  0  0  0
 21 22  1  0  0  0  0
 21 23  2  0  0  0  0
 19 20  1  0  0  0  0
 19 21  1  0  0  0  0
 17 18  1  0  0  0  0
 17 19  2  0  0  0  0
 15 16  1  0  0  0  0
 15 17  1  0  0  0  0
 14 15  2  0  0  0  0
 14 23  1  0  0  0  0
 11 12  1  0  0  0  0
 11 13  1  0  0  0  0
 11 14  1  0  0  0  0
  9 10  1  0  0  0  0
  9 11  1  0  0  0  0
  9 25  1  0  0  0  0
  7  8  1  0  0  0  0
  7  9  1  0  0  0  0
 29 30  1  0  0  0  0
 29 31  1  0  0  0  0
 29 32  1  0  0  0  0
 27 28  1  0  0  0  0
 27 29  1  0  0  0  0
M  END
$$$$
default_name
  -OEChem-01062215323D

 32 32  0     1  0  0  0  0  0999 V2000
   -3.8405   -3.7518    1.6252 H   0  0  0  0  0  0  0  0  0  0  0  0
   -3.7965   -2.8768    0.9782 C   0  0  0  0  0  0  0  0  0  0  0  0
   -4.5465   -2.1527    1.2902 H   0  0  0  0  0  0  0  0  0  0  0  0
   -3.9745   -3.1748   -0.0538 H   0  0  0  0  0  0  0  0  0  0  0  0
   -2.4245   -2.2537    1.0882 C   0  0  0  0  0  0  0  0  0  0  0  0
   -1.5805   -2.7478    1.8242 O   0  0  0  0  0  0  0  0  0  0  0  0
   -2.2045   -1.1637    0.3562 N   0  0  0  0  0  0  0  0  0  0  0  0
   -2.9595   -0.7907   -0.2008 H   0  0  0  0  0  0  0  0  0  0  0  0
   -0.9485   -0.4087    0.3482 C   0  0  1  0  0  0  0  0  0  0  0  0
   -0.1988   -0.9856   -0.1957 H   0  0  0  0  0  0  0  0  0  0  0  0
   -1.1617    0.9246   -0.3888 C   0  0  0  0  0  0  0  0  0  0  0  0
   -2.0076    1.4472    0.0600 H   0  0  0  0  0  0  0  0  0  0  0  0
   -0.2789    1.5506   -0.2500 H   0  0  0  0  0  0  0  0  0  0  0  0
   -1.4378    0.7704   -1.8723 C   0  0  0  0  0  0  0  0  0  0  0  0
   -0.3785    0.5726   -2.7782 C   0  0  0  0  0  0  0  0  0  0  0  0
    0.6423    0.5523   -2.4235 H   0  0  0  0  0  0  0  0  0  0  0  0
   -0.6457    0.3892   -4.1474 C   0  0  0  0  0  0  0  0  0  0  0  0
    0.1694    0.2401   -4.8417 H   0  0  0  0  0  0  0  0  0  0  0  0
   -1.9715    0.4012   -4.6129 C   0  0  0  0  0  0  0  0  0  0  0  0
   -2.1766    0.2626   -5.6652 H   0  0  0  0  0  0  0  0  0  0  0  0
   -3.0323    0.6000   -3.7105 C   0  0  0  0  0  0  0  0  0  0  0  0
   -4.0511    0.6147   -4.0689 H   0  0  0  0  0  0  0  0  0  0  0  0
   -2.7648    0.7866   -2.3427 C   0  0  0  0  0  0  0  0  0  0  0  0
   -3.5815    0.9429   -1.6500 H   0  0  0  0  0  0  0  0  0  0  0  0
   -0.4266   -0.1955    1.7805 C   0  0  0  0  0  0  0  0  0  0  0  0
   -0.2663    0.9448    2.2180 O   0  0  0  0  0  0  0  0  0  0  0  0
   -0.1566   -1.2872    2.5076 N   0  0  0  0  0  0  0  0  0  0  0  0
   -0.2602   -2.1852    2.0602 H   0  0  0  0  0  0  0  0  0  0  0  0
    0.3528   -1.2580    3.8765 C   0  0  0  0  0  0  0  0  0  0  0  0
   -0.2839   -0.6214    4.4944 H   0  0  0  0  0  0  0  0  0  0  0  0
    0.3681   -2.2649    4.2945 H   0  0  0  0  0  0  0  0  0  0  0  0
    1.3652   -0.8495    3.8830 H   0  0  0  0  0  0  0  0  0  0  0  0
  5  6  2  0  0  0  0
  5  7  1  0  0  0  0
  2  3  1  0  0  0  0
  2  4  1  0  0  0  0
  2  5  1  0  0  0  0
  1  2  1  0  0  0  0
 25 26  2  0  0  0  0
 25 27  1  0  0  0  0
 23 24  1  0  0  0  0
 21 22  1  0  0  0  0
 21 23  2  0  0  0  0
 19 20  1  0  0  0  0
 19 21  1  0  0  0  0
 17 18  1  0  0  0  0
 17 19  2  0  0  0  0
 15 16  1  0  0  0  0
 15 17  1  0  0  0  0
 14 15  2  0  0  0  0
 14 23  1  0  0  0  0
 11 12  1  0  0  0  0
 11 13  1  0  0  0  0
 11 14  1  0  0  0  0
  9 10  1  0  0  0  0
  9 11  1  0  0  0  0
  9 25  1  0  0  0  0
  7  8  1  0  0  0  0
  7  9  1  0  0  0  0
 29 30  1  0  0  0  0
 29 31  1  0  0  0  0
 29 32  1  0  0  0  0
 27 28  1  0  0  0  0
 27 29  1  0  0  0  0
M  END
$$$$
default_name
  -OEChem-01062215323D

 32 32  0     1  0  0  0  0  0999 V2000
   -3.8405   -3.7518    1.6252 H   0  0  0  0  0  0  0  0  0  0  0  0
   -3.7965   -2.8768    0.9782 C   0  0  0  0  0  0  0  0  0  0  0  0
   -4.5465   -2.1527    1.2902 H   0  0  0  0  0  0  0  0  0  0  0  0
   -3.9745   -3.1748   -0.0538 H   0  0  0  0  0  0  0  0  0  0  0  0
   -2.4245   -2.2537    1.0882 C   0  0  0  0  0  0  0  0  0  0  0  0
   -1.5805   -2.7478    1.8242 O   0  0  0  0  0  0  0  0  0  0  0  0
   -2.2045   -1.1637    0.3562 N   0  0  0  0  0  0  0  0  0  0  0  0
   -2.9595   -0.7907   -0.2008 H   0  0  0  0  0  0  0  0  0  0  0  0
   -0.9485   -0.4087    0.3482 C   0  0  1  0  0  0  0  0  0  0  0  0
   -0.1988   -0.9856   -0.1957 H   0  0  0  0  0  0  0  0  0  0  0  0
   -1.1617    0.9246   -0.3888 C   0  0  0  0  0  0  0  0  0  0  0  0
   -2.0076    1.4472    0.0600 H   0  0  0  0  0  0  0  0  0  0  0  0
   -0.2789    1.5506   -0.2500 H   0  0  0  0  0  0  0  0  0  0  0  0
   -1.4378    0.7704   -1.8723 C   0  0  0  0  0  0  0  0  0  0  0  0
   -0.3785    0.5726   -2.7782 C   0  0  0  0  0  0  0  0  0  0  0  0
    0.6423    0.5523   -2.4235 H   0  0  0  0  0  0  0  0  0  0  0  0
   -0.6457    0.3892   -4.1474 C   0  0  0  0  0  0  0  0  0  0  0  0
    0.1694    0.2401   -4.8417 H   0  0  0  0  0  0  0  0  0  0  0  0
   -1.9715    0.4012   -4.6129 C   0  0  0  0  0  0  0  0  0  0  0  0
   -2.1766    0.2626   -5.6652 H   0  0  0  0  0  0  0  0  0  0  0  0
   -3.0323    0.6000   -3.7105 C   0  0  0  0  0  0  0  0  0  0  0  0
   -4.0511    0.6147   -4.0689 H   0  0  0  0  0  0  0  0  0  0  0  0
   -2.7648    0.7866   -2.3427 C   0  0  0  0  0  0  0  0  0  0  0  0
   -3.5815    0.9429   -1.6500 H   0  0  0  0  0  0  0  0  0  0  0  0
   -0.4266   -0.1955    1.7805 C   0  0  0  0  0  0  0  0  0  0  0  0
   -0.5236    0.9090    2.3171 O   0  0  0  0  0  0  0  0  0  0  0  0
    0.1303   -1.2458    2.3969 N   0  0  0  0  0  0  0  0  0  0  0  0
    0.2238   -2.1016    1.8714 H   0  0  0  0  0  0  0  0  0  0  0  0
    0.6812   -1.2083    3.7494 C   0  0  0  0  0  0  0  0  0  0  0  0
   -0.0599   -0.7988    4.4392 H   0  0  0  0  0  0  0  0  0  0  0  0
    0.9564   -2.2127    4.0723 H   0  0  0  0  0  0  0  0  0  0  0  0
    1.5656   -0.5685    3.7681 H   0  0  0  0  0  0  0  0  0  0  0  0
  5  6  2  0  0  0  0
  5  7  1  0  0  0  0
  2  3  1  0  0  0  0
  2  4  1  0  0  0  0
  2  5  1  0  0  0  0
  1  2  1  0  0  0  0
 25 26  2  0  0  0  0
 25 27  1  0  0  0  0
 23 24  1  0  0  0  0
 21 22  1  0  0  0  0
 21 23  2  0  0  0  0
 19 20  1  0  0  0  0
 19 21  1  0  0  0  0
 17 18  1  0  0  0  0
 17 19  2  0  0  0  0
 15 16  1  0  0  0  0
 15 17  1  0  0  0  0
 14 15  2  0  0  0  0
 14 23  1  0  0  0  0
 11 12  1  0  0  0  0
 11 13  1  0  0  0  0
 11 14  1  0  0  0  0
  9 10  1  0  0  0  0
  9 11  1  0  0  0  0
  9 25  1  0  0  0  0
  7  8  1  0  0  0  0
  7  9  1  0  0  0  0
 29 30  1  0  0  0  0
 29 31  1  0  0  0  0
 29 32  1  0  0  0  0
 27 28  1  0  0  0  0
 27 29  1  0  0  0  0
M  END
$$$$
default_name
  -OEChem-01062215323D

 32 32  0     1  0  0  0  0  0999 V2000
   -3.8405   -3.7518    1.6252 H   0  0  0  0  0  0  0  0  0  0  0  0
   -3.7965   -2.8768    0.9782 C   0  0  0  0  0  0  0  0  0  0  0  0
   -4.5465   -2.1527    1.2902 H   0  0  0  0  0  0  0  0  0  0  0  0
   -3.9745   -3.1748   -0.0538 H   0  0  0  0  0  0  0  0  0  0  0  0
   -2.4245   -2.2537    1.0882 C   0  0  0  0  0  0  0  0  0  0  0  0
   -1.5805   -2.7478    1.8242 O   0  0  0  0  0  0  0  0  0  0  0  0
   -2.2045   -1.1637    0.3562 N   0  0  0  0  0  0  0  0  0  0  0  0
   -2.9595   -0.7907   -0.2008 H   0  0  0  0  0  0  0  0  0  0  0  0
   -0.9485   -0.4087    0.3482 C   0  0  1  0  0  0  0  0  0  0  0  0
   -0.1988   -0.9856   -0.1957 H   0  0  0  0  0  0  0  0  0  0  0  0
   -1.1617    0.9246   -0.3888 C   0  0  0  0  0  0  0  0  0  0  0  0
   -2.0076    1.4472    0.0600 H   0  0  0  0  0  0  0  0  0  0  0  0
   -0.2789    1.5506   -0.2500 H   0  0  0  0  0  0  0  0  0  0  0  0
   -1.4378    0.7704   -1.8723 C   0  0  0  0  0  0  0  0  0  0  0  0
   -0.3785    0.5726   -2.7782 C   0  0  0  0  0  0  0  0  0  0  0  0
    0.6423    0.5523   -2.4235 H   0  0  0  0  0  0  0  0  0  0  0  0
   -0.6457    0.3892   -4.1474 C   0  0  0  0  0  0  0  0  0  0  0  0
    0.1694    0.2401   -4.8417 H   0  0  0  0  0  0  0  0  0  0  0  0
   -1.9715    0.4012   -4.6129 C   0  0  0  0  0  0  0  0  0  0  0  0
   -2.1766    0.2626   -5.6652 H   0  0  0  0  0  0  0  0  0  0  0  0
   -3.0323    0.6000   -3.7105 C   0  0  0  0  0  0  0  0  0  0  0  0
   -4.0511    0.6147   -4.0689 H   0  0  0  0  0  0  0  0  0  0  0  0
   -2.7648    0.7866   -2.3427 C   0  0  0  0  0  0  0  0  0  0  0  0
   -3.5815    0.9429   -1.6500 H   0  0  0  0  0  0  0  0  0  0  0  0
   -0.4266   -0.1955    1.7805 C   0  0  0  0  0  0  0  0  0  0  0  0
   -0.7599    0.8039    2.4189 O   0  0  0  0  0  0  0  0  0  0  0  0
    0.3935   -1.1271    2.2833 N   0  0  0  0  0  0  0  0  0  0  0  0
    0.6644   -1.8879    1.6790 H   0  0  0  0  0  0  0  0  0  0  0  0
    0.9818   -1.0700    3.6193 C   0  0  0  0  0  0  0  0  0  0  0  0
    0.1973   -0.9114    4.3622 H   0  0  0  0  0  0  0  0  0  0  0  0
    1.5040   -2.0011    3.8413 H   0  0  0  0  0  0  0  0  0  0  0  0
    1.6873   -0.2388    3.6747 H   0  0  0  0  0  0  0  0  0  0  0  0
  5  6  2  0  0  0  0
  5  7  1  0  0  0  0
  2  3  1  0  0  0  0
  2  4  1  0  0  0  0
  2  5  1  0  0  0  0
  1  2  1  0  0  0  0
 25 26  2  0  0  0  0
 25 27  1  0  0  0  0
 23 24  1  0  0  0  0
 21 22  1  0  0  0  0
 21 23  2  0  0  0  0
 19 20  1  0  0  0  0
 19 21  1  0  0  0  0
 17 18  1  0  0  0  0
 17 19  2  0  0  0  0
 15 16  1  0  0  0  0
 15 17  1  0  0  0  0
 14 15  2  0  0  0  0
 14 23  1  0  0  0  0
 11 12  1  0  0  0  0
 11 13  1  0  0  0  0
 11 14  1  0  0  0  0
  9 10  1  0  0  0  0
  9 11  1  0  0  0  0
  9 25  1  0  0  0  0
  7  8  1  0  0  0  0
  7  9  1  0  0  0  0
 29 30  1  0  0  0  0
 29 31  1  0  0  0  0
 29 32  1  0  0  0  0
 27 28  1  0  0  0  0
 27 29  1  0  0  0  0
M  END
$$$$
default_name
  -OEChem-01062215323D

 32 32  0     1  0  0  0  0  0999 V2000
   -3.8405   -3.7518    1.6252 H   0  0  0  0  0  0  0  0  0  0  0  0
   -3.7965   -2.8768    0.9782 C   0  0  0  0  0  0  0  0  0  0  0  0
   -4.5465   -2.1527    1.2902 H   0  0  0  0  0  0  0  0  0  0  0  0
   -3.9745   -3.1748   -0.0538 H   0  0  0  0  0  0  0  0  0  0  0  0
   -2.4245   -2.2537    1.0882 C   0  0  0  0  0  0  0  0  0  0  0  0
   -1.5805   -2.7478    1.8242 O   0  0  0  0  0  0  0  0  0  0  0  0
   -2.2045   -1.1637    0.3562 N   0  0  0  0  0  0  0  0  0  0  0  0
   -2.9595   -0.7907   -0.2008 H   0  0  0  0  0  0  0  0  0  0  0  0
   -0.9485   -0.4087    0.3482 C   0  0  1  0  0  0  0  0  0  0  0  0
   -0.1988   -0.9856   -0.1957 H   0  0  0  0  0  0  0  0  0  0  0  0
   -1.1617    0.9246   -0.3888 C   0  0  0  0  0  0  0  0  0  0  0  0
   -2.0076    1.4472    0.0600 H   0  0  0  0  0  0  0  0  0  0  0  0
   -0.2789    1.5506   -0.2500 H   0  0  0  0  0  0  0  0  0  0  0  0
   -1.4378    0.7704   -1.8723 C   0  0  0  0  0  0  0  0  0  0  0  0
   -0.3785    0.5726   -2.7782 C   0  0  0  0  0  0  0  0  0  0  0  0
    0.6423    0.5523   -2.4235 H   0  0  0  0  0  0  0  0  0  0  0  0
   -0.6457    0.3892   -4.1474 C   0  0  0  0  0  0  0  0  0  0  0  0
    0.1694    0.2401   -4.8417 H   0  0  0  0  0  0  0  0  0  0  0  0
   -1.9715    0.4012   -4.6129 C   0  0  0  0  0  0  0  0  0  0  0  0
   -2.1766    0.2626   -5.6652 H   0  0  0  0  0  0  0  0  0  0  0  0
   -3.0323    0.6000   -3.7105 C   0  0  0  0  0  0  0  0  0  0  0  0
   -4.0511    0.6147   -4.0689 H   0  0  0  0  0  0  0  0  0  0  0  0
   -2.7648    0.7866   -2.3427 C   0  0  0  0  0  0  0  0  0  0  0  0
   -3.5815    0.9429   -1.6500 H   0  0  0  0  0  0  0  0  0  0  0  0
   -0.4266   -0.1955    1.7805 C   0  0  0  0  0  0  0  0  0  0  0  0
   -0.9592    0.6364    2.5164 O   0  0  0  0  0  0  0  0  0  0  0  0
    0.6150   -0.9391    2.1746 N   0  0  0  0  0  0  0  0  0  0  0  0
    1.0316   -1.5583    1.4961 H   0  0  0  0  0  0  0  0  0  0  0  0
    1.2342   -0.8527    3.4950 C   0  0  0  0  0  0  0  0  0  0  0  0
    0.4700   -0.9514    4.2688 H   0  0  0  0  0  0  0  0  0  0  0  0
    1.9738   -1.6445    3.6170 H   0  0  0  0  0  0  0  0  0  0  0  0
    1.7222    0.1172    3.6090 H   0  0  0  0  0  0  0  0  0  0  0  0
  5  6  2  0  0  0  0
  5  7  1  0  0  0  0
  2  3  1  0  0  0  0
  2  4  1  0  0  0  0
  2  5  1  0  0  0  0
  1  2  1  0  0  0  0
 25 26  2  0  0  0  0
 25 27  1  0  0  0  0
 23 24  1  0  0  0  0
 21 22  1  0  0  0  0
 21 23  2  0  0  0  0
 19 20  1  0  0  0  0
 19 21  1  0  0  0  0
 17 18  1  0  0  0  0
 17 19  2  0  0  0  0
 15 16  1  0  0  0  0
 15 17  1  0  0  0  0
 14 15  2  0  0  0  0
 14 23  1  0  0  0  0
 11 12  1  0  0  0  0
 11 13  1  0  0  0  0
 11 14  1  0  0  0  0
  9 10  1  0  0  0  0
  9 11  1  0  0  0  0
  9 25  1  0  0  0  0
  7  8  1  0  0  0  0
  7  9  1  0  0  0  0
 29 30  1  0  0  0  0
 29 31  1  0  0  0  0
 29 32  1  0  0  0  0
 27 28  1  0  0  0  0
 27 29  1  0  0  0  0
M  END
$$$$
default_name
  -OEChem-01062215323D

 32 32  0     1  0  0  0  0  0999 V2000
   -3.8405   -3.7518    1.6252 H   0  0  0  0  0  0  0  0  0  0  0  0
   -3.7965   -2.8768    0.9782 C   0  0  0  0  0  0  0  0  0  0  0  0
   -4.5465   -2.1527    1.2902 H   0  0  0  0  0  0  0  0  0  0  0  0
   -3.9745   -3.1748   -0.0538 H   0  0  0  0  0  0  0  0  0  0  0  0
   -2.4245   -2.2537    1.0882 C   0  0  0  0  0  0  0  0  0  0  0  0
   -1.5805   -2.7478    1.8242 O   0  0  0  0  0  0  0  0  0  0  0  0
   -2.2045   -1.1637    0.3562 N   0  0  0  0  0  0  0  0  0  0  0  0
   -2.9595   -0.7907   -0.2008 H   0  0  0  0  0  0  0  0  0  0  0  0
   -0.9485   -0.4087    0.3482 C   0  0  1  0  0  0  0  0  0  0  0  0
   -0.1988   -0.9856   -0.1957 H   0  0  0  0  0  0  0  0  0  0  0  0
   -1.1617    0.9246   -0.3888 C   0  0  0  0  0  0  0  0  0  0  0  0
   -2.0076    1.4472    0.0600 H   0  0  0  0  0  0  0  0  0  0  0  0
   -0.2789    1.5506   -0.2500 H   0  0  0  0  0  0  0  0  0  0  0  0
   -1.4378    0.7704   -1.8723 C   0  0  0  0  0  0  0  0  0  0  0  0
   -0.3785    0.5726   -2.7782 C   0  0  0  0  0  0  0  0  0  0  0  0
    0.6423    0.5523   -2.4235 H   0  0  0  0  0  0  0  0  0  0  0  0
   -0.6457    0.3892   -4.1474 C   0  0  0  0  0  0  0  0  0  0  0  0
    0.1694    0.2401   -4.8417 H   0  0  0  0  0  0  0  0  0  0  0  0
   -1.9715    0.4012   -4.6129 C   0  0  0  0  0  0  0  0  0  0  0  0
   -2.1766    0.2626   -5.6652 H   0  0  0  0  0  0  0  0  0  0  0  0
   -3.0323    0.6000   -3.7105 C   0  0  0  0  0  0  0  0  0  0  0  0
   -4.0511    0.6147   -4.0689 H   0  0  0  0  0  0  0  0  0  0  0  0
   -2.7648    0.7866   -2.3427 C   0  0  0  0  0  0  0  0  0  0  0  0
   -3.5815    0.9429   -1.6500 H   0  0  0  0  0  0  0  0  0  0  0  0
   -0.4266   -0.1955    1.7805 C   0  0  0  0  0  0  0  0  0  0  0  0
   -1.1079    0.4182    2.6031 O   0  0  0  0  0  0  0  0  0  0  0  0
    0.7799   -0.6946    2.0781 N   0  0  0  0  0  0  0  0  0  0  0  0
    1.3004   -1.1356    1.3352 H   0  0  0  0  0  0  0  0  0  0  0  0
    1.4212   -0.5710    3.3849 C   0  0  0  0  0  0  0  0  0  0  0  0
    0.7398   -0.9162    4.1653 H   0  0  0  0  0  0  0  0  0  0  0  0
    2.3336   -1.1672    3.4149 H   0  0  0  0  0  0  0  0  0  0  0  0
    1.6678    0.4753    3.5755 H   0  0  0  0  0  0  0  0  0  0  0  0
  5  6  2  0  0  0  0
  5  7  1  0  0  0  0
  2  3  1  0  0  0  0
  2  4  1  0  0  0  0
  2  5  1  0  0  0  0
  1  2  1  0  0  0  0
 25 26  2  0  0  0  0
 25 27  1  0  0  0  0
 23 24  1  0  0  0  0
 21 22  1  0  0  0  0
 21 23  2  0  0  0  0
 19 20  1  0  0  0  0
 19 21  1  0  0  0  0
 17 18  1  0  0  0  0
 17 19  2  0  0  0  0
 15 16  1  0  0  0  0
 15 17  1  0  0  0  0
 14 15  2  0  0  0  0
 14 23  1  0  0  0  0
 11 12  1  0  0  0  0
 11 13  1  0  0  0  0
 11 14  1  0  0  0  0
  9 10  1  0  0  0  0
  9 11  1  0  0  0  0
  9 25  1  0  0  0  0
  7  8  1  0  0  0  0
  7  9  1  0  0  0  0
 29 30  1  0  0  0  0
 29 31  1  0  0  0  0
 29 32  1  0  0  0  0
 27 28  1  0  0  0  0
 27 29  1  0  0  0  0
M  END
$$$$
default_name
  -OEChem-01062215323D

 32 32  0     1  0  0  0  0  0999 V2000
   -3.8405   -3.7518    1.6252 H   0  0  0  0  0  0  0  0  0  0  0  0
   -3.7965   -2.8768    0.9782 C   0  0  0  0  0  0  0  0  0  0  0  0
   -4.5465   -2.1527    1.2902 H   0  0  0  0  0  0  0  0  0  0  0  0
   -3.9745   -3.1748   -0.0538 H   0  0  0  0  0  0  0  0  0  0  0  0
   -2.4245   -2.2537    1.0882 C   0  0  0  0  0  0  0  0  0  0  0  0
   -1.5805   -2.7478    1.8242 O   0  0  0  0  0  0  0  0  0  0  0  0
   -2.2045   -1.1637    0.3562 N   0  0  0  0  0  0  0  0  0  0  0  0
   -2.9595   -0.7907   -0.2008 H   0  0  0  0  0  0  0  0  0  0  0  0
   -0.9485   -0.4087    0.3482 C   0  0  1  0  0  0  0  0  0  0  0  0
   -0.1988   -0.9856   -0.1957 H   0  0  0  0  0  0  0  0  0  0  0  0
   -1.1617    0.9246   -0.3888 C   0  0  0  0  0  0  0  0  0  0  0  0
   -2.0076    1.4472    0.0600 H   0  0  0  0  0  0  0  0  0  0  0  0
   -0.2789    1.5506   -0.2500 H   0  0  0  0  0  0  0  0  0  0  0  0
   -1.4378    0.7704   -1.8723 C   0  0  0  0  0  0  0  0  0  0  0  0
   -0.3785    0.5726   -2.7782 C   0  0  0  0  0  0  0  0  0  0  0  0
    0.6423    0.5523   -2.4235 H   0  0  0  0  0  0  0  0  0  0  0  0
   -0.6457    0.3892   -4.1474 C   0  0  0  0  0  0  0  0  0  0  0  0
    0.1694    0.2401   -4.8417 H   0  0  0  0  0  0  0  0  0  0  0  0
   -1.9715    0.4012   -4.6129 C   0  0  0  0  0  0  0  0  0  0  0  0
   -2.1766    0.2626   -5.6652 H   0  0  0  0  0  0  0  0  0  0  0  0
   -3.0323    0.6000   -3.7105 C   0  0  0  0  0  0  0  0  0  0  0  0
   -4.0511    0.6147   -4.0689 H   0  0  0  0  0  0  0  0  0  0  0  0
   -2.7648    0.7866   -2.3427 C   0  0  0  0  0  0  0  0  0  0  0  0
   -3.5815    0.9429   -1.6500 H   0  0  0  0  0  0  0  0  0  0  0  0
   -0.4266   -0.1955    1.7805 C   0  0  0  0  0  0  0  0  0  0  0  0
   -1.1958    0.1639    2.6730 O   0  0  0  0  0  0  0  0  0  0  0  0
    0.8767   -0.4102    2.0005 N   0  0  0  0  0  0  0  0  0  0  0  0
    1.4525   -0.6484    1.2073 H   0  0  0  0  0  0  0  0  0  0  0  0
    1.5301   -0.2442    3.2966 C   0  0  0  0  0  0  0  0  0  0  0  0
    0.9882   -0.8082    4.0587 H   0  0  0  0  0  0  0  0  0  0  0  0
    2.5590   -0.6018    3.2486 H   0  0  0  0  0  0  0  0  0  0  0  0
    1.5278    0.8110    3.5766 H   0  0  0  0  0  0  0  0  0  0  0  0
  5  6  2  0  0  0  0
  5  7  1  0  0  0  0
  2  3  1  0  0  0  0
  2  4  1  0  0  0  0
  2  5  1  0  0  0  0
  1  2  1  0  0  0  0
 25 26  2  0  0  0  0
 25 27  1  0  0  0  0
 23 24  1  0  0  0  0
 21 22  1  0  0  0  0
 21 23  2  0  0  0  0
 19 20  1  0  0  0  0
 19 21  1  0  0  0  0
 17 18  1  0  0  0  0
 17 19  2  0  0  0  0
 15 16  1  0  0  0  0
 15 17  1  0  0  0  0
 14 15  2  0  0  0  0
 14 23  1  0  0  0  0
 11 12  1  0  0  0  0
 11 13  1  0  0  0  0
 11 14  1  0  0  0  0
  9 10  1  0  0  0  0
  9 11  1  0  0  0  0
  9 25  1  0  0  0  0
  7  8  1  0  0  0  0
  7  9  1  0  0  0  0
 29 30  1  0  0  0  0
 29 31  1  0  0  0  0
 29 32  1  0  0  0  0
 27 28  1  0  0  0  0
 27 29  1  0  0  0  0
M  END
$$$$
default_name
  -OEChem-01062215323D

 32 32  0     1  0  0  0  0  0999 V2000
   -3.8405   -3.7518    1.6252 H   0  0  0  0  0  0  0  0  0  0  0  0
   -3.7965   -2.8768    0.9782 C   0  0  0  0  0  0  0  0  0  0  0  0
   -4.5465   -2.1527    1.2902 H   0  0  0  0  0  0  0  0  0  0  0  0
   -3.9745   -3.1748   -0.0538 H   0  0  0  0  0  0  0  0  0  0  0  0
   -2.4245   -2.2537    1.0882 C   0  0  0  0  0  0  0  0  0  0  0  0
   -1.5805   -2.7478    1.8242 O   0  0  0  0  0  0  0  0  0  0  0  0
   -2.2045   -1.1637    0.3562 N   0  0  0  0  0  0  0  0  0  0  0  0
   -2.9595   -0.7907   -0.2008 H   0  0  0  0  0  0  0  0  0  0  0  0
   -0.9485   -0.4087    0.3482 C   0  0  1  0  0  0  0  0  0  0  0  0
   -0.1988   -0.9856   -0.1957 H   0  0  0  0  0  0  0  0  0  0  0  0
   -1.1617    0.9246   -0.3888 C   0  0  0  0  0  0  0  0  0  0  0  0
   -2.0076    1.4472    0.0600 H   0  0  0  0  0  0  0  0  0  0  0  0
   -0.2789    1.5506   -0.2500 H   0  0  0  0  0  0  0  0  0  0  0  0
   -1.4378    0.7704   -1.8723 C   0  0  0  0  0  0  0  0  0  0  0  0
   -0.3785    0.5726   -2.7782 C   0  0  0  0  0  0  0  0  0  0  0  0
    0.6423    0.5523   -2.4235 H   0  0  0  0  0  0  0  0  0  0  0  0
   -0.6457    0.3892   -4.1474 C   0  0  0  0  0  0  0  0  0  0  0  0
    0.1694    0.2401   -4.8417 H   0  0  0  0  0  0  0  0  0  0  0  0
   -1.9715    0.4012   -4.6129 C   0  0  0  0  0  0  0  0  0  0  0  0
   -2.1766    0.2626   -5.6652 H   0  0  0  0  0  0  0  0  0  0  0  0
   -3.0323    0.6000   -3.7105 C   0  0  0  0  0  0  0  0  0  0  0  0
   -4.0511    0.6147   -4.0689 H   0  0  0  0  0  0  0  0  0  0  0  0
   -2.7648    0.7866   -2.3427 C   0  0  0  0  0  0  0  0  0  0  0  0
   -3.5815    0.9429   -1.6500 H   0  0  0  0  0  0  0  0  0  0  0  0
   -0.4266   -0.1955    1.7805 C   0  0  0  0  0  0  0  0  0  0  0  0
   -1.2170   -0.1090    2.7213 O   0  0  0  0  0  0  0  0  0  0  0  0
    0.8990   -0.1054    1.9470 N   0  0  0  0  0  0  0  0  0  0  0  0
    1.4774   -0.1299    1.1210 H   0  0  0  0  0  0  0  0  0  0  0  0
    1.5534    0.1054    3.2360 C   0  0  0  0  0  0  0  0  0  0  0  0
    1.1982   -0.6347    3.9563 H   0  0  0  0  0  0  0  0  0  0  0  0
    2.6346    0.0132    3.1295 H   0  0  0  0  0  0  0  0  0  0  0  0
    1.3118    1.1014    3.6121 H   0  0  0  0  0  0  0  0  0  0  0  0
  5  6  2  0  0  0  0
  5  7  1  0  0  0  0
  2  3  1  0  0  0  0
  2  4  1  0  0  0  0
  2  5  1  0  0  0  0
  1  2  1  0  0  0  0
 25 26  2  0  0  0  0
 25 27  1  0  0  0  0
 23 24  1  0  0  0  0
 21 22  1  0  0  0  0
 21 23  2  0  0  0  0
 19 20  1  0  0  0  0
 19 21  1  0  0  0  0
 17 18  1  0  0  0  0
 17 19  2  0  0  0  0
 15 16  1  0  0  0  0
 15 17  1  0  0  0  0
 14 15  2  0  0  0  0
 14 23  1  0  0  0  0
 11 12  1  0  0  0  0
 11 13  1  0  0  0  0
 11 14  1  0  0  0  0
  9 10  1  0  0  0  0
  9 11  1  0  0  0  0
  9 25  1  0  0  0  0
  7  8  1  0  0  0  0
  7  9  1  0  0  0  0
 29 30  1  0  0  0  0
 29 31  1  0  0  0  0
 29 32  1  0  0  0  0
 27 28  1  0  0  0  0
 27 29  1  0  0  0  0
M  END
$$$$
default_name
  -OEChem-01062215323D

 32 32  0     1  0  0  0  0  0999 V2000
   -3.8405   -3.7518    1.6252 H   0  0  0  0  0  0  0  0  0  0  0  0
   -3.7965   -2.8768    0.9782 C   0  0  0  0  0  0  0  0  0  0  0  0
   -4.5465   -2.1527    1.2902 H   0  0  0  0  0  0  0  0  0  0  0  0
   -3.9745   -3.1748   -0.0538 H   0  0  0  0  0  0  0  0  0  0  0  0
   -2.4245   -2.2537    1.0882 C   0  0  0  0  0  0  0  0  0  0  0  0
   -1.5805   -2.7478    1.8242 O   0  0  0  0  0  0  0  0  0  0  0  0
   -2.2045   -1.1637    0.3562 N   0  0  0  0  0  0  0  0  0  0  0  0
   -2.9595   -0.7907   -0.2008 H   0  0  0  0  0  0  0  0  0  0  0  0
   -0.9485   -0.4087    0.3482 C   0  0  1  0  0  0  0  0  0  0  0  0
   -0.1988   -0.9856   -0.1957 H   0  0  0  0  0  0  0  0  0  0  0  0
   -1.1617    0.9246   -0.3888 C   0  0  0  0  0  0  0  0  0  0  0  0
   -2.0076    1.4472    0.0600 H   0  0  0  0  0  0  0  0  0  0  0  0
   -0.2789    1.5506   -0.2500 H   0  0  0  0  0  0  0  0  0  0  0  0
   -1.4378    0.7704   -1.8723 C   0  0  0  0  0  0  0  0  0  0  0  0
   -0.3785    0.5726   -2.7782 C   0  0  0  0  0  0  0  0  0  0  0  0
    0.6423    0.5523   -2.4235 H   0  0  0  0  0  0  0  0  0  0  0  0
   -0.6457    0.3892   -4.1474 C   0  0  0  0  0  0  0  0  0  0  0  0
    0.1694    0.2401   -4.8417 H   0  0  0  0  0  0  0  0  0  0  0  0
   -1.9715    0.4012   -4.6129 C   0  0  0  0  0  0  0  0  0  0  0  0
   -2.1766    0.2626   -5.6652 H   0  0  0  0  0  0  0  0  0  0  0  0
   -3.0323    0.6000   -3.7105 C   0  0  0  0  0  0  0  0  0  0  0  0
   -4.0511    0.6147   -4.0689 H   0  0  0  0  0  0  0  0  0  0  0  0
   -2.7648    0.7866   -2.3427 C   0  0  0  0  0  0  0  0  0  0  0  0
   -3.5815    0.9429   -1.6500 H   0  0  0  0  0  0  0  0  0  0  0  0
   -0.4266   -0.1955    1.7805 C   0  0  0  0  0  0  0  0  0  0  0  0
   -1.1701   -0.3820    2.7448 O   0  0  0  0  0  0  0  0  0  0  0  0
    0.8453    0.1991    1.9213 N   0  0  0  0  0  0  0  0  0  0  0  0
    1.3736    0.3845    1.0823 H   0  0  0  0  0  0  0  0  0  0  0  0
    1.4895    0.4540    3.2074 C   0  0  0  0  0  0  0  0  0  0  0  0
    1.3557   -0.4075    3.8651 H   0  0  0  0  0  0  0  0  0  0  0  0
    2.5552    0.6359    3.0657 H   0  0  0  0  0  0  0  0  0  0  0  0
    1.0344    1.3268    3.6796 H   0  0  0  0  0  0  0  0  0  0  0  0
  5  6  2  0  0  0  0
  5  7  1  0  0  0  0
  2  3  1  0  0  0  0
  2  4  1  0  0  0  0
  2  5  1  0  0  0  0
  1  2  1  0  0  0  0
 25 26  2  0  0  0  0
 25 27  1  0  0  0  0
 23 24  1  0  0  0  0
 21 22  1  0  0  0  0
 21 23  2  0  0  0  0
 19 20  1  0  0  0  0
 19 21  1  0  0  0  0
 17 18  1  0  0  0  0
 17 19  2  0  0  0  0
 15 16  1  0  0  0  0
 15 17  1  0  0  0  0
 14 15  2  0  0  0  0
 14 23  1  0  0  0  0
 11 12  1  0  0  0  0
 11 13  1  0  0  0  0
 11 14  1  0  0  0  0
  9 10  1  0  0  0  0
  9 11  1  0  0  0  0
  9 25  1  0  0  0  0
  7  8  1  0  0  0  0
  7  9  1  0  0  0  0
 29 30  1  0  0  0  0
 29 31  1  0  0  0  0
 29 32  1  0  0  0  0
 27 28  1  0  0  0  0
 27 29  1  0  0  0  0
M  END
$$$$
default_name
  -OEChem-01062215323D

 32 32  0     1  0  0  0  0  0999 V2000
   -3.8405   -3.7518    1.6252 H   0  0  0  0  0  0  0  0  0  0  0  0
   -3.7965   -2.8768    0.9782 C   0  0  0  0  0  0  0  0  0  0  0  0
   -4.5465   -2.1527    1.2902 H   0  0  0  0  0  0  0  0  0  0  0  0
   -3.9745   -3.1748   -0.0538 H   0  0  0  0  0  0  0  0  0  0  0  0
   -2.4245   -2.2537    1.0882 C   0  0  0  0  0  0  0  0  0  0  0  0
   -1.5805   -2.7478    1.8242 O   0  0  0  0  0  0  0  0  0  0  0  0
   -2.2045   -1.1637    0.3562 N   0  0  0  0  0  0  0  0  0  0  0  0
   -2.9595   -0.7907   -0.2008 H   0  0  0  0  0  0  0  0  0  0  0  0
   -0.9485   -0.4087    0.3482 C   0  0  1  0  0  0  0  0  0  0  0  0
   -0.2875   -0.8403   -0.4052 H   0  0  0  0  0  0  0  0  0  0  0  0
   -1.2360    1.0518   -0.0396 C   0  0  0  0  0  0  0  0  0  0  0  0
   -2.0059    1.4502    0.6228 H   0  0  0  0  0  0  0  0  0  0  0  0
   -0.3324    1.6434    0.1154 H   0  0  0  0  0  0  0  0  0  0  0  0
   -1.7097    1.2270   -1.4699 C   0  0  0  0  0  0  0  0  0  0  0  0
   -0.7839    1.2497   -2.5302 C   0  0  0  0  0  0  0  0  0  0  0  0
    0.2746    1.1650   -2.3284 H   0  0  0  0  0  0  0  0  0  0  0  0
   -1.2340    1.3710   -3.8578 C   0  0  0  0  0  0  0  0  0  0  0  0
   -0.5213    1.3908   -4.6702 H   0  0  0  0  0  0  0  0  0  0  0  0
   -2.6097    1.4679   -4.1277 C   0  0  0  0  0  0  0  0  0  0  0  0
   -2.9553    1.5635   -5.1475 H   0  0  0  0  0  0  0  0  0  0  0  0
   -3.5374    1.4471   -3.0704 C   0  0  0  0  0  0  0  0  0  0  0  0
   -4.5945    1.5270   -3.2773 H   0  0  0  0  0  0  0  0  0  0  0  0
   -3.0870    1.3291   -1.7435 C   0  0  0  0  0  0  0  0  0  0  0  0
   -3.8016    1.3166   -0.9307 H   0  0  0  0  0  0  0  0  0  0  0  0
   -0.2370   -0.5116    1.7093 C   0  0  0  0  0  0  0  0  0  0  0  0
   -0.7421   -1.1634    2.6245 O   0  0  0  0  0  0  0  0  0  0  0  0
    0.9287    0.1330    1.8463 N   0  0  0  0  0  0  0  0  0  0  0  0
    1.2492    0.6911    1.0697 H   0  0  0  0  0  0  0  0  0  0  0  0
    1.7231    0.1437    3.0723 C   0  0  0  0  0  0  0  0  0  0  0  0
    1.8910   -0.8802    3.4130 H   0  0  0  0  0  0  0  0  0  0  0  0
    2.6849    0.6254    2.8940 H   0  0  0  0  0  0  0  0  0  0  0  0
    1.1869    0.6870    3.8527 H   0  0  0  0  0  0  0  0  0  0  0  0
  5  6  2  0  0  0  0
  5  7  1  0  0  0  0
  2  3  1  0  0  0  0
  2  4  1  0  0  0  0
  2  5  1  0  0  0  0
  1  2  1  0  0  0  0
 25 26  2  0  0  0  0
 25 27  1  0  0  0  0
 23 24  1  0  0  0  0
 21 22  1  0  0  0  0
 21 23  2  0  0  0  0
 19 20  1  0  0  0  0
 19 21  1  0  0  0  0
 17 18  1  0  0  0  0
 17 19  2  0  0  0  0
 15 16  1  0  0  0  0
 15 17  1  0  0  0  0
 14 15  2  0  0  0  0
 14 23  1  0  0  0  0
 11 12  1  0  0  0  0
 11 13  1  0  0  0  0
 11 14  1  0  0  0  0
  9 10  1  0  0  0  0
  9 11  1  0  0  0  0
  9 25  1  0  0  0  0
  7  8  1  0  0  0  0
  7  9  1  0  0  0  0
 29 30  1  0  0  0  0
 29 31  1  0  0  0  0
 29 32  1  0  0  0  0
 27 28  1  0  0  0  0
 27 29  1  0  0  0  0
M  END
$$$$
default_name
  -OEChem-01062215323D

 32 32  0     1  0  0  0  0  0999 V2000
   -3.8405   -3.7518    1.6252 H   0  0  0  0  0  0  0  0  0  0  0  0
   -3.7965   -2.8768    0.9782 C   0  0  0  0  0  0  0  0  0  0  0  0
   -4.5465   -2.1527    1.2902 H   0  0  0  0  0  0  0  0  0  0  0  0
   -3.9745   -3.1748   -0.0538 H   0  0  0  0  0  0  0  0  0  0  0  0
   -2.4245   -2.2537    1.0882 C   0  0  0  0  0  0  0  0  0  0  0  0
   -1.5805   -2.7478    1.8242 O   0  0  0  0  0  0  0  0  0  0  0  0
   -2.2045   -1.1637    0.3562 N   0  0  0  0  0  0  0  0  0  0  0  0
   -2.9595   -0.7907   -0.2008 H   0  0  0  0  0  0  0  0  0  0  0  0
   -0.9485   -0.4087    0.3482 C   0  0  1  0  0  0  0  0  0  0  0  0
   -0.2875   -0.8403   -0.4052 H   0  0  0  0  0  0  0  0  0  0  0  0
   -1.2360    1.0518   -0.0396 C   0  0  0  0  0  0  0  0  0  0  0  0
   -2.0059    1.4502    0.6228 H   0  0  0  0  0  0  0  0  0  0  0  0
   -0.3324    1.6434    0.1154 H   0  0  0  0  0  0  0  0  0  0  0  0
   -1.7097    1.2270   -1.4699 C   0  0  0  0  0  0  0  0  0  0  0  0
   -0.7839    1.2497   -2.5302 C   0  0  0  0  0  0  0  0  0  0  0  0
    0.2746    1.1650   -2.3284 H   0  0  0  0  0  0  0  0  0  0  0  0
   -1.2340    1.3710   -3.8578 C   0  0  0  0  0  0  0  0  0  0  0  0
   -0.5213    1.3908   -4.6702 H   0  0  0  0  0  0  0  0  0  0  0  0
   -2.6097    1.4679   -4.1277 C   0  0  0  0  0  0  0  0  0  0  0  0
   -2.9553    1.5635   -5.1475 H   0  0  0  0  0  0  0  0  0  0  0  0
   -3.5374    1.4471   -3.0704 C   0  0  0  0  0  0  0  0  0  0  0  0
   -4.5945    1.5270   -3.2773 H   0  0  0  0  0  0  0  0  0  0  0  0
   -3.0870    1.3291   -1.7435 C   0  0  0  0  0  0  0  0  0  0  0  0
   -3.8016    1.3166   -0.9307 H   0  0  0  0  0  0  0  0  0  0  0  0
   -0.2370   -0.5116    1.7093 C   0  0  0  0  0  0  0  0  0  0  0  0
   -0.5818   -1.3676    2.5253 O   0  0  0  0  0  0  0  0  0  0  0  0
    0.7488    0.3600    1.9575 N   0  0  0  0  0  0  0  0  0  0  0  0
    0.9350    1.0667    1.2624 H   0  0  0  0  0  0  0  0  0  0  0  0
    1.5154    0.4022    3.2004 C   0  0  0  0  0  0  0  0  0  0  0  0
    1.9130   -0.5901    3.4234 H   0  0  0  0  0  0  0  0  0  0  0  0
    2.3412    1.1084    3.1101 H   0  0  0  0  0  0  0  0  0  0  0  0
    0.8659    0.7100    4.0222 H   0  0  0  0  0  0  0  0  0  0  0  0
  5  6  2  0  0  0  0
  5  7  1  0  0  0  0
  2  3  1  0  0  0  0
  2  4  1  0  0  0  0
  2  5  1  0  0  0  0
  1  2  1  0  0  0  0
 25 26  2  0  0  0  0
 25 27  1  0  0  0  0
 23 24  1  0  0  0  0
 21 22  1  0  0  0  0
 21 23  2  0  0  0  0
 19 20  1  0  0  0  0
 19 21  1  0  0  0  0
 17 18  1  0  0  0  0
 17 19  2  0  0  0  0
 15 16  1  0  0  0  0
 15 17  1  0  0  0  0
 14 15  2  0  0  0  0
 14 23  1  0  0  0  0
 11 12  1  0  0  0  0
 11 13  1  0  0  0  0
 11 14  1  0  0  0  0
  9 10  1  0  0  0  0
  9 11  1  0  0  0  0
  9 25  1  0  0  0  0
  7  8  1  0  0  0  0
  7  9  1  0  0  0  0
 29 30  1  0  0  0  0
 29 31  1  0  0  0  0
 29 32  1  0  0  0  0
 27 28  1  0  0  0  0
 27 29  1  0  0  0  0
M  END
$$$$
default_name
  -OEChem-01062215323D

 32 32  0     1  0  0  0  0  0999 V2000
   -3.8405   -3.7518    1.6252 H   0  0  0  0  0  0  0  0  0  0  0  0
   -3.7965   -2.8768    0.9782 C   0  0  0  0  0  0  0  0  0  0  0  0
   -4.5465   -2.1527    1.2902 H   0  0  0  0  0  0  0  0  0  0  0  0
   -3.9745   -3.1748   -0.0538 H   0  0  0  0  0  0  0  0  0  0  0  0
   -2.4245   -2.2537    1.0882 C   0  0  0  0  0  0  0  0  0  0  0  0
   -1.5805   -2.7478    1.8242 O   0  0  0  0  0  0  0  0  0  0  0  0
   -2.2045   -1.1637    0.3562 N   0  0  0  0  0  0  0  0  0  0  0  0
   -2.9595   -0.7907   -0.2008 H   0  0  0  0  0  0  0  0  0  0  0  0
   -0.9485   -0.4087    0.3482 C   0  0  1  0  0  0  0  0  0  0  0  0
   -0.2875   -0.8403   -0.4052 H   0  0  0  0  0  0  0  0  0  0  0  0
   -1.2360    1.0518   -0.0396 C   0  0  0  0  0  0  0  0  0  0  0  0
   -2.0059    1.4502    0.6228 H   0  0  0  0  0  0  0  0  0  0  0  0
   -0.3324    1.6434    0.1154 H   0  0  0  0  0  0  0  0  0  0  0  0
   -1.7097    1.2270   -1.4699 C   0  0  0  0  0  0  0  0  0  0  0  0
   -0.7839    1.2497   -2.5302 C   0  0  0  0  0  0  0  0  0  0  0  0
    0.2746    1.1650   -2.3284 H   0  0  0  0  0  0  0  0  0  0  0  0
   -1.2340    1.3710   -3.8578 C   0  0  0  0  0  0  0  0  0  0  0  0
   -0.5213    1.3908   -4.6702 H   0  0  0  0  0  0  0  0  0  0  0  0
   -2.6097    1.4679   -4.1277 C   0  0  0  0  0  0  0  0  0  0  0  0
   -2.9553    1.5635   -5.1475 H   0  0  0  0  0  0  0  0  0  0  0  0
   -3.5374    1.4471   -3.0704 C   0  0  0  0  0  0  0  0  0  0  0  0
   -4.5945    1.5270   -3.2773 H   0  0  0  0  0  0  0  0  0  0  0  0
   -3.0870    1.3291   -1.7435 C   0  0  0  0  0  0  0  0  0  0  0  0
   -3.8016    1.3166   -0.9307 H   0  0  0  0  0  0  0  0  0  0  0  0
   -0.2370   -0.5116    1.7093 C   0  0  0  0  0  0  0  0  0  0  0  0
   -0.3785   -1.5164    2.4078 O   0  0  0  0  0  0  0  0  0  0  0  0
    0.5211    0.5248    2.0890 N   0  0  0  0  0  0  0  0  0  0  0  0
    0.5422    1.3345    1.4879 H   0  0  0  0  0  0  0  0  0  0  0  0
    1.2533    0.5890    3.3515 C   0  0  0  0  0  0  0  0  0  0  0  0
    1.8677   -0.3062    3.4686 H   0  0  0  0  0  0  0  0  0  0  0  0
    1.8949    1.4704    3.3708 H   0  0  0  0  0  0  0  0  0  0  0  0
    0.5477    0.6385    4.1831 H   0  0  0  0  0  0  0  0  0  0  0  0
  5  6  2  0  0  0  0
  5  7  1  0  0  0  0
  2  3  1  0  0  0  0
  2  4  1  0  0  0  0
  2  5  1  0  0  0  0
  1  2  1  0  0  0  0
 25 26  2  0  0  0  0
 25 27  1  0  0  0  0
 23 24  1  0  0  0  0
 21 22  1  0  0  0  0
 21 23  2  0  0  0  0
 19 20  1  0  0  0  0
 19 21  1  0  0  0  0
 17 18  1  0  0  0  0
 17 19  2  0  0  0  0
 15 16  1  0  0  0  0
 15 17  1  0  0  0  0
 14 15  2  0  0  0  0
 14 23  1  0  0  0  0
 11 12  1  0  0  0  0
 11 13  1  0  0  0  0
 11 14  1  0  0  0  0
  9 10  1  0  0  0  0
  9 11  1  0  0  0  0
  9 25  1  0  0  0  0
  7  8  1  0  0  0  0
  7  9  1  0  0  0  0
 29 30  1  0  0  0  0
 29 31  1  0  0  0  0
 29 32  1  0  0  0  0
 27 28  1  0  0  0  0
 27 29  1  0  0  0  0
M  END
$$$$
default_name
  -OEChem-01062215323D

 32 32  0     1  0  0  0  0  0999 V2000
   -3.8405   -3.7518    1.6252 H   0  0  0  0  0  0  0  0  0  0  0  0
   -3.7965   -2.8768    0.9782 C   0  0  0  0  0  0  0  0  0  0  0  0
   -4.5465   -2.1527    1.2902 H   0  0  0  0  0  0  0  0  0  0  0  0
   -3.9745   -3.1748   -0.0538 H   0  0  0  0  0  0  0  0  0  0  0  0
   -2.4245   -2.2537    1.0882 C   0  0  0  0  0  0  0  0  0  0  0  0
   -1.5805   -2.7478    1.8242 O   0  0  0  0  0  0  0  0  0  0  0  0
   -2.2045   -1.1637    0.3562 N   0  0  0  0  0  0  0  0  0  0  0  0
   -2.9595   -0.7907   -0.2008 H   0  0  0  0  0  0  0  0  0  0  0  0
   -0.9485   -0.4087    0.3482 C   0  0  1  0  0  0  0  0  0  0  0  0
   -0.2875   -0.8403   -0.4052 H   0  0  0  0  0  0  0  0  0  0  0  0
   -1.2360    1.0518   -0.0396 C   0  0  0  0  0  0  0  0  0  0  0  0
   -2.0059    1.4502    0.6228 H   0  0  0  0  0  0  0  0  0  0  0  0
   -0.3324    1.6434    0.1154 H   0  0  0  0  0  0  0  0  0  0  0  0
   -1.7097    1.2270   -1.4699 C   0  0  0  0  0  0  0  0  0  0  0  0
   -0.7839    1.2497   -2.5302 C   0  0  0  0  0  0  0  0  0  0  0  0
    0.2746    1.1650   -2.3284 H   0  0  0  0  0  0  0  0  0  0  0  0
   -1.2340    1.3710   -3.8578 C   0  0  0  0  0  0  0  0  0  0  0  0
   -0.5213    1.3908   -4.6702 H   0  0  0  0  0  0  0  0  0  0  0  0
   -2.6097    1.4679   -4.1277 C   0  0  0  0  0  0  0  0  0  0  0  0
   -2.9553    1.5635   -5.1475 H   0  0  0  0  0  0  0  0  0  0  0  0
   -3.5374    1.4471   -3.0704 C   0  0  0  0  0  0  0  0  0  0  0  0
   -4.5945    1.5270   -3.2773 H   0  0  0  0  0  0  0  0  0  0  0  0
   -3.0870    1.3291   -1.7435 C   0  0  0  0  0  0  0  0  0  0  0  0
   -3.8016    1.3166   -0.9307 H   0  0  0  0  0  0  0  0  0  0  0  0
   -0.2370   -0.5116    1.7093 C   0  0  0  0  0  0  0  0  0  0  0  0
   -0.1460   -1.5995    2.2800 O   0  0  0  0  0  0  0  0  0  0  0  0
    0.2612    0.6162    2.2317 N   0  0  0  0  0  0  0  0  0  0  0  0
    0.0977    1.4763    1.7310 H   0  0  0  0  0  0  0  0  0  0  0  0
    0.9547    0.6914    3.5153 C   0  0  0  0  0  0  0  0  0  0  0  0
    1.7581   -0.0477    3.5454 H   0  0  0  0  0  0  0  0  0  0  0  0
    1.3765    1.6867    3.6581 H   0  0  0  0  0  0  0  0  0  0  0  0
    0.2539    0.4773    4.3245 H   0  0  0  0  0  0  0  0  0  0  0  0
  5  6  2  0  0  0  0
  5  7  1  0  0  0  0
  2  3  1  0  0  0  0
  2  4  1  0  0  0  0
  2  5  1  0  0  0  0
  1  2  1  0  0  0  0
 25 26  2  0  0  0  0
 25 27  1  0  0  0  0
 23 24  1  0  0  0  0
 21 22  1  0  0  0  0
 21 23  2  0  0  0  0
 19 20  1  0  0  0  0
 19 21  1  0  0  0  0
 17 18  1  0  0  0  0
 17 19  2  0  0  0  0
 15 16  1  0  0  0  0
 15 17  1  0  0  0  0
 14 15  2  0  0  0  0
 14 23  1  0  0  0  0
 11 12  1  0  0  0  0
 11 13  1  0  0  0  0
 11 14  1  0  0  0  0
  9 10  1  0  0  0  0
  9 11  1  0  0  0  0
  9 25  1  0  0  0  0
  7  8  1  0  0  0  0
  7  9  1  0  0  0  0
 29 30  1  0  0  0  0
 29 31  1  0  0  0  0
 29 32  1  0  0  0  0
 27 28  1  0  0  0  0
 27 29  1  0  0  0  0
M  END
$$$$
default_name
  -OEChem-01062215323D

 32 32  0     1  0  0  0  0  0999 V2000
   -3.8405   -3.7518    1.6252 H   0  0  0  0  0  0  0  0  0  0  0  0
   -3.7965   -2.8768    0.9782 C   0  0  0  0  0  0  0  0  0  0  0  0
   -4.5465   -2.1527    1.2902 H   0  0  0  0  0  0  0  0  0  0  0  0
   -3.9745   -3.1748   -0.0538 H   0  0  0  0  0  0  0  0  0  0  0  0
   -2.4245   -2.2537    1.0882 C   0  0  0  0  0  0  0  0  0  0  0  0
   -1.5805   -2.7478    1.8242 O   0  0  0  0  0  0  0  0  0  0  0  0
   -2.2045   -1.1637    0.3562 N   0  0  0  0  0  0  0  0  0  0  0  0
   -2.9595   -0.7907   -0.2008 H   0  0  0  0  0  0  0  0  0  0  0  0
   -0.9485   -0.4087    0.3482 C   0  0  1  0  0  0  0  0  0  0  0  0
   -0.2875   -0.8403   -0.4052 H   0  0  0  0  0  0  0  0  0  0  0  0
   -1.2360    1.0518   -0.0396 C   0  0  0  0  0  0  0  0  0  0  0  0
   -2.0059    1.4502    0.6228 H   0  0  0  0  0  0  0  0  0  0  0  0
   -0.3324    1.6434    0.1154 H   0  0  0  0  0  0  0  0  0  0  0  0
   -1.7097    1.2270   -1.4699 C   0  0  0  0  0  0  0  0  0  0  0  0
   -0.7839    1.2497   -2.5302 C   0  0  0  0  0  0  0  0  0  0  0  0
    0.2746    1.1650   -2.3284 H   0  0  0  0  0  0  0  0  0  0  0  0
   -1.2340    1.3710   -3.8578 C   0  0  0  0  0  0  0  0  0  0  0  0
   -0.5213    1.3908   -4.6702 H   0  0  0  0  0  0  0  0  0  0  0  0
   -2.6097    1.4679   -4.1277 C   0  0  0  0  0  0  0  0  0  0  0  0
   -2.9553    1.5635   -5.1475 H   0  0  0  0  0  0  0  0  0  0  0  0
   -3.5374    1.4471   -3.0704 C   0  0  0  0  0  0  0  0  0  0  0  0
   -4.5945    1.5270   -3.2773 H   0  0  0  0  0  0  0  0  0  0  0  0
   -3.0870    1.3291   -1.7435 C   0  0  0  0  0  0  0  0  0  0  0  0
   -3.8016    1.3166   -0.9307 H   0  0  0  0  0  0  0  0  0  0  0  0
   -0.2370   -0.5116    1.7093 C   0  0  0  0  0  0  0  0  0  0  0  0
    0.0997   -1.6113    2.1506 O   0  0  0  0  0  0  0  0  0  0  0  0
   -0.0132    0.6279    2.3760 N   0  0  0  0  0  0  0  0  0  0  0  0
   -0.3684    1.4825    1.9751 H   0  0  0  0  0  0  0  0  0  0  0  0
    0.6401    0.7024    3.6806 C   0  0  0  0  0  0  0  0  0  0  0  0
    1.5918    0.1678    3.6486 H   0  0  0  0  0  0  0  0  0  0  0  0
    0.8213    1.7427    3.9526 H   0  0  0  0  0  0  0  0  0  0  0  0
    0.0045    0.2375    4.4367 H   0  0  0  0  0  0  0  0  0  0  0  0
  5  6  2  0  0  0  0
  5  7  1  0  0  0  0
  2  3  1  0  0  0  0
  2  4  1  0  0  0  0
  2  5  1  0  0  0  0
  1  2  1  0  0  0  0
 25 26  2  0  0  0  0
 25 27  1  0  0  0  0
 23 24  1  0  0  0  0
 21 22  1  0  0  0  0
 21 23  2  0  0  0  0
 19 20  1  0  0  0  0
 19 21  1  0  0  0  0
 17 18  1  0  0  0  0
 17 19  2  0  0  0  0
 15 16  1  0  0  0  0
 15 17  1  0  0  0  0
 14 15  2  0  0  0  0
 14 23  1  0  0  0  0
 11 12  1  0  0  0  0
 11 13  1  0  0  0  0
 11 14  1  0  0  0  0
  9 10  1  0  0  0  0
  9 11  1  0  0  0  0
  9 25  1  0  0  0  0
  7  8  1  0  0  0  0
  7  9  1  0  0  0  0
 29 30  1  0  0  0  0
 29 31  1  0  0  0  0
 29 32  1  0  0  0  0
 27 28  1  0  0  0  0
 27 29  1  0  0  0  0
M  END
$$$$
default_name
  -OEChem-01062215323D

 32 32  0     1  0  0  0  0  0999 V2000
   -3.8405   -3.7518    1.6252 H   0  0  0  0  0  0  0  0  0  0  0  0
   -3.7965   -2.8768    0.9782 C   0  0  0  0  0  0  0  0  0  0  0  0
   -4.5465   -2.1527    1.2902 H   0  0  0  0  0  0  0  0  0  0  0  0
   -3.9745   -3.1748   -0.0538 H   0  0  0  0  0  0  0  0  0  0  0  0
   -2.4245   -2.2537    1.0882 C   0  0  0  0  0  0  0  0  0  0  0  0
   -1.5805   -2.7478    1.8242 O   0  0  0  0  0  0  0  0  0  0  0  0
   -2.2045   -1.1637    0.3562 N   0  0  0  0  0  0  0  0  0  0  0  0
   -2.9595   -0.7907   -0.2008 H   0  0  0  0  0  0  0  0  0  0  0  0
   -0.9485   -0.4087    0.3482 C   0  0  1  0  0  0  0  0  0  0  0  0
   -0.2875   -0.8403   -0.4052 H   0  0  0  0  0  0  0  0  0  0  0  0
   -1.2360    1.0518   -0.0396 C   0  0  0  0  0  0  0  0  0  0  0  0
   -2.0059    1.4502    0.6228 H   0  0  0  0  0  0  0  0  0  0  0  0
   -0.3324    1.6434    0.1154 H   0  0  0  0  0  0  0  0  0  0  0  0
   -1.7097    1.2270   -1.4699 C   0  0  0  0  0  0  0  0  0  0  0  0
   -0.7839    1.2497   -2.5302 C   0  0  0  0  0  0  0  0  0  0  0  0
    0.2746    1.1650   -2.3284 H   0  0  0  0  0  0  0  0  0  0  0  0
   -1.2340    1.3710   -3.8578 C   0  0  0  0  0  0  0  0  0  0  0  0
   -0.5213    1.3908   -4.6702 H   0  0  0  0  0  0  0  0  0  0  0  0
   -2.6097    1.4679   -4.1277 C   0  0  0  0  0  0  0  0  0  0  0  0
   -2.9553    1.5635   -5.1475 H   0  0  0  0  0  0  0  0  0  0  0  0
   -3.5374    1.4471   -3.0704 C   0  0  0  0  0  0  0  0  0  0  0  0
   -4.5945    1.5270   -3.2773 H   0  0  0  0  0  0  0  0  0  0  0  0
   -3.0870    1.3291   -1.7435 C   0  0  0  0  0  0  0  0  0  0  0  0
   -3.8016    1.3166   -0.9307 H   0  0  0  0  0  0  0  0  0  0  0  0
   -0.2370   -0.5116    1.7093 C   0  0  0  0  0  0  0  0  0  0  0  0
    0.3420   -1.5509    2.0285 O   0  0  0  0  0  0  0  0  0  0  0  0
   -0.2834    0.5591    2.5121 N   0  0  0  0  0  0  0  0  0  0  0  0
   -0.8243    1.3526    2.2036 H   0  0  0  0  0  0  0  0  0  0  0  0
    0.3308    0.6213    3.8361 C   0  0  0  0  0  0  0  0  0  0  0  0
    1.3800    0.3254    3.7712 H   0  0  0  0  0  0  0  0  0  0  0  0
    0.2671    1.6344    4.2341 H   0  0  0  0  0  0  0  0  0  0  0  0
   -0.1834   -0.0646    4.5121 H   0  0  0  0  0  0  0  0  0  0  0  0
  5  6  2  0  0  0  0
  5  7  1  0  0  0  0
  2  3  1  0  0  0  0
  2  4  1  0  0  0  0
  2  5  1  0  0  0  0
  1  2  1  0  0  0  0
 25 26  2  0  0  0  0
 25 27  1  0  0  0  0
 23 24  1  0  0  0  0
 21 22  1  0  0  0  0
 21 23  2  0  0  0  0
 19 20  1  0  0  0  0
 19 21  1  0  0  0  0
 17 18  1  0  0  0  0
 17 19  2  0  0  0  0
 15 16  1  0  0  0  0
 15 17  1  0  0  0  0
 14 15  2  0  0  0  0
 14 23  1  0  0  0  0
 11 12  1  0  0  0  0
 11 13  1  0  0  0  0
 11 14  1  0  0  0  0
  9 10  1  0  0  0  0
  9 11  1  0  0  0  0
  9 25  1  0  0  0  0
  7  8  1  0  0  0  0
  7  9  1  0  0  0  0
 29 30  1  0  0  0  0
 29 31  1  0  0  0  0
 29 32  1  0  0  0  0
 27 28  1  0  0  0  0
 27 29  1  0  0  0  0
M  END
$$$$
default_name
  -OEChem-01062215323D

 32 32  0     1  0  0  0  0  0999 V2000
   -3.8405   -3.7518    1.6252 H   0  0  0  0  0  0  0  0  0  0  0  0
   -3.7965   -2.8768    0.9782 C   0  0  0  0  0  0  0  0  0  0  0  0
   -4.5465   -2.1527    1.2902 H   0  0  0  0  0  0  0  0  0  0  0  0
   -3.9745   -3.1748   -0.0538 H   0  0  0  0  0  0  0  0  0  0  0  0
   -2.4245   -2.2537    1.0882 C   0  0  0  0  0  0  0  0  0  0  0  0
   -1.5805   -2.7478    1.8242 O   0  0  0  0  0  0  0  0  0  0  0  0
   -2.2045   -1.1637    0.3562 N   0  0  0  0  0  0  0  0  0  0  0  0
   -2.9595   -0.7907   -0.2008 H   0  0  0  0  0  0  0  0  0  0  0  0
   -0.9485   -0.4087    0.3482 C   0  0  1  0  0  0  0  0  0  0  0  0
   -0.2875   -0.8403   -0.4052 H   0  0  0  0  0  0  0  0  0  0  0  0
   -1.2360    1.0518   -0.0396 C   0  0  0  0  0  0  0  0  0  0  0  0
   -2.0059    1.4502    0.6228 H   0  0  0  0  0  0  0  0  0  0  0  0
   -0.3324    1.6434    0.1154 H   0  0  0  0  0  0  0  0  0  0  0  0
   -1.7097    1.2270   -1.4699 C   0  0  0  0  0  0  0  0  0  0  0  0
   -0.7839    1.2497   -2.5302 C   0  0  0  0  0  0  0  0  0  0  0  0
    0.2746    1.1650   -2.3284 H   0  0  0  0  0  0  0  0  0  0  0  0
   -1.2340    1.3710   -3.8578 C   0  0  0  0  0  0  0  0  0  0  0  0
   -0.5213    1.3908   -4.6702 H   0  0  0  0  0  0  0  0  0  0  0  0
   -2.6097    1.4679   -4.1277 C   0  0  0  0  0  0  0  0  0  0  0  0
   -2.9553    1.5635   -5.1475 H   0  0  0  0  0  0  0  0  0  0  0  0
   -3.5374    1.4471   -3.0704 C   0  0  0  0  0  0  0  0  0  0  0  0
   -4.5945    1.5270   -3.2773 H   0  0  0  0  0  0  0  0  0  0  0  0
   -3.0870    1.3291   -1.7435 C   0  0  0  0  0  0  0  0  0  0  0  0
   -3.8016    1.3166   -0.9307 H   0  0  0  0  0  0  0  0  0  0  0  0
   -0.2370   -0.5116    1.7093 C   0  0  0  0  0  0  0  0  0  0  0  0
    0.5644   -1.4226    1.9220 O   0  0  0  0  0  0  0  0  0  0  0  0
   -0.5310    0.4146    2.6306 N   0  0  0  0  0  0  0  0  0  0  0  0
   -1.2388    1.0954    2.4008 H   0  0  0  0  0  0  0  0  0  0  0  0
    0.0480    0.4535    3.9713 C   0  0  0  0  0  0  0  0  0  0  0  0
    1.1373    0.4146    3.9048 H   0  0  0  0  0  0  0  0  0  0  0  0
   -0.2484    1.3693    4.4834 H   0  0  0  0  0  0  0  0  0  0  0  0
   -0.2970   -0.4085    4.5455 H   0  0  0  0  0  0  0  0  0  0  0  0
  5  6  2  0  0  0  0
  5  7  1  0  0  0  0
  2  3  1  0  0  0  0
  2  4  1  0  0  0  0
  2  5  1  0  0  0  0
  1  2  1  0  0  0  0
 25 26  2  0  0  0  0
 25 27  1  0  0  0  0
 23 24  1  0  0  0  0
 21 22  1  0  0  0  0
 21 23  2  0  0  0  0
 19 20  1  0  0  0  0
 19 21  1  0  0  0  0
 17 18  1  0  0  0  0
 17 19  2  0  0  0  0
 15 16  1  0  0  0  0
 15 17  1  0  0  0  0
 14 15  2  0  0  0  0
 14 23  1  0  0  0  0
 11 12  1  0  0  0  0
 11 13  1  0  0  0  0
 11 14  1  0  0  0  0
  9 10  1  0  0  0  0
  9 11  1  0  0  0  0
  9 25  1  0  0  0  0
  7  8  1  0  0  0  0
  7  9  1  0  0  0  0
 29 30  1  0  0  0  0
 29 31  1  0  0  0  0
 29 32  1  0  0  0  0
 27 28  1  0  0  0  0
 27 29  1  0  0  0  0
M  END
$$$$
default_name
  -OEChem-01062215323D

 32 32  0     1  0  0  0  0  0999 V2000
   -3.8405   -3.7518    1.6252 H   0  0  0  0  0  0  0  0  0  0  0  0
   -3.7965   -2.8768    0.9782 C   0  0  0  0  0  0  0  0  0  0  0  0
   -4.5465   -2.1527    1.2902 H   0  0  0  0  0  0  0  0  0  0  0  0
   -3.9745   -3.1748   -0.0538 H   0  0  0  0  0  0  0  0  0  0  0  0
   -2.4245   -2.2537    1.0882 C   0  0  0  0  0  0  0  0  0  0  0  0
   -1.5805   -2.7478    1.8242 O   0  0  0  0  0  0  0  0  0  0  0  0
   -2.2045   -1.1637    0.3562 N   0  0  0  0  0  0  0  0  0  0  0  0
   -2.9595   -0.7907   -0.2008 H   0  0  0  0  0  0  0  0  0  0  0  0
   -0.9485   -0.4087    0.3482 C   0  0  1  0  0  0  0  0  0  0  0  0
   -0.2875   -0.8403   -0.4052 H   0  0  0  0  0  0  0  0  0  0  0  0
   -1.2360    1.0518   -0.0396 C   0  0  0  0  0  0  0  0  0  0  0  0
   -2.0059    1.4502    0.6228 H   0  0  0  0  0  0  0  0  0  0  0  0
   -0.3324    1.6434    0.1154 H   0  0  0  0  0  0  0  0  0  0  0  0
   -1.7097    1.2270   -1.4699 C   0  0  0  0  0  0  0  0  0  0  0  0
   -0.7839    1.2497   -2.5302 C   0  0  0  0  0  0  0  0  0  0  0  0
    0.2746    1.1650   -2.3284 H   0  0  0  0  0  0  0  0  0  0  0  0
   -1.2340    1.3710   -3.8578 C   0  0  0  0  0  0  0  0  0  0  0  0
   -0.5213    1.3908   -4.6702 H   0  0  0  0  0  0  0  0  0  0  0  0
   -2.6097    1.4679   -4.1277 C   0  0  0  0  0  0  0  0  0  0  0  0
   -2.9553    1.5635   -5.1475 H   0  0  0  0  0  0  0  0  0  0  0  0
   -3.5374    1.4471   -3.0704 C   0  0  0  0  0  0  0  0  0  0  0  0
   -4.5945    1.5270   -3.2773 H   0  0  0  0  0  0  0  0  0  0  0  0
   -3.0870    1.3291   -1.7435 C   0  0  0  0  0  0  0  0  0  0  0  0
   -3.8016    1.3166   -0.9307 H   0  0  0  0  0  0  0  0  0  0  0  0
   -0.2370   -0.5116    1.7093 C   0  0  0  0  0  0  0  0  0  0  0  0
    0.7517   -1.2350    1.8383 O   0  0  0  0  0  0  0  0  0  0  0  0
   -0.7392    0.2041    2.7235 N   0  0  0  0  0  0  0  0  0  0  0  0
   -1.5838    0.7286    2.5534 H   0  0  0  0  0  0  0  0  0  0  0  0
   -0.1892    0.2106    4.0769 C   0  0  0  0  0  0  0  0  0  0  0  0
    0.8801    0.4292    4.0403 H   0  0  0  0  0  0  0  0  0  0  0  0
   -0.6899    0.9655    4.6837 H   0  0  0  0  0  0  0  0  0  0  0  0
   -0.3287   -0.7707    4.5347 H   0  0  0  0  0  0  0  0  0  0  0  0
  5  6  2  0  0  0  0
  5  7  1  0  0  0  0
  2  3  1  0  0  0  0
  2  4  1  0  0  0  0
  2  5  1  0  0  0  0
  1  2  1  0  0  0  0
 25 26  2  0  0  0  0
 25 27  1  0  0  0  0
 23 24  1  0  0  0  0
 21 22  1  0  0  0  0
 21 23  2  0  0  0  0
 19 20  1  0  0  0  0
 19 21  1  0  0  0  0
 17 18  1  0  0  0  0
 17 19  2  0  0  0  0
 15 16  1  0  0  0  0
 15 17  1  0  0  0  0
 14 15  2  0  0  0  0
 14 23  1  0  0  0  0
 11 12  1  0  0  0  0
 11 13  1  0  0  0  0
 11 14  1  0  0  0  0
  9 10  1  0  0  0  0
  9 11  1  0  0  0  0
  9 25  1  0  0  0  0
  7  8  1  0  0  0  0
  7  9  1  0  0  0  0
 29 30  1  0  0  0  0
 29 31  1  0  0  0  0
 29 32  1  0  0  0  0
 27 28  1  0  0  0  0
 27 29  1  0  0  0  0
M  END
$$$$
default_name
  -OEChem-01062215323D

 32 32  0     1  0  0  0  0  0999 V2000
   -3.8405   -3.7518    1.6252 H   0  0  0  0  0  0  0  0  0  0  0  0
   -3.7965   -2.8768    0.9782 C   0  0  0  0  0  0  0  0  0  0  0  0
   -4.5465   -2.1527    1.2902 H   0  0  0  0  0  0  0  0  0  0  0  0
   -3.9745   -3.1748   -0.0538 H   0  0  0  0  0  0  0  0  0  0  0  0
   -2.4245   -2.2537    1.0882 C   0  0  0  0  0  0  0  0  0  0  0  0
   -1.5805   -2.7478    1.8242 O   0  0  0  0  0  0  0  0  0  0  0  0
   -2.2045   -1.1637    0.3562 N   0  0  0  0  0  0  0  0  0  0  0  0
   -2.9595   -0.7907   -0.2008 H   0  0  0  0  0  0  0  0  0  0  0  0
   -0.9485   -0.4087    0.3482 C   0  0  1  0  0  0  0  0  0  0  0  0
   -0.2875   -0.8403   -0.4052 H   0  0  0  0  0  0  0  0  0  0  0  0
   -1.2360    1.0518   -0.0396 C   0  0  0  0  0  0  0  0  0  0  0  0
   -2.0059    1.4502    0.6228 H   0  0  0  0  0  0  0  0  0  0  0  0
   -0.3324    1.6434    0.1154 H   0  0  0  0  0  0  0  0  0  0  0  0
   -1.7097    1.2270   -1.4699 C   0  0  0  0  0  0  0  0  0  0  0  0
   -0.7839    1.2497   -2.5302 C   0  0  0  0  0  0  0  0  0  0  0  0
    0.2746    1.1650   -2.3284 H   0  0  0  0  0  0  0  0  0  0  0  0
   -1.2340    1.3710   -3.8578 C   0  0  0  0  0  0  0  0  0  0  0  0
   -0.5213    1.3908   -4.6702 H   0  0  0  0  0  0  0  0  0  0  0  0
   -2.6097    1.4679   -4.1277 C   0  0  0  0  0  0  0  0  0  0  0  0
   -2.9553    1.5635   -5.1475 H   0  0  0  0  0  0  0  0  0  0  0  0
   -3.5374    1.4471   -3.0704 C   0  0  0  0  0  0  0  0  0  0  0  0
   -4.5945    1.5270   -3.2773 H   0  0  0  0  0  0  0  0  0  0  0  0
   -3.0870    1.3291   -1.7435 C   0  0  0  0  0  0  0  0  0  0  0  0
   -3.8016    1.3166   -0.9307 H   0  0  0  0  0  0  0  0  0  0  0  0
   -0.2370   -0.5116    1.7093 C   0  0  0  0  0  0  0  0  0  0  0  0
    0.8910   -1.0009    1.7831 O   0  0  0  0  0  0  0  0  0  0  0  0
   -0.8937   -0.0579    2.7845 N   0  0  0  0  0  0  0  0  0  0  0  0
   -1.8357    0.2770    2.6510 H   0  0  0  0  0  0  0  0  0  0  0  0
   -0.3645   -0.0910    4.1457 C   0  0  0  0  0  0  0  0  0  0  0  0
    0.6260    0.3682    4.1685 H   0  0  0  0  0  0  0  0  0  0  0  0
   -1.0274    0.4504    4.8212 H   0  0  0  0  0  0  0  0  0  0  0  0
   -0.2762   -1.1265    4.4804 H   0  0  0  0  0  0  0  0  0  0  0  0
  5  6  2  0  0  0  0
  5  7  1  0  0  0  0
  2  3  1  0  0  0  0
  2  4  1  0  0  0  0
  2  5  1  0  0  0  0
  1  2  1  0  0  0  0
 25 26  2  0  0  0  0
 25 27  1  0  0  0  0
 23 24  1  0  0  0  0
 21 22  1  0  0  0  0
 21 23  2  0  0  0  0
 19 20  1  0  0  0  0
 19 21  1  0  0  0  0
 17 18  1  0  0  0  0
 17 19  2  0  0  0  0
 15 16  1  0  0  0  0
 15 17  1  0  0  0  0
 14 15  2  0  0  0  0
 14 23  1  0  0  0  0
 11 12  1  0  0  0  0
 11 13  1  0  0  0  0
 11 14  1  0  0  0  0
  9 10  1  0  0  0  0
  9 11  1  0  0  0  0
  9 25  1  0  0  0  0
  7  8  1  0  0  0  0
  7  9  1  0  0  0  0
 29 30  1  0  0  0  0
 29 31  1  0  0  0  0
 29 32  1  0  0  0  0
 27 28  1  0  0  0  0
 27 29  1  0  0  0  0
M  END
$$$$
default_name
  -OEChem-01062215323D

 32 32  0     1  0  0  0  0  0999 V2000
   -3.8405   -3.7518    1.6252 H   0  0  0  0  0  0  0  0  0  0  0  0
   -3.7965   -2.8768    0.9782 C   0  0  0  0  0  0  0  0  0  0  0  0
   -4.5465   -2.1527    1.2902 H   0  0  0  0  0  0  0  0  0  0  0  0
   -3.9745   -3.1748   -0.0538 H   0  0  0  0  0  0  0  0  0  0  0  0
   -2.4245   -2.2537    1.0882 C   0  0  0  0  0  0  0  0  0  0  0  0
   -1.5805   -2.7478    1.8242 O   0  0  0  0  0  0  0  0  0  0  0  0
   -2.2045   -1.1637    0.3562 N   0  0  0  0  0  0  0  0  0  0  0  0
   -2.9595   -0.7907   -0.2008 H   0  0  0  0  0  0  0  0  0  0  0  0
   -0.9485   -0.4087    0.3482 C   0  0  1  0  0  0  0  0  0  0  0  0
   -0.2875   -0.8403   -0.4052 H   0  0  0  0  0  0  0  0  0  0  0  0
   -1.2360    1.0518   -0.0396 C   0  0  0  0  0  0  0  0  0  0  0  0
   -2.0059    1.4502    0.6228 H   0  0  0  0  0  0  0  0  0  0  0  0
   -0.3324    1.6434    0.1154 H   0  0  0  0  0  0  0  0  0  0  0  0
   -1.7097    1.2270   -1.4699 C   0  0  0  0  0  0  0  0  0  0  0  0
   -0.7839    1.2497   -2.5302 C   0  0  0  0  0  0  0  0  0  0  0  0
    0.2746    1.1650   -2.3284 H   0  0  0  0  0  0  0  0  0  0  0  0
   -1.2340    1.3710   -3.8578 C   0  0  0  0  0  0  0  0  0  0  0  0
   -0.5213    1.3908   -4.6702 H   0  0  0  0  0  0  0  0  0  0  0  0
   -2.6097    1.4679   -4.1277 C   0  0  0  0  0  0  0  0  0  0  0  0
   -2.9553    1.5635   -5.1475 H   0  0  0  0  0  0  0  0  0  0  0  0
   -3.5374    1.4471   -3.0704 C   0  0  0  0  0  0  0  0  0  0  0  0
   -4.5945    1.5270   -3.2773 H   0  0  0  0  0  0  0  0  0  0  0  0
   -3.0870    1.3291   -1.7435 C   0  0  0  0  0  0  0  0  0  0  0  0
   -3.8016    1.3166   -0.9307 H   0  0  0  0  0  0  0  0  0  0  0  0
   -0.2370   -0.5116    1.7093 C   0  0  0  0  0  0  0  0  0  0  0  0
    0.9731   -0.7363    1.7603 O   0  0  0  0  0  0  0  0  0  0  0  0
   -0.9841   -0.3537    2.8093 N   0  0  0  0  0  0  0  0  0  0  0  0
   -1.9774   -0.2285    2.6868 H   0  0  0  0  0  0  0  0  0  0  0  0
   -0.4660   -0.4307    4.1731 C   0  0  0  0  0  0  0  0  0  0  0  0
    0.3923    0.2359    4.2807 H   0  0  0  0  0  0  0  0  0  0  0  0
   -1.2379   -0.1408    4.8865 H   0  0  0  0  0  0  0  0  0  0  0  0
   -0.1431   -1.4516    4.3863 H   0  0  0  0  0  0  0  0  0  0  0  0
  5  6  2  0  0  0  0
  5  7  1  0  0  0  0
  2  3  1  0  0  0  0
  2  4  1  0  0  0  0
  2  5  1  0  0  0  0
  1  2  1  0  0  0  0
 25 26  2  0  0  0  0
 25 27  1  0  0  0  0
 23 24  1  0  0  0  0
 21 22  1  0  0  0  0
 21 23  2  0  0  0  0
 19 20  1  0  0  0  0
 19 21  1  0  0  0  0
 17 18  1  0  0  0  0
 17 19  2  0  0  0  0
 15 16  1  0  0  0  0
 15 17  1  0  0  0  0
 14 15  2  0  0  0  0
 14 23  1  0  0  0  0
 11 12  1  0  0  0  0
 11 13  1  0  0  0  0
 11 14  1  0  0  0  0
  9 10  1  0  0  0  0
  9 11  1  0  0  0  0
  9 25  1  0  0  0  0
  7  8  1  0  0  0  0
  7  9  1  0  0  0  0
 29 30  1  0  0  0  0
 29 31  1  0  0  0  0
 29 32  1  0  0  0  0
 27 28  1  0  0  0  0
 27 29  1  0  0  0  0
M  END
$$$$
default_name
  -OEChem-01062215323D

 32 32  0     1  0  0  0  0  0999 V2000
   -3.8405   -3.7518    1.6252 H   0  0  0  0  0  0  0  0  0  0  0  0
   -3.7965   -2.8768    0.9782 C   0  0  0  0  0  0  0  0  0  0  0  0
   -4.5465   -2.1527    1.2902 H   0  0  0  0  0  0  0  0  0  0  0  0
   -3.9745   -3.1748   -0.0538 H   0  0  0  0  0  0  0  0  0  0  0  0
   -2.4245   -2.2537    1.0882 C   0  0  0  0  0  0  0  0  0  0  0  0
   -1.5805   -2.7478    1.8242 O   0  0  0  0  0  0  0  0  0  0  0  0
   -2.2045   -1.1637    0.3562 N   0  0  0  0  0  0  0  0  0  0  0  0
   -2.9595   -0.7907   -0.2008 H   0  0  0  0  0  0  0  0  0  0  0  0
   -0.9485   -0.4087    0.3482 C   0  0  1  0  0  0  0  0  0  0  0  0
   -0.2875   -0.8403   -0.4052 H   0  0  0  0  0  0  0  0  0  0  0  0
   -1.2360    1.0518   -0.0396 C   0  0  0  0  0  0  0  0  0  0  0  0
   -2.0059    1.4502    0.6228 H   0  0  0  0  0  0  0  0  0  0  0  0
   -0.3324    1.6434    0.1154 H   0  0  0  0  0  0  0  0  0  0  0  0
   -1.7097    1.2270   -1.4699 C   0  0  0  0  0  0  0  0  0  0  0  0
   -0.7839    1.2497   -2.5302 C   0  0  0  0  0  0  0  0  0  0  0  0
    0.2746    1.1650   -2.3284 H   0  0  0  0  0  0  0  0  0  0  0  0
   -1.2340    1.3710   -3.8578 C   0  0  0  0  0  0  0  0  0  0  0  0
   -0.5213    1.3908   -4.6702 H   0  0  0  0  0  0  0  0  0  0  0  0
   -2.6097    1.4679   -4.1277 C   0  0  0  0  0  0  0  0  0  0  0  0
   -2.9553    1.5635   -5.1475 H   0  0  0  0  0  0  0  0  0  0  0  0
   -3.5374    1.4471   -3.0704 C   0  0  0  0  0  0  0  0  0  0  0  0
   -4.5945    1.5270   -3.2773 H   0  0  0  0  0  0  0  0  0  0  0  0
   -3.0870    1.3291   -1.7435 C   0  0  0  0  0  0  0  0  0  0  0  0
   -3.8016    1.3166   -0.9307 H   0  0  0  0  0  0  0  0  0  0  0  0
   -0.2370   -0.5116    1.7093 C   0  0  0  0  0  0  0  0  0  0  0  0
    0.9921   -0.4592    1.7712 O   0  0  0  0  0  0  0  0  0  0  0  0
   -1.0041   -0.6631    2.7964 N   0  0  0  0  0  0  0  0  0  0  0  0
   -1.9991   -0.7534    2.6585 H   0  0  0  0  0  0  0  0  0  0  0  0
   -0.4867   -0.7853    4.1572 C   0  0  0  0  0  0  0  0  0  0  0  0
    0.1949    0.0411    4.3692 H   0  0  0  0  0  0  0  0  0  0  0  0
   -1.3070   -0.7679    4.8753 H   0  0  0  0  0  0  0  0  0  0  0  0
    0.0615   -1.7239    4.2587 H   0  0  0  0  0  0  0  0  0  0  0  0
  5  6  2  0  0  0  0
  5  7  1  0  0  0  0
  2  3  1  0  0  0  0
  2  4  1  0  0  0  0
  2  5  1  0  0  0  0
  1  2  1  0  0  0  0
 25 26  2  0  0  0  0
 25 27  1  0  0  0  0
 23 24  1  0  0  0  0
 21 22  1  0  0  0  0
 21 23  2  0  0  0  0
 19 20  1  0  0  0  0
 19 21  1  0  0  0  0
 17 18  1  0  0  0  0
 17 19  2  0  0  0  0
 15 16  1  0  0  0  0
 15 17  1  0  0  0  0
 14 15  2  0  0  0  0
 14 23  1  0  0  0  0
 11 12  1  0  0  0  0
 11 13  1  0  0  0  0
 11 14  1  0  0  0  0
  9 10  1  0  0  0  0
  9 11  1  0  0  0  0
  9 25  1  0  0  0  0
  7  8  1  0  0  0  0
  7  9  1  0  0  0  0
 29 30  1  0  0  0  0
 29 31  1  0  0  0  0
 29 32  1  0  0  0  0
 27 28  1  0  0  0  0
 27 29  1  0  0  0  0
M  END
$$$$
default_name
  -OEChem-01062215323D

 32 32  0     1  0  0  0  0  0999 V2000
   -3.8405   -3.7518    1.6252 H   0  0  0  0  0  0  0  0  0  0  0  0
   -3.7965   -2.8768    0.9782 C   0  0  0  0  0  0  0  0  0  0  0  0
   -4.5465   -2.1527    1.2902 H   0  0  0  0  0  0  0  0  0  0  0  0
   -3.9745   -3.1748   -0.0538 H   0  0  0  0  0  0  0  0  0  0  0  0
   -2.4245   -2.2537    1.0882 C   0  0  0  0  0  0  0  0  0  0  0  0
   -1.5805   -2.7478    1.8242 O   0  0  0  0  0  0  0  0  0  0  0  0
   -2.2045   -1.1637    0.3562 N   0  0  0  0  0  0  0  0  0  0  0  0
   -2.9595   -0.7907   -0.2008 H   0  0  0  0  0  0  0  0  0  0  0  0
   -0.9485   -0.4087    0.3482 C   0  0  1  0  0  0  0  0  0  0  0  0
   -0.2875   -0.8403   -0.4052 H   0  0  0  0  0  0  0  0  0  0  0  0
   -1.2360    1.0518   -0.0396 C   0  0  0  0  0  0  0  0  0  0  0  0
   -2.0059    1.4502    0.6228 H   0  0  0  0  0  0  0  0  0  0  0  0
   -0.3324    1.6434    0.1154 H   0  0  0  0  0  0  0  0  0  0  0  0
   -1.7097    1.2270   -1.4699 C   0  0  0  0  0  0  0  0  0  0  0  0
   -0.7839    1.2497   -2.5302 C   0  0  0  0  0  0  0  0  0  0  0  0
    0.2746    1.1650   -2.3284 H   0  0  0  0  0  0  0  0  0  0  0  0
   -1.2340    1.3710   -3.8578 C   0  0  0  0  0  0  0  0  0  0  0  0
   -0.5213    1.3908   -4.6702 H   0  0  0  0  0  0  0  0  0  0  0  0
   -2.6097    1.4679   -4.1277 C   0  0  0  0  0  0  0  0  0  0  0  0
   -2.9553    1.5635   -5.1475 H   0  0  0  0  0  0  0  0  0  0  0  0
   -3.5374    1.4471   -3.0704 C   0  0  0  0  0  0  0  0  0  0  0  0
   -4.5945    1.5270   -3.2773 H   0  0  0  0  0  0  0  0  0  0  0  0
   -3.0870    1.3291   -1.7435 C   0  0  0  0  0  0  0  0  0  0  0  0
   -3.8016    1.3166   -0.9307 H   0  0  0  0  0  0  0  0  0  0  0  0
   -0.2370   -0.5116    1.7093 C   0  0  0  0  0  0  0  0  0  0  0  0
    0.9469   -0.1885    1.8153 O   0  0  0  0  0  0  0  0  0  0  0  0
   -0.9524   -0.9649    2.7466 N   0  0  0  0  0  0  0  0  0  0  0  0
   -1.8995   -1.2621    2.5680 H   0  0  0  0  0  0  0  0  0  0  0  0
   -0.4254   -1.1307    4.0990 C   0  0  0  0  0  0  0  0  0  0  0  0
    0.0473   -0.2028    4.4279 H   0  0  0  0  0  0  0  0  0  0  0  0
   -1.2301   -1.3880    4.7882 H   0  0  0  0  0  0  0  0  0  0  0  0
    0.3236   -1.9249    4.1065 H   0  0  0  0  0  0  0  0  0  0  0  0
  5  6  2  0  0  0  0
  5  7  1  0  0  0  0
  2  3  1  0  0  0  0
  2  4  1  0  0  0  0
  2  5  1  0  0  0  0
  1  2  1  0  0  0  0
 25 26  2  0  0  0  0
 25 27  1  0  0  0  0
 23 24  1  0  0  0  0
 21 22  1  0  0  0  0
 21 23  2  0  0  0  0
 19 20  1  0  0  0  0
 19 21  1  0  0  0  0
 17 18  1  0  0  0  0
 17 19  2  0  0  0  0
 15 16  1  0  0  0  0
 15 17  1  0  0  0  0
 14 15  2  0  0  0  0
 14 23  1  0  0  0  0
 11 12  1  0  0  0  0
 11 13  1  0  0  0  0
 11 14  1  0  0  0  0
  9 10  1  0  0  0  0
  9 11  1  0  0  0  0
  9 25  1  0  0  0  0
  7  8  1  0  0  0  0
  7  9  1  0  0  0  0
 29 30  1  0  0  0  0
 29 31  1  0  0  0  0
 29 32  1  0  0  0  0
 27 28  1  0  0  0  0
 27 29  1  0  0  0  0
M  END
$$$$
default_name
  -OEChem-01062215323D

 32 32  0     1  0  0  0  0  0999 V2000
   -3.8405   -3.7518    1.6252 H   0  0  0  0  0  0  0  0  0  0  0  0
   -3.7965   -2.8768    0.9782 C   0  0  0  0  0  0  0  0  0  0  0  0
   -4.5465   -2.1527    1.2902 H   0  0  0  0  0  0  0  0  0  0  0  0
   -3.9745   -3.1748   -0.0538 H   0  0  0  0  0  0  0  0  0  0  0  0
   -2.4245   -2.2537    1.0882 C   0  0  0  0  0  0  0  0  0  0  0  0
   -1.5805   -2.7478    1.8242 O   0  0  0  0  0  0  0  0  0  0  0  0
   -2.2045   -1.1637    0.3562 N   0  0  0  0  0  0  0  0  0  0  0  0
   -2.9595   -0.7907   -0.2008 H   0  0  0  0  0  0  0  0  0  0  0  0
   -0.9485   -0.4087    0.3482 C   0  0  1  0  0  0  0  0  0  0  0  0
   -0.2875   -0.8403   -0.4052 H   0  0  0  0  0  0  0  0  0  0  0  0
   -1.2360    1.0518   -0.0396 C   0  0  0  0  0  0  0  0  0  0  0  0
   -2.0059    1.4502    0.6228 H   0  0  0  0  0  0  0  0  0  0  0  0
   -0.3324    1.6434    0.1154 H   0  0  0  0  0  0  0  0  0  0  0  0
   -1.7097    1.2270   -1.4699 C   0  0  0  0  0  0  0  0  0  0  0  0
   -0.7839    1.2497   -2.5302 C   0  0  0  0  0  0  0  0  0  0  0  0
    0.2746    1.1650   -2.3284 H   0  0  0  0  0  0  0  0  0  0  0  0
   -1.2340    1.3710   -3.8578 C   0  0  0  0  0  0  0  0  0  0  0  0
   -0.5213    1.3908   -4.6702 H   0  0  0  0  0  0  0  0  0  0  0  0
   -2.6097    1.4679   -4.1277 C   0  0  0  0  0  0  0  0  0  0  0  0
   -2.9553    1.5635   -5.1475 H   0  0  0  0  0  0  0  0  0  0  0  0
   -3.5374    1.4471   -3.0704 C   0  0  0  0  0  0  0  0  0  0  0  0
   -4.5945    1.5270   -3.2773 H   0  0  0  0  0  0  0  0  0  0  0  0
   -3.0870    1.3291   -1.7435 C   0  0  0  0  0  0  0  0  0  0  0  0
   -3.8016    1.3166   -0.9307 H   0  0  0  0  0  0  0  0  0  0  0  0
   -0.2370   -0.5116    1.7093 C   0  0  0  0  0  0  0  0  0  0  0  0
    0.8406    0.0573    1.8895 O   0  0  0  0  0  0  0  0  0  0  0  0
   -0.8325   -1.2387    2.6632 N   0  0  0  0  0  0  0  0  0  0  0  0
   -1.6853   -1.7198    2.4214 H   0  0  0  0  0  0  0  0  0  0  0  0
   -0.2861   -1.4433    4.0026 C   0  0  0  0  0  0  0  0  0  0  0  0
   -0.0405   -0.4792    4.4529 H   0  0  0  0  0  0  0  0  0  0  0  0
   -1.0124   -1.9591    4.6313 H   0  0  0  0  0  0  0  0  0  0  0  0
    0.6254   -2.0409    3.9400 H   0  0  0  0  0  0  0  0  0  0  0  0
  5  6  2  0  0  0  0
  5  7  1  0  0  0  0
  2  3  1  0  0  0  0
  2  4  1  0  0  0  0
  2  5  1  0  0  0  0
  1  2  1  0  0  0  0
 25 26  2  0  0  0  0
 25 27  1  0  0  0  0
 23 24  1  0  0  0  0
 21 22  1  0  0  0  0
 21 23  2  0  0  0  0
 19 20  1  0  0  0  0
 19 21  1  0  0  0  0
 17 18  1  0  0  0  0
 17 19  2  0  0  0  0
 15 16  1  0  0  0  0
 15 17  1  0  0  0  0
 14 15  2  0  0  0  0
 14 23  1  0  0  0  0
 11 12  1  0  0  0  0
 11 13  1  0  0  0  0
 11 14  1  0  0  0  0
  9 10  1  0  0  0  0
  9 11  1  0  0  0  0
  9 25  1  0  0  0  0
  7  8  1  0  0  0  0
  7  9  1  0  0  0  0
 29 30  1  0  0  0  0
 29 31  1  0  0  0  0
 29 32  1  0  0  0  0
 27 28  1  0  0  0  0
 27 29  1  0  0  0  0
M  END
$$$$
default_name
  -OEChem-01062215323D

 32 32  0     1  0  0  0  0  0999 V2000
   -3.8405   -3.7518    1.6252 H   0  0  0  0  0  0  0  0  0  0  0  0
   -3.7965   -2.8768    0.9782 C   0  0  0  0  0  0  0  0  0  0  0  0
   -4.5465   -2.1527    1.2902 H   0  0  0  0  0  0  0  0  0  0  0  0
   -3.9745   -3.1748   -0.0538 H   0  0  0  0  0  0  0  0  0  0  0  0
   -2.4245   -2.2537    1.0882 C   0  0  0  0  0  0  0  0  0  0  0  0
   -1.5805   -2.7478    1.8242 O   0  0  0  0  0  0  0  0  0  0  0  0
   -2.2045   -1.1637    0.3562 N   0  0  0  0  0  0  0  0  0  0  0  0
   -2.9595   -0.7907   -0.2008 H   0  0  0  0  0  0  0  0  0  0  0  0
   -0.9485   -0.4087    0.3482 C   0  0  1  0  0  0  0  0  0  0  0  0
   -0.2875   -0.8403   -0.4052 H   0  0  0  0  0  0  0  0  0  0  0  0
   -1.2360    1.0518   -0.0396 C   0  0  0  0  0  0  0  0  0  0  0  0
   -2.0059    1.4502    0.6228 H   0  0  0  0  0  0  0  0  0  0  0  0
   -0.3324    1.6434    0.1154 H   0  0  0  0  0  0  0  0  0  0  0  0
   -1.7097    1.2270   -1.4699 C   0  0  0  0  0  0  0  0  0  0  0  0
   -0.7839    1.2497   -2.5302 C   0  0  0  0  0  0  0  0  0  0  0  0
    0.2746    1.1650   -2.3284 H   0  0  0  0  0  0  0  0  0  0  0  0
   -1.2340    1.3710   -3.8578 C   0  0  0  0  0  0  0  0  0  0  0  0
   -0.5213    1.3908   -4.6702 H   0  0  0  0  0  0  0  0  0  0  0  0
   -2.6097    1.4679   -4.1277 C   0  0  0  0  0  0  0  0  0  0  0  0
   -2.9553    1.5635   -5.1475 H   0  0  0  0  0  0  0  0  0  0  0  0
   -3.5374    1.4471   -3.0704 C   0  0  0  0  0  0  0  0  0  0  0  0
   -4.5945    1.5270   -3.2773 H   0  0  0  0  0  0  0  0  0  0  0  0
   -3.0870    1.3291   -1.7435 C   0  0  0  0  0  0  0  0  0  0  0  0
   -3.8016    1.3166   -0.9307 H   0  0  0  0  0  0  0  0  0  0  0  0
   -0.2370   -0.5116    1.7093 C   0  0  0  0  0  0  0  0  0  0  0  0
    0.6803    0.2616    1.9887 O   0  0  0  0  0  0  0  0  0  0  0  0
   -0.6526   -1.4657    2.5520 N   0  0  0  0  0  0  0  0  0  0  0  0
   -1.3711   -2.0954    2.2288 H   0  0  0  0  0  0  0  0  0  0  0  0
   -0.0783   -1.7018    3.8744 C   0  0  0  0  0  0  0  0  0  0  0  0
   -0.0624   -0.7693    4.4424 H   0  0  0  0  0  0  0  0  0  0  0  0
   -0.6687   -2.4420    4.4151 H   0  0  0  0  0  0  0  0  0  0  0  0
    0.9464   -2.0639    3.7705 H   0  0  0  0  0  0  0  0  0  0  0  0
  5  6  2  0  0  0  0
  5  7  1  0  0  0  0
  2  3  1  0  0  0  0
  2  4  1  0  0  0  0
  2  5  1  0  0  0  0
  1  2  1  0  0  0  0
 25 26  2  0  0  0  0
 25 27  1  0  0  0  0
 23 24  1  0  0  0  0
 21 22  1  0  0  0  0
 21 23  2  0  0  0  0
 19 20  1  0  0  0  0
 19 21  1  0  0  0  0
 17 18  1  0  0  0  0
 17 19  2  0  0  0  0
 15 16  1  0  0  0  0
 15 17  1  0  0  0  0
 14 15  2  0  0  0  0
 14 23  1  0  0  0  0
 11 12  1  0  0  0  0
 11 13  1  0  0  0  0
 11 14  1  0  0  0  0
  9 10  1  0  0  0  0
  9 11  1  0  0  0  0
  9 25  1  0  0  0  0
  7  8  1  0  0  0  0
  7  9  1  0  0  0  0
 29 30  1  0  0  0  0
 29 31  1  0  0  0  0
 29 32  1  0  0  0  0
 27 28  1  0  0  0  0
 27 29  1  0  0  0  0
M  END
$$$$
default_name
  -OEChem-01062215323D

 32 32  0     1  0  0  0  0  0999 V2000
   -3.8405   -3.7518    1.6252 H   0  0  0  0  0  0  0  0  0  0  0  0
   -3.7965   -2.8768    0.9782 C   0  0  0  0  0  0  0  0  0  0  0  0
   -4.5465   -2.1527    1.2902 H   0  0  0  0  0  0  0  0  0  0  0  0
   -3.9745   -3.1748   -0.0538 H   0  0  0  0  0  0  0  0  0  0  0  0
   -2.4245   -2.2537    1.0882 C   0  0  0  0  0  0  0  0  0  0  0  0
   -1.5805   -2.7478    1.8242 O   0  0  0  0  0  0  0  0  0  0  0  0
   -2.2045   -1.1637    0.3562 N   0  0  0  0  0  0  0  0  0  0  0  0
   -2.9595   -0.7907   -0.2008 H   0  0  0  0  0  0  0  0  0  0  0  0
   -0.9485   -0.4087    0.3482 C   0  0  1  0  0  0  0  0  0  0  0  0
   -0.2875   -0.8403   -0.4052 H   0  0  0  0  0  0  0  0  0  0  0  0
   -1.2360    1.0518   -0.0396 C   0  0  0  0  0  0  0  0  0  0  0  0
   -2.0059    1.4502    0.6228 H   0  0  0  0  0  0  0  0  0  0  0  0
   -0.3324    1.6434    0.1154 H   0  0  0  0  0  0  0  0  0  0  0  0
   -1.7097    1.2270   -1.4699 C   0  0  0  0  0  0  0  0  0  0  0  0
   -0.7839    1.2497   -2.5302 C   0  0  0  0  0  0  0  0  0  0  0  0
    0.2746    1.1650   -2.3284 H   0  0  0  0  0  0  0  0  0  0  0  0
   -1.2340    1.3710   -3.8578 C   0  0  0  0  0  0  0  0  0  0  0  0
   -0.5213    1.3908   -4.6702 H   0  0  0  0  0  0  0  0  0  0  0  0
   -2.6097    1.4679   -4.1277 C   0  0  0  0  0  0  0  0  0  0  0  0
   -2.9553    1.5635   -5.1475 H   0  0  0  0  0  0  0  0  0  0  0  0
   -3.5374    1.4471   -3.0704 C   0  0  0  0  0  0  0  0  0  0  0  0
   -4.5945    1.5270   -3.2773 H   0  0  0  0  0  0  0  0  0  0  0  0
   -3.0870    1.3291   -1.7435 C   0  0  0  0  0  0  0  0  0  0  0  0
   -3.8016    1.3166   -0.9307 H   0  0  0  0  0  0  0  0  0  0  0  0
   -0.2370   -0.5116    1.7093 C   0  0  0  0  0  0  0  0  0  0  0  0
    0.4770    0.4104    2.1062 O   0  0  0  0  0  0  0  0  0  0  0  0
   -0.4249   -1.6305    2.4206 N   0  0  0  0  0  0  0  0  0  0  0  0
   -0.9784   -2.3632    2.0033 H   0  0  0  0  0  0  0  0  0  0  0  0
    0.1838   -1.8886    3.7233 C   0  0  0  0  0  0  0  0  0  0  0  0
   -0.0171   -1.0532    4.3973 H   0  0  0  0  0  0  0  0  0  0  0  0
   -0.2224   -2.8040    4.1545 H   0  0  0  0  0  0  0  0  0  0  0  0
    1.2646   -1.9924    3.6095 H   0  0  0  0  0  0  0  0  0  0  0  0
  5  6  2  0  0  0  0
  5  7  1  0  0  0  0
  2  3  1  0  0  0  0
  2  4  1  0  0  0  0
  2  5  1  0  0  0  0
  1  2  1  0  0  0  0
 25 26  2  0  0  0  0
 25 27  1  0  0  0  0
 23 24  1  0  0  0  0
 21 22  1  0  0  0  0
 21 23  2  0  0  0  0
 19 20  1  0  0  0  0
 19 21  1  0  0  0  0
 17 18  1  0  0  0  0
 17 19  2  0  0  0  0
 15 16  1  0  0  0  0
 15 17  1  0  0  0  0
 14 15  2  0  0  0  0
 14 23  1  0  0  0  0
 11 12  1  0  0  0  0
 11 13  1  0  0  0  0
 11 14  1  0  0  0  0
  9 10  1  0  0  0  0
  9 11  1  0  0  0  0
  9 25  1  0  0  0  0
  7  8  1  0  0  0  0
  7  9  1  0  0  0  0
 29 30  1  0  0  0  0
 29 31  1  0  0  0  0
 29 32  1  0  0  0  0
 27 28  1  0  0  0  0
 27 29  1  0  0  0  0
M  END
$$$$
default_name
  -OEChem-01062215323D

 32 32  0     1  0  0  0  0  0999 V2000
   -3.8405   -3.7518    1.6252 H   0  0  0  0  0  0  0  0  0  0  0  0
   -3.7965   -2.8768    0.9782 C   0  0  0  0  0  0  0  0  0  0  0  0
   -4.5465   -2.1527    1.2902 H   0  0  0  0  0  0  0  0  0  0  0  0
   -3.9745   -3.1748   -0.0538 H   0  0  0  0  0  0  0  0  0  0  0  0
   -2.4245   -2.2537    1.0882 C   0  0  0  0  0  0  0  0  0  0  0  0
   -1.5805   -2.7478    1.8242 O   0  0  0  0  0  0  0  0  0  0  0  0
   -2.2045   -1.1637    0.3562 N   0  0  0  0  0  0  0  0  0  0  0  0
   -2.9595   -0.7907   -0.2008 H   0  0  0  0  0  0  0  0  0  0  0  0
   -0.9485   -0.4087    0.3482 C   0  0  1  0  0  0  0  0  0  0  0  0
   -0.2875   -0.8403   -0.4052 H   0  0  0  0  0  0  0  0  0  0  0  0
   -1.2360    1.0518   -0.0396 C   0  0  0  0  0  0  0  0  0  0  0  0
   -2.0059    1.4502    0.6228 H   0  0  0  0  0  0  0  0  0  0  0  0
   -0.3324    1.6434    0.1154 H   0  0  0  0  0  0  0  0  0  0  0  0
   -1.7097    1.2270   -1.4699 C   0  0  0  0  0  0  0  0  0  0  0  0
   -0.7839    1.2497   -2.5302 C   0  0  0  0  0  0  0  0  0  0  0  0
    0.2746    1.1650   -2.3284 H   0  0  0  0  0  0  0  0  0  0  0  0
   -1.2340    1.3710   -3.8578 C   0  0  0  0  0  0  0  0  0  0  0  0
   -0.5213    1.3908   -4.6702 H   0  0  0  0  0  0  0  0  0  0  0  0
   -2.6097    1.4679   -4.1277 C   0  0  0  0  0  0  0  0  0  0  0  0
   -2.9553    1.5635   -5.1475 H   0  0  0  0  0  0  0  0  0  0  0  0
   -3.5374    1.4471   -3.0704 C   0  0  0  0  0  0  0  0  0  0  0  0
   -4.5945    1.5270   -3.2773 H   0  0  0  0  0  0  0  0  0  0  0  0
   -3.0870    1.3291   -1.7435 C   0  0  0  0  0  0  0  0  0  0  0  0
   -3.8016    1.3166   -0.9307 H   0  0  0  0  0  0  0  0  0  0  0  0
   -0.2370   -0.5116    1.7093 C   0  0  0  0  0  0  0  0  0  0  0  0
    0.2445    0.4935    2.2340 O   0  0  0  0  0  0  0  0  0  0  0  0
   -0.1650   -1.7219    2.2778 N   0  0  0  0  0  0  0  0  0  0  0  0
   -0.5338   -2.5051    1.7602 H   0  0  0  0  0  0  0  0  0  0  0  0
    0.4823   -1.9910    3.5595 C   0  0  0  0  0  0  0  0  0  0  0  0
    0.0925   -1.3117    4.3205 H   0  0  0  0  0  0  0  0  0  0  0  0
    0.2960   -3.0203    3.8671 H   0  0  0  0  0  0  0  0  0  0  0  0
    1.5584   -1.8312    3.4682 H   0  0  0  0  0  0  0  0  0  0  0  0
  5  6  2  0  0  0  0
  5  7  1  0  0  0  0
  2  3  1  0  0  0  0
  2  4  1  0  0  0  0
  2  5  1  0  0  0  0
  1  2  1  0  0  0  0
 25 26  2  0  0  0  0
 25 27  1  0  0  0  0
 23 24  1  0  0  0  0
 21 22  1  0  0  0  0
 21 23  2  0  0  0  0
 19 20  1  0  0  0  0
 19 21  1  0  0  0  0
 17 18  1  0  0  0  0
 17 19  2  0  0  0  0
 15 16  1  0  0  0  0
 15 17  1  0  0  0  0
 14 15  2  0  0  0  0
 14 23  1  0  0  0  0
 11 12  1  0  0  0  0
 11 13  1  0  0  0  0
 11 14  1  0  0  0  0
  9 10  1  0  0  0  0
  9 11  1  0  0  0  0
  9 25  1  0  0  0  0
  7  8  1  0  0  0  0
  7  9  1  0  0  0  0
 29 30  1  0  0  0  0
 29 31  1  0  0  0  0
 29 32  1  0  0  0  0
 27 28  1  0  0  0  0
 27 29  1  0  0  0  0
M  END
$$$$
default_name
  -OEChem-01062215323D

 32 32  0     1  0  0  0  0  0999 V2000
   -3.8405   -3.7518    1.6252 H   0  0  0  0  0  0  0  0  0  0  0  0
   -3.7965   -2.8768    0.9782 C   0  0  0  0  0  0  0  0  0  0  0  0
   -4.5465   -2.1527    1.2902 H   0  0  0  0  0  0  0  0  0  0  0  0
   -3.9745   -3.1748   -0.0538 H   0  0  0  0  0  0  0  0  0  0  0  0
   -2.4245   -2.2537    1.0882 C   0  0  0  0  0  0  0  0  0  0  0  0
   -1.5805   -2.7478    1.8242 O   0  0  0  0  0  0  0  0  0  0  0  0
   -2.2045   -1.1637    0.3562 N   0  0  0  0  0  0  0  0  0  0  0  0
   -2.9595   -0.7907   -0.2008 H   0  0  0  0  0  0  0  0  0  0  0  0
   -0.9485   -0.4087    0.3482 C   0  0  1  0  0  0  0  0  0  0  0  0
   -0.2875   -0.8403   -0.4052 H   0  0  0  0  0  0  0  0  0  0  0  0
   -1.2360    1.0518   -0.0396 C   0  0  0  0  0  0  0  0  0  0  0  0
   -2.0059    1.4502    0.6228 H   0  0  0  0  0  0  0  0  0  0  0  0
   -0.3324    1.6434    0.1154 H   0  0  0  0  0  0  0  0  0  0  0  0
   -1.7097    1.2270   -1.4699 C   0  0  0  0  0  0  0  0  0  0  0  0
   -0.7839    1.2497   -2.5302 C   0  0  0  0  0  0  0  0  0  0  0  0
    0.2746    1.1650   -2.3284 H   0  0  0  0  0  0  0  0  0  0  0  0
   -1.2340    1.3710   -3.8578 C   0  0  0  0  0  0  0  0  0  0  0  0
   -0.5213    1.3908   -4.6702 H   0  0  0  0  0  0  0  0  0  0  0  0
   -2.6097    1.4679   -4.1277 C   0  0  0  0  0  0  0  0  0  0  0  0
   -2.9553    1.5635   -5.1475 H   0  0  0  0  0  0  0  0  0  0  0  0
   -3.5374    1.4471   -3.0704 C   0  0  0  0  0  0  0  0  0  0  0  0
   -4.5945    1.5270   -3.2773 H   0  0  0  0  0  0  0  0  0  0  0  0
   -3.0870    1.3291   -1.7435 C   0  0  0  0  0  0  0  0  0  0  0  0
   -3.8016    1.3166   -0.9307 H   0  0  0  0  0  0  0  0  0  0  0  0
   -0.2370   -0.5116    1.7093 C   0  0  0  0  0  0  0  0  0  0  0  0
   -0.0012    0.5052    2.3634 O   0  0  0  0  0  0  0  0  0  0  0  0
    0.1094   -1.7336    2.1335 N   0  0  0  0  0  0  0  0  0  0  0  0
   -0.0677   -2.5112    1.5161 H   0  0  0  0  0  0  0  0  0  0  0  0
    0.7970   -2.0020    3.3942 C   0  0  0  0  0  0  0  0  0  0  0  0
    0.2588   -1.5271    4.2172 H   0  0  0  0  0  0  0  0  0  0  0  0
    0.8512   -3.0763    3.5727 H   0  0  0  0  0  0  0  0  0  0  0  0
    1.8078   -1.5914    3.3559 H   0  0  0  0  0  0  0  0  0  0  0  0
  5  6  2  0  0  0  0
  5  7  1  0  0  0  0
  2  3  1  0  0  0  0
  2  4  1  0  0  0  0
  2  5  1  0  0  0  0
  1  2  1  0  0  0  0
 25 26  2  0  0  0  0
 25 27  1  0  0  0  0
 23 24  1  0  0  0  0
 21 22  1  0  0  0  0
 21 23  2  0  0  0  0
 19 20  1  0  0  0  0
 19 21  1  0  0  0  0
 17 18  1  0  0  0  0
 17 19  2  0  0  0  0
 15 16  1  0  0  0  0
 15 17  1  0  0  0  0
 14 15  2  0  0  0  0
 14 23  1  0  0  0  0
 11 12  1  0  0  0  0
 11 13  1  0  0  0  0
 11 14  1  0  0  0  0
  9 10  1  0  0  0  0
  9 11  1  0  0  0  0
  9 25  1  0  0  0  0
  7  8  1  0  0  0  0
  7  9  1  0  0  0  0
 29 30  1  0  0  0  0
 29 31  1  0  0  0  0
 29 32  1  0  0  0  0
 27 28  1  0  0  0  0
 27 29  1  0  0  0  0
M  END
$$$$
default_name
  -OEChem-01062215323D

 32 32  0     1  0  0  0  0  0999 V2000
   -3.8405   -3.7518    1.6252 H   0  0  0  0  0  0  0  0  0  0  0  0
   -3.7965   -2.8768    0.9782 C   0  0  0  0  0  0  0  0  0  0  0  0
   -4.5465   -2.1527    1.2902 H   0  0  0  0  0  0  0  0  0  0  0  0
   -3.9745   -3.1748   -0.0538 H   0  0  0  0  0  0  0  0  0  0  0  0
   -2.4245   -2.2537    1.0882 C   0  0  0  0  0  0  0  0  0  0  0  0
   -1.5805   -2.7478    1.8242 O   0  0  0  0  0  0  0  0  0  0  0  0
   -2.2045   -1.1637    0.3562 N   0  0  0  0  0  0  0  0  0  0  0  0
   -2.9595   -0.7907   -0.2008 H   0  0  0  0  0  0  0  0  0  0  0  0
   -0.9485   -0.4087    0.3482 C   0  0  1  0  0  0  0  0  0  0  0  0
   -0.2875   -0.8403   -0.4052 H   0  0  0  0  0  0  0  0  0  0  0  0
   -1.2360    1.0518   -0.0396 C   0  0  0  0  0  0  0  0  0  0  0  0
   -2.0059    1.4502    0.6228 H   0  0  0  0  0  0  0  0  0  0  0  0
   -0.3324    1.6434    0.1154 H   0  0  0  0  0  0  0  0  0  0  0  0
   -1.7097    1.2270   -1.4699 C   0  0  0  0  0  0  0  0  0  0  0  0
   -0.7839    1.2497   -2.5302 C   0  0  0  0  0  0  0  0  0  0  0  0
    0.2746    1.1650   -2.3284 H   0  0  0  0  0  0  0  0  0  0  0  0
   -1.2340    1.3710   -3.8578 C   0  0  0  0  0  0  0  0  0  0  0  0
   -0.5213    1.3908   -4.6702 H   0  0  0  0  0  0  0  0  0  0  0  0
   -2.6097    1.4679   -4.1277 C   0  0  0  0  0  0  0  0  0  0  0  0
   -2.9553    1.5635   -5.1475 H   0  0  0  0  0  0  0  0  0  0  0  0
   -3.5374    1.4471   -3.0704 C   0  0  0  0  0  0  0  0  0  0  0  0
   -4.5945    1.5270   -3.2773 H   0  0  0  0  0  0  0  0  0  0  0  0
   -3.0870    1.3291   -1.7435 C   0  0  0  0  0  0  0  0  0  0  0  0
   -3.8016    1.3166   -0.9307 H   0  0  0  0  0  0  0  0  0  0  0  0
   -0.2370   -0.5116    1.7093 C   0  0  0  0  0  0  0  0  0  0  0  0
   -0.2435    0.4449    2.4855 O   0  0  0  0  0  0  0  0  0  0  0  0
    0.3796   -1.6648    1.9974 N   0  0  0  0  0  0  0  0  0  0  0  0
    0.3882   -2.3813    1.2876 H   0  0  0  0  0  0  0  0  0  0  0  0
    1.1062   -1.9209    3.2387 C   0  0  0  0  0  0  0  0  0  0  0  0
    0.4705   -1.6848    4.0946 H   0  0  0  0  0  0  0  0  0  0  0  0
    1.4055   -2.9680    3.2912 H   0  0  0  0  0  0  0  0  0  0  0  0
    1.9957   -1.2892    3.2806 H   0  0  0  0  0  0  0  0  0  0  0  0
  5  6  2  0  0  0  0
  5  7  1  0  0  0  0
  2  3  1  0  0  0  0
  2  4  1  0  0  0  0
  2  5  1  0  0  0  0
  1  2  1  0  0  0  0
 25 26  2  0  0  0  0
 25 27  1  0  0  0  0
 23 24  1  0  0  0  0
 21 22  1  0  0  0  0
 21 23  2  0  0  0  0
 19 20  1  0  0  0  0
 19 21  1  0  0  0  0
 17 18  1  0  0  0  0
 17 19  2  0  0  0  0
 15 16  1  0  0  0  0
 15 17  1  0  0  0  0
 14 15  2  0  0  0  0
 14 23  1  0  0  0  0
 11 12  1  0  0  0  0
 11 13  1  0  0  0  0
 11 14  1  0  0  0  0
  9 10  1  0  0  0  0
  9 11  1  0  0  0  0
  9 25  1  0  0  0  0
  7  8  1  0  0  0  0
  7  9  1  0  0  0  0
 29 30  1  0  0  0  0
 29 31  1  0  0  0  0
 29 32  1  0  0  0  0
 27 28  1  0  0  0  0
 27 29  1  0  0  0  0
M  END
$$$$
default_name
  -OEChem-01062215323D

 32 32  0     1  0  0  0  0  0999 V2000
   -3.8405   -3.7518    1.6252 H   0  0  0  0  0  0  0  0  0  0  0  0
   -3.7965   -2.8768    0.9782 C   0  0  0  0  0  0  0  0  0  0  0  0
   -4.5465   -2.1527    1.2902 H   0  0  0  0  0  0  0  0  0  0  0  0
   -3.9745   -3.1748   -0.0538 H   0  0  0  0  0  0  0  0  0  0  0  0
   -2.4245   -2.2537    1.0882 C   0  0  0  0  0  0  0  0  0  0  0  0
   -1.5805   -2.7478    1.8242 O   0  0  0  0  0  0  0  0  0  0  0  0
   -2.2045   -1.1637    0.3562 N   0  0  0  0  0  0  0  0  0  0  0  0
   -2.9595   -0.7907   -0.2008 H   0  0  0  0  0  0  0  0  0  0  0  0
   -0.9485   -0.4087    0.3482 C   0  0  1  0  0  0  0  0  0  0  0  0
   -0.2875   -0.8403   -0.4052 H   0  0  0  0  0  0  0  0  0  0  0  0
   -1.2360    1.0518   -0.0396 C   0  0  0  0  0  0  0  0  0  0  0  0
   -2.0059    1.4502    0.6228 H   0  0  0  0  0  0  0  0  0  0  0  0
   -0.3324    1.6434    0.1154 H   0  0  0  0  0  0  0  0  0  0  0  0
   -1.7097    1.2270   -1.4699 C   0  0  0  0  0  0  0  0  0  0  0  0
   -0.7839    1.2497   -2.5302 C   0  0  0  0  0  0  0  0  0  0  0  0
    0.2746    1.1650   -2.3284 H   0  0  0  0  0  0  0  0  0  0  0  0
   -1.2340    1.3710   -3.8578 C   0  0  0  0  0  0  0  0  0  0  0  0
   -0.5213    1.3908   -4.6702 H   0  0  0  0  0  0  0  0  0  0  0  0
   -2.6097    1.4679   -4.1277 C   0  0  0  0  0  0  0  0  0  0  0  0
   -2.9553    1.5635   -5.1475 H   0  0  0  0  0  0  0  0  0  0  0  0
   -3.5374    1.4471   -3.0704 C   0  0  0  0  0  0  0  0  0  0  0  0
   -4.5945    1.5270   -3.2773 H   0  0  0  0  0  0  0  0  0  0  0  0
   -3.0870    1.3291   -1.7435 C   0  0  0  0  0  0  0  0  0  0  0  0
   -3.8016    1.3166   -0.9307 H   0  0  0  0  0  0  0  0  0  0  0  0
   -0.2370   -0.5116    1.7093 C   0  0  0  0  0  0  0  0  0  0  0  0
   -0.4659    0.3166    2.5920 O   0  0  0  0  0  0  0  0  0  0  0  0
    0.6272   -1.5203    1.8789 N   0  0  0  0  0  0  0  0  0  0  0  0
    0.8027   -2.1242    1.0904 H   0  0  0  0  0  0  0  0  0  0  0  0
    1.3891   -1.7531    3.1035 C   0  0  0  0  0  0  0  0  0  0  0  0
    0.7133   -1.7740    3.9610 H   0  0  0  0  0  0  0  0  0  0  0  0
    1.9209   -2.7030    3.0418 H   0  0  0  0  0  0  0  0  0  0  0  0
    2.1093   -0.9453    3.2471 H   0  0  0  0  0  0  0  0  0  0  0  0
  5  6  2  0  0  0  0
  5  7  1  0  0  0  0
  2  3  1  0  0  0  0
  2  4  1  0  0  0  0
  2  5  1  0  0  0  0
  1  2  1  0  0  0  0
 25 26  2  0  0  0  0
 25 27  1  0  0  0  0
 23 24  1  0  0  0  0
 21 22  1  0  0  0  0
 21 23  2  0  0  0  0
 19 20  1  0  0  0  0
 19 21  1  0  0  0  0
 17 18  1  0  0  0  0
 17 19  2  0  0  0  0
 15 16  1  0  0  0  0
 15 17  1  0  0  0  0
 14 15  2  0  0  0  0
 14 23  1  0  0  0  0
 11 12  1  0  0  0  0
 11 13  1  0  0  0  0
 11 14  1  0  0  0  0
  9 10  1  0  0  0  0
  9 11  1  0  0  0  0
  9 25  1  0  0  0  0
  7  8  1  0  0  0  0
  7  9  1  0  0  0  0
 29 30  1  0  0  0  0
 29 31  1  0  0  0  0
 29 32  1  0  0  0  0
 27 28  1  0  0  0  0
 27 29  1  0  0  0  0
M  END
$$$$
default_name
  -OEChem-01062215323D

 32 32  0     1  0  0  0  0  0999 V2000
   -3.8405   -3.7518    1.6252 H   0  0  0  0  0  0  0  0  0  0  0  0
   -3.7965   -2.8768    0.9782 C   0  0  0  0  0  0  0  0  0  0  0  0
   -4.5465   -2.1527    1.2902 H   0  0  0  0  0  0  0  0  0  0  0  0
   -3.9745   -3.1748   -0.0538 H   0  0  0  0  0  0  0  0  0  0  0  0
   -2.4245   -2.2537    1.0882 C   0  0  0  0  0  0  0  0  0  0  0  0
   -1.5805   -2.7478    1.8242 O   0  0  0  0  0  0  0  0  0  0  0  0
   -2.2045   -1.1637    0.3562 N   0  0  0  0  0  0  0  0  0  0  0  0
   -2.9595   -0.7907   -0.2008 H   0  0  0  0  0  0  0  0  0  0  0  0
   -0.9485   -0.4087    0.3482 C   0  0  1  0  0  0  0  0  0  0  0  0
   -0.2875   -0.8403   -0.4052 H   0  0  0  0  0  0  0  0  0  0  0  0
   -1.2360    1.0518   -0.0396 C   0  0  0  0  0  0  0  0  0  0  0  0
   -2.0059    1.4502    0.6228 H   0  0  0  0  0  0  0  0  0  0  0  0
   -0.3324    1.6434    0.1154 H   0  0  0  0  0  0  0  0  0  0  0  0
   -1.7097    1.2270   -1.4699 C   0  0  0  0  0  0  0  0  0  0  0  0
   -0.7839    1.2497   -2.5302 C   0  0  0  0  0  0  0  0  0  0  0  0
    0.2746    1.1650   -2.3284 H   0  0  0  0  0  0  0  0  0  0  0  0
   -1.2340    1.3710   -3.8578 C   0  0  0  0  0  0  0  0  0  0  0  0
   -0.5213    1.3908   -4.6702 H   0  0  0  0  0  0  0  0  0  0  0  0
   -2.6097    1.4679   -4.1277 C   0  0  0  0  0  0  0  0  0  0  0  0
   -2.9553    1.5635   -5.1475 H   0  0  0  0  0  0  0  0  0  0  0  0
   -3.5374    1.4471   -3.0704 C   0  0  0  0  0  0  0  0  0  0  0  0
   -4.5945    1.5270   -3.2773 H   0  0  0  0  0  0  0  0  0  0  0  0
   -3.0870    1.3291   -1.7435 C   0  0  0  0  0  0  0  0  0  0  0  0
   -3.8016    1.3166   -0.9307 H   0  0  0  0  0  0  0  0  0  0  0  0
   -0.2370   -0.5116    1.7093 C   0  0  0  0  0  0  0  0  0  0  0  0
   -0.6531    0.1290    2.6757 O   0  0  0  0  0  0  0  0  0  0  0  0
    0.8354   -1.3098    1.7860 N   0  0  0  0  0  0  0  0  0  0  0  0
    1.1477   -1.7573    0.9378 H   0  0  0  0  0  0  0  0  0  0  0  0
    1.6263   -1.5101    2.9979 C   0  0  0  0  0  0  0  0  0  0  0  0
    0.9704   -1.7886    3.8255 H   0  0  0  0  0  0  0  0  0  0  0  0
    2.3624   -2.2991    2.8415 H   0  0  0  0  0  0  0  0  0  0  0  0
    2.1410   -0.5832    3.2580 H   0  0  0  0  0  0  0  0  0  0  0  0
  5  6  2  0  0  0  0
  5  7  1  0  0  0  0
  2  3  1  0  0  0  0
  2  4  1  0  0  0  0
  2  5  1  0  0  0  0
  1  2  1  0  0  0  0
 25 26  2  0  0  0  0
 25 27  1  0  0  0  0
 23 24  1  0  0  0  0
 21 22  1  0  0  0  0
 21 23  2  0  0  0  0
 19 20  1  0  0  0  0
 19 21  1  0  0  0  0
 17 18  1  0  0  0  0
 17 19  2  0  0  0  0
 15 16  1  0  0  0  0
 15 17  1  0  0  0  0
 14 15  2  0  0  0  0
 14 23  1  0  0  0  0
 11 12  1  0  0  0  0
 11 13  1  0  0  0  0
 11 14  1  0  0  0  0
  9 10  1  0  0  0  0
  9 11  1  0  0  0  0
  9 25  1  0  0  0  0
  7  8  1  0  0  0  0
  7  9  1  0  0  0  0
 29 30  1  0  0  0  0
 29 31  1  0  0  0  0
 29 32  1  0  0  0  0
 27 28  1  0  0  0  0
 27 29  1  0  0  0  0
M  END
$$$$
default_name
  -OEChem-01062215323D

 32 32  0     1  0  0  0  0  0999 V2000
   -3.8405   -3.7518    1.6252 H   0  0  0  0  0  0  0  0  0  0  0  0
   -3.7965   -2.8768    0.9782 C   0  0  0  0  0  0  0  0  0  0  0  0
   -4.5465   -2.1527    1.2902 H   0  0  0  0  0  0  0  0  0  0  0  0
   -3.9745   -3.1748   -0.0538 H   0  0  0  0  0  0  0  0  0  0  0  0
   -2.4245   -2.2537    1.0882 C   0  0  0  0  0  0  0  0  0  0  0  0
   -1.5805   -2.7478    1.8242 O   0  0  0  0  0  0  0  0  0  0  0  0
   -2.2045   -1.1637    0.3562 N   0  0  0  0  0  0  0  0  0  0  0  0
   -2.9595   -0.7907   -0.2008 H   0  0  0  0  0  0  0  0  0  0  0  0
   -0.9485   -0.4087    0.3482 C   0  0  1  0  0  0  0  0  0  0  0  0
   -0.2875   -0.8403   -0.4052 H   0  0  0  0  0  0  0  0  0  0  0  0
   -1.2360    1.0518   -0.0396 C   0  0  0  0  0  0  0  0  0  0  0  0
   -2.0059    1.4502    0.6228 H   0  0  0  0  0  0  0  0  0  0  0  0
   -0.3324    1.6434    0.1154 H   0  0  0  0  0  0  0  0  0  0  0  0
   -1.7097    1.2270   -1.4699 C   0  0  0  0  0  0  0  0  0  0  0  0
   -0.7839    1.2497   -2.5302 C   0  0  0  0  0  0  0  0  0  0  0  0
    0.2746    1.1650   -2.3284 H   0  0  0  0  0  0  0  0  0  0  0  0
   -1.2340    1.3710   -3.8578 C   0  0  0  0  0  0  0  0  0  0  0  0
   -0.5213    1.3908   -4.6702 H   0  0  0  0  0  0  0  0  0  0  0  0
   -2.6097    1.4679   -4.1277 C   0  0  0  0  0  0  0  0  0  0  0  0
   -2.9553    1.5635   -5.1475 H   0  0  0  0  0  0  0  0  0  0  0  0
   -3.5374    1.4471   -3.0704 C   0  0  0  0  0  0  0  0  0  0  0  0
   -4.5945    1.5270   -3.2773 H   0  0  0  0  0  0  0  0  0  0  0  0
   -3.0870    1.3291   -1.7435 C   0  0  0  0  0  0  0  0  0  0  0  0
   -3.8016    1.3166   -0.9307 H   0  0  0  0  0  0  0  0  0  0  0  0
   -0.2370   -0.5116    1.7093 C   0  0  0  0  0  0  0  0  0  0  0  0
   -0.7925   -0.1051    2.7309 O   0  0  0  0  0  0  0  0  0  0  0  0
    0.9899   -1.0478    1.7251 N   0  0  0  0  0  0  0  0  0  0  0  0
    1.3996   -1.3058    0.8402 H   0  0  0  0  0  0  0  0  0  0  0  0
    1.8016   -1.2085    2.9291 C   0  0  0  0  0  0  0  0  0  0  0  0
    1.2245   -1.7276    3.6973 H   0  0  0  0  0  0  0  0  0  0  0  0
    2.6999   -1.7840    2.7040 H   0  0  0  0  0  0  0  0  0  0  0  0
    2.0885   -0.2274    3.3123 H   0  0  0  0  0  0  0  0  0  0  0  0
  5  6  2  0  0  0  0
  5  7  1  0  0  0  0
  2  3  1  0  0  0  0
  2  4  1  0  0  0  0
  2  5  1  0  0  0  0
  1  2  1  0  0  0  0
 25 26  2  0  0  0  0
 25 27  1  0  0  0  0
 23 24  1  0  0  0  0
 21 22  1  0  0  0  0
 21 23  2  0  0  0  0
 19 20  1  0  0  0  0
 19 21  1  0  0  0  0
 17 18  1  0  0  0  0
 17 19  2  0  0  0  0
 15 16  1  0  0  0  0
 15 17  1  0  0  0  0
 14 15  2  0  0  0  0
 14 23  1  0  0  0  0
 11 12  1  0  0  0  0
 11 13  1  0  0  0  0
 11 14  1  0  0  0  0
  9 10  1  0  0  0  0
  9 11  1  0  0  0  0
  9 25  1  0  0  0  0
  7  8  1  0  0  0  0
  7  9  1  0  0  0  0
 29 30  1  0  0  0  0
 29 31  1  0  0  0  0
 29 32  1  0  0  0  0
 27 28  1  0  0  0  0
 27 29  1  0  0  0  0
M  END
$$$$
default_name
  -OEChem-01062215323D

 32 32  0     1  0  0  0  0  0999 V2000
   -3.8405   -3.7518    1.6252 H   0  0  0  0  0  0  0  0  0  0  0  0
   -3.7965   -2.8768    0.9782 C   0  0  0  0  0  0  0  0  0  0  0  0
   -4.5465   -2.1527    1.2902 H   0  0  0  0  0  0  0  0  0  0  0  0
   -3.9745   -3.1748   -0.0538 H   0  0  0  0  0  0  0  0  0  0  0  0
   -2.4245   -2.2537    1.0882 C   0  0  0  0  0  0  0  0  0  0  0  0
   -1.5805   -2.7478    1.8242 O   0  0  0  0  0  0  0  0  0  0  0  0
   -2.2045   -1.1637    0.3562 N   0  0  0  0  0  0  0  0  0  0  0  0
   -2.9595   -0.7907   -0.2008 H   0  0  0  0  0  0  0  0  0  0  0  0
   -0.9485   -0.4087    0.3482 C   0  0  1  0  0  0  0  0  0  0  0  0
   -0.2875   -0.8403   -0.4052 H   0  0  0  0  0  0  0  0  0  0  0  0
   -1.2360    1.0518   -0.0396 C   0  0  0  0  0  0  0  0  0  0  0  0
   -2.0059    1.4502    0.6228 H   0  0  0  0  0  0  0  0  0  0  0  0
   -0.3324    1.6434    0.1154 H   0  0  0  0  0  0  0  0  0  0  0  0
   -1.7097    1.2270   -1.4699 C   0  0  0  0  0  0  0  0  0  0  0  0
   -0.7839    1.2497   -2.5302 C   0  0  0  0  0  0  0  0  0  0  0  0
    0.2746    1.1650   -2.3284 H   0  0  0  0  0  0  0  0  0  0  0  0
   -1.2340    1.3710   -3.8578 C   0  0  0  0  0  0  0  0  0  0  0  0
   -0.5213    1.3908   -4.6702 H   0  0  0  0  0  0  0  0  0  0  0  0
   -2.6097    1.4679   -4.1277 C   0  0  0  0  0  0  0  0  0  0  0  0
   -2.9553    1.5635   -5.1475 H   0  0  0  0  0  0  0  0  0  0  0  0
   -3.5374    1.4471   -3.0704 C   0  0  0  0  0  0  0  0  0  0  0  0
   -4.5945    1.5270   -3.2773 H   0  0  0  0  0  0  0  0  0  0  0  0
   -3.0870    1.3291   -1.7435 C   0  0  0  0  0  0  0  0  0  0  0  0
   -3.8016    1.3166   -0.9307 H   0  0  0  0  0  0  0  0  0  0  0  0
   -0.2370   -0.5116    1.7093 C   0  0  0  0  0  0  0  0  0  0  0  0
   -0.8746   -0.3697    2.7537 O   0  0  0  0  0  0  0  0  0  0  0  0
    1.0803   -0.7520    1.7002 N   0  0  0  0  0  0  0  0  0  0  0  0
    1.5412   -0.8003    0.8044 H   0  0  0  0  0  0  0  0  0  0  0  0
    1.9031   -0.8689    2.9017 C   0  0  0  0  0  0  0  0  0  0  0  0
    1.4582   -1.5952    3.5851 H   0  0  0  0  0  0  0  0  0  0  0  0
    2.9104   -1.1928    2.6387 H   0  0  0  0  0  0  0  0  0  0  0  0
    1.9554    0.0978    3.4064 H   0  0  0  0  0  0  0  0  0  0  0  0
  5  6  2  0  0  0  0
  5  7  1  0  0  0  0
  2  3  1  0  0  0  0
  2  4  1  0  0  0  0
  2  5  1  0  0  0  0
  1  2  1  0  0  0  0
 25 26  2  0  0  0  0
 25 27  1  0  0  0  0
 23 24  1  0  0  0  0
 21 22  1  0  0  0  0
 21 23  2  0  0  0  0
 19 20  1  0  0  0  0
 19 21  1  0  0  0  0
 17 18  1  0  0  0  0
 17 19  2  0  0  0  0
 15 16  1  0  0  0  0
 15 17  1  0  0  0  0
 14 15  2  0  0  0  0
 14 23  1  0  0  0  0
 11 12  1  0  0  0  0
 11 13  1  0  0  0  0
 11 14  1  0  0  0  0
  9 10  1  0  0  0  0
  9 11  1  0  0  0  0
  9 25  1  0  0  0  0
  7  8  1  0  0  0  0
  7  9  1  0  0  0  0
 29 30  1  0  0  0  0
 29 31  1  0  0  0  0
 29 32  1  0  0  0  0
 27 28  1  0  0  0  0
 27 29  1  0  0  0  0
M  END
$$$$
default_name
  -OEChem-01062215323D

 32 32  0     1  0  0  0  0  0999 V2000
   -3.8405   -3.7518    1.6252 H   0  0  0  0  0  0  0  0  0  0  0  0
   -3.7965   -2.8768    0.9782 C   0  0  0  0  0  0  0  0  0  0  0  0
   -4.5465   -2.1527    1.2902 H   0  0  0  0  0  0  0  0  0  0  0  0
   -3.9745   -3.1748   -0.0538 H   0  0  0  0  0  0  0  0  0  0  0  0
   -2.4245   -2.2537    1.0882 C   0  0  0  0  0  0  0  0  0  0  0  0
   -1.5805   -2.7478    1.8242 O   0  0  0  0  0  0  0  0  0  0  0  0
   -2.2045   -1.1637    0.3562 N   0  0  0  0  0  0  0  0  0  0  0  0
   -2.9595   -0.7907   -0.2008 H   0  0  0  0  0  0  0  0  0  0  0  0
   -0.9485   -0.4087    0.3482 C   0  0  1  0  0  0  0  0  0  0  0  0
   -0.2875   -0.8403   -0.4052 H   0  0  0  0  0  0  0  0  0  0  0  0
   -1.2360    1.0518   -0.0396 C   0  0  0  0  0  0  0  0  0  0  0  0
   -2.0059    1.4502    0.6228 H   0  0  0  0  0  0  0  0  0  0  0  0
   -0.3324    1.6434    0.1154 H   0  0  0  0  0  0  0  0  0  0  0  0
   -1.7097    1.2270   -1.4699 C   0  0  0  0  0  0  0  0  0  0  0  0
   -0.7839    1.2497   -2.5302 C   0  0  0  0  0  0  0  0  0  0  0  0
    0.2746    1.1650   -2.3284 H   0  0  0  0  0  0  0  0  0  0  0  0
   -1.2340    1.3710   -3.8578 C   0  0  0  0  0  0  0  0  0  0  0  0
   -0.5213    1.3908   -4.6702 H   0  0  0  0  0  0  0  0  0  0  0  0
   -2.6097    1.4679   -4.1277 C   0  0  0  0  0  0  0  0  0  0  0  0
   -2.9553    1.5635   -5.1475 H   0  0  0  0  0  0  0  0  0  0  0  0
   -3.5374    1.4471   -3.0704 C   0  0  0  0  0  0  0  0  0  0  0  0
   -4.5945    1.5270   -3.2773 H   0  0  0  0  0  0  0  0  0  0  0  0
   -3.0870    1.3291   -1.7435 C   0  0  0  0  0  0  0  0  0  0  0  0
   -3.8016    1.3166   -0.9307 H   0  0  0  0  0  0  0  0  0  0  0  0
   -0.2370   -0.5116    1.7093 C   0  0  0  0  0  0  0  0  0  0  0  0
   -0.8936   -0.6468    2.7428 O   0  0  0  0  0  0  0  0  0  0  0  0
    1.1002   -0.4426    1.7131 N   0  0  0  0  0  0  0  0  0  0  0  0
    1.5630   -0.2753    0.8327 H   0  0  0  0  0  0  0  0  0  0  0  0
    1.9238   -0.5143    2.9176 C   0  0  0  0  0  0  0  0  0  0  0  0
    1.6556   -1.4004    3.4967 H   0  0  0  0  0  0  0  0  0  0  0  0
    2.9795   -0.5658    2.6499 H   0  0  0  0  0  0  0  0  0  0  0  0
    1.7509    0.3701    3.5339 H   0  0  0  0  0  0  0  0  0  0  0  0
  5  6  2  0  0  0  0
  5  7  1  0  0  0  0
  2  3  1  0  0  0  0
  2  4  1  0  0  0  0
  2  5  1  0  0  0  0
  1  2  1  0  0  0  0
 25 26  2  0  0  0  0
 25 27  1  0  0  0  0
 23 24  1  0  0  0  0
 21 22  1  0  0  0  0
 21 23  2  0  0  0  0
 19 20  1  0  0  0  0
 19 21  1  0  0  0  0
 17 18  1  0  0  0  0
 17 19  2  0  0  0  0
 15 16  1  0  0  0  0
 15 17  1  0  0  0  0
 14 15  2  0  0  0  0
 14 23  1  0  0  0  0
 11 12  1  0  0  0  0
 11 13  1  0  0  0  0
 11 14  1  0  0  0  0
  9 10  1  0  0  0  0
  9 11  1  0  0  0  0
  9 25  1  0  0  0  0
  7  8  1  0  0  0  0
  7  9  1  0  0  0  0
 29 30  1  0  0  0  0
 29 31  1  0  0  0  0
 29 32  1  0  0  0  0
 27 28  1  0  0  0  0
 27 29  1  0  0  0  0
M  END
$$$$
default_name
  -OEChem-01062215323D

 32 32  0     1  0  0  0  0  0999 V2000
   -3.8405   -3.7518    1.6252 H   0  0  0  0  0  0  0  0  0  0  0  0
   -3.7965   -2.8768    0.9782 C   0  0  0  0  0  0  0  0  0  0  0  0
   -4.5465   -2.1527    1.2902 H   0  0  0  0  0  0  0  0  0  0  0  0
   -3.9745   -3.1748   -0.0538 H   0  0  0  0  0  0  0  0  0  0  0  0
   -2.4245   -2.2537    1.0882 C   0  0  0  0  0  0  0  0  0  0  0  0
   -1.5805   -2.7478    1.8242 O   0  0  0  0  0  0  0  0  0  0  0  0
   -2.2045   -1.1637    0.3562 N   0  0  0  0  0  0  0  0  0  0  0  0
   -2.9595   -0.7907   -0.2008 H   0  0  0  0  0  0  0  0  0  0  0  0
   -0.9485   -0.4087    0.3482 C   0  0  1  0  0  0  0  0  0  0  0  0
   -0.2875   -0.8403   -0.4052 H   0  0  0  0  0  0  0  0  0  0  0  0
   -1.2360    1.0518   -0.0396 C   0  0  0  0  0  0  0  0  0  0  0  0
   -2.0059    1.4502    0.6228 H   0  0  0  0  0  0  0  0  0  0  0  0
   -0.3324    1.6434    0.1154 H   0  0  0  0  0  0  0  0  0  0  0  0
   -1.7097    1.2270   -1.4699 C   0  0  0  0  0  0  0  0  0  0  0  0
   -0.7839    1.2497   -2.5302 C   0  0  0  0  0  0  0  0  0  0  0  0
    0.2746    1.1650   -2.3284 H   0  0  0  0  0  0  0  0  0  0  0  0
   -1.2340    1.3710   -3.8578 C   0  0  0  0  0  0  0  0  0  0  0  0
   -0.5213    1.3908   -4.6702 H   0  0  0  0  0  0  0  0  0  0  0  0
   -2.6097    1.4679   -4.1277 C   0  0  0  0  0  0  0  0  0  0  0  0
   -2.9553    1.5635   -5.1475 H   0  0  0  0  0  0  0  0  0  0  0  0
   -3.5374    1.4471   -3.0704 C   0  0  0  0  0  0  0  0  0  0  0  0
   -4.5945    1.5270   -3.2773 H   0  0  0  0  0  0  0  0  0  0  0  0
   -3.0870    1.3291   -1.7435 C   0  0  0  0  0  0  0  0  0  0  0  0
   -3.8016    1.3166   -0.9307 H   0  0  0  0  0  0  0  0  0  0  0  0
   -0.2370   -0.5116    1.7093 C   0  0  0  0  0  0  0  0  0  0  0  0
   -0.8484   -0.9175    2.6987 O   0  0  0  0  0  0  0  0  0  0  0  0
    1.0485   -0.1408    1.7630 N   0  0  0  0  0  0  0  0  0  0  0  0
    1.4634    0.2334    0.9232 H   0  0  0  0  0  0  0  0  0  0  0  0
    1.8625   -0.1689    2.9758 C   0  0  0  0  0  0  0  0  0  0  0  0
    1.8032   -1.1566    3.4379 H   0  0  0  0  0  0  0  0  0  0  0  0
    2.9026    0.0544    2.7370 H   0  0  0  0  0  0  0  0  0  0  0  0
    1.4887    0.5711    3.6861 H   0  0  0  0  0  0  0  0  0  0  0  0
  5  6  2  0  0  0  0
  5  7  1  0  0  0  0
  2  3  1  0  0  0  0
  2  4  1  0  0  0  0
  2  5  1  0  0  0  0
  1  2  1  0  0  0  0
 25 26  2  0  0  0  0
 25 27  1  0  0  0  0
 23 24  1  0  0  0  0
 21 22  1  0  0  0  0
 21 23  2  0  0  0  0
 19 20  1  0  0  0  0
 19 21  1  0  0  0  0
 17 18  1  0  0  0  0
 17 19  2  0  0  0  0
 15 16  1  0  0  0  0
 15 17  1  0  0  0  0
 14 15  2  0  0  0  0
 14 23  1  0  0  0  0
 11 12  1  0  0  0  0
 11 13  1  0  0  0  0
 11 14  1  0  0  0  0
  9 10  1  0  0  0  0
  9 11  1  0  0  0  0
  9 25  1  0  0  0  0
  7  8  1  0  0  0  0
  7  9  1  0  0  0  0
 29 30  1  0  0  0  0
 29 31  1  0  0  0  0
 29 32  1  0  0  0  0
 27 28  1  0  0  0  0
 27 29  1  0  0  0  0
M  END
$$$$
default_name
  -OEChem-01062215323D

 32 32  0     1  0  0  0  0  0999 V2000
   -3.8405   -3.7518    1.6252 H   0  0  0  0  0  0  0  0  0  0  0  0
   -3.7965   -2.8768    0.9782 C   0  0  0  0  0  0  0  0  0  0  0  0
   -4.5465   -2.1527    1.2902 H   0  0  0  0  0  0  0  0  0  0  0  0
   -3.9745   -3.1748   -0.0538 H   0  0  0  0  0  0  0  0  0  0  0  0
   -2.4245   -2.2537    1.0882 C   0  0  0  0  0  0  0  0  0  0  0  0
   -1.5805   -2.7478    1.8242 O   0  0  0  0  0  0  0  0  0  0  0  0
   -2.2045   -1.1637    0.3562 N   0  0  0  0  0  0  0  0  0  0  0  0
   -2.9595   -0.7907   -0.2008 H   0  0  0  0  0  0  0  0  0  0  0  0
   -0.9485   -0.4087    0.3482 C   0  0  1  0  0  0  0  0  0  0  0  0
   -0.4009   -0.6533   -0.5635 H   0  0  0  0  0  0  0  0  0  0  0  0
   -1.2610    1.0974    0.3359 C   0  0  0  0  0  0  0  0  0  0  0  0
   -1.9291    1.3284    1.1668 H   0  0  0  0  0  0  0  0  0  0  0  0
   -0.3352    1.6521    0.4961 H   0  0  0  0  0  0  0  0  0  0  0  0
   -1.9180    1.5791   -0.9436 C   0  0  0  0  0  0  0  0  0  0  0  0
   -1.1414    1.8492   -2.0864 C   0  0  0  0  0  0  0  0  0  0  0  0
   -0.0670    1.7363   -2.0515 H   0  0  0  0  0  0  0  0  0  0  0  0
   -1.7623    2.2559   -3.2817 C   0  0  0  0  0  0  0  0  0  0  0  0
   -1.1639    2.4653   -4.1573 H   0  0  0  0  0  0  0  0  0  0  0  0
   -3.1599    2.3916   -3.3373 C   0  0  0  0  0  0  0  0  0  0  0  0
   -3.6366    2.7064   -4.2550 H   0  0  0  0  0  0  0  0  0  0  0  0
   -3.9387    2.1240   -2.1968 C   0  0  0  0  0  0  0  0  0  0  0  0
   -5.0125    2.2334   -2.2378 H   0  0  0  0  0  0  0  0  0  0  0  0
   -3.3177    1.7206   -1.0014 C   0  0  0  0  0  0  0  0  0  0  0  0
   -3.9177    1.5183   -0.1237 H   0  0  0  0  0  0  0  0  0  0  0  0
   -0.0639   -0.8014    1.5451 C   0  0  0  0  0  0  0  0  0  0  0  0
   -0.4532   -1.6468    2.3521 O   0  0  0  0  0  0  0  0  0  0  0  0
    1.1201   -0.1875    1.6648 N   0  0  0  0  0  0  0  0  0  0  0  0
    1.3435    0.5334    0.9956 H   0  0  0  0  0  0  0  0  0  0  0  0
    2.0709   -0.4382    2.7453 C   0  0  0  0  0  0  0  0  0  0  0  0
    2.2658   -1.5098    2.8249 H   0  0  0  0  0  0  0  0  0  0  0  0
    3.0081    0.0841    2.5515 H   0  0  0  0  0  0  0  0  0  0  0  0
    1.6523   -0.0890    3.6912 H   0  0  0  0  0  0  0  0  0  0  0  0
  5  6  2  0  0  0  0
  5  7  1  0  0  0  0
  2  3  1  0  0  0  0
  2  4  1  0  0  0  0
  2  5  1  0  0  0  0
  1  2  1  0  0  0  0
 25 26  2  0  0  0  0
 25 27  1  0  0  0  0
 23 24  1  0  0  0  0
 21 22  1  0  0  0  0
 21 23  2  0  0  0  0
 19 20  1  0  0  0  0
 19 21  1  0  0  0  0
 17 18  1  0  0  0  0
 17 19  2  0  0  0  0
 15 16  1  0  0  0  0
 15 17  1  0  0  0  0
 14 15  2  0  0  0  0
 14 23  1  0  0  0  0
 11 12  1  0  0  0  0
 11 13  1  0  0  0  0
 11 14  1  0  0  0  0
  9 10  1  0  0  0  0
  9 11  1  0  0  0  0
  9 25  1  0  0  0  0
  7  8  1  0  0  0  0
  7  9  1  0  0  0  0
 29 30  1  0  0  0  0
 29 31  1  0  0  0  0
 29 32  1  0  0  0  0
 27 28  1  0  0  0  0
 27 29  1  0  0  0  0
M  END
$$$$
default_name
  -OEChem-01062215323D

 32 32  0     1  0  0  0  0  0999 V2000
   -3.8405   -3.7518    1.6252 H   0  0  0  0  0  0  0  0  0  0  0  0
   -3.7965   -2.8768    0.9782 C   0  0  0  0  0  0  0  0  0  0  0  0
   -4.5465   -2.1527    1.2902 H   0  0  0  0  0  0  0  0  0  0  0  0
   -3.9745   -3.1748   -0.0538 H   0  0  0  0  0  0  0  0  0  0  0  0
   -2.4245   -2.2537    1.0882 C   0  0  0  0  0  0  0  0  0  0  0  0
   -1.5805   -2.7478    1.8242 O   0  0  0  0  0  0  0  0  0  0  0  0
   -2.2045   -1.1637    0.3562 N   0  0  0  0  0  0  0  0  0  0  0  0
   -2.9595   -0.7907   -0.2008 H   0  0  0  0  0  0  0  0  0  0  0  0
   -0.9485   -0.4087    0.3482 C   0  0  1  0  0  0  0  0  0  0  0  0
   -0.4009   -0.6533   -0.5635 H   0  0  0  0  0  0  0  0  0  0  0  0
   -1.2610    1.0974    0.3359 C   0  0  0  0  0  0  0  0  0  0  0  0
   -1.9291    1.3284    1.1668 H   0  0  0  0  0  0  0  0  0  0  0  0
   -0.3352    1.6521    0.4961 H   0  0  0  0  0  0  0  0  0  0  0  0
   -1.9180    1.5791   -0.9436 C   0  0  0  0  0  0  0  0  0  0  0  0
   -1.1414    1.8492   -2.0864 C   0  0  0  0  0  0  0  0  0  0  0  0
   -0.0670    1.7363   -2.0515 H   0  0  0  0  0  0  0  0  0  0  0  0
   -1.7623    2.2559   -3.2817 C   0  0  0  0  0  0  0  0  0  0  0  0
   -1.1639    2.4653   -4.1573 H   0  0  0  0  0  0  0  0  0  0  0  0
   -3.1599    2.3916   -3.3373 C   0  0  0  0  0  0  0  0  0  0  0  0
   -3.6366    2.7064   -4.2550 H   0  0  0  0  0  0  0  0  0  0  0  0
   -3.9387    2.1240   -2.1968 C   0  0  0  0  0  0  0  0  0  0  0  0
   -5.0125    2.2334   -2.2378 H   0  0  0  0  0  0  0  0  0  0  0  0
   -3.3177    1.7206   -1.0014 C   0  0  0  0  0  0  0  0  0  0  0  0
   -3.9177    1.5183   -0.1237 H   0  0  0  0  0  0  0  0  0  0  0  0
   -0.0639   -0.8014    1.5451 C   0  0  0  0  0  0  0  0  0  0  0  0
   -0.3109   -1.8218    2.1895 O   0  0  0  0  0  0  0  0  0  0  0  0
    0.9604    0.0067    1.8465 N   0  0  0  0  0  0  0  0  0  0  0  0
    1.0640    0.8525    1.3069 H   0  0  0  0  0  0  0  0  0  0  0  0
    1.8863   -0.2175    2.9541 C   0  0  0  0  0  0  0  0  0  0  0  0
    2.2937   -1.2290    2.8964 H   0  0  0  0  0  0  0  0  0  0  0  0
    2.7042    0.5023    2.9132 H   0  0  0  0  0  0  0  0  0  0  0  0
    1.3572   -0.1086    3.9029 H   0  0  0  0  0  0  0  0  0  0  0  0
  5  6  2  0  0  0  0
  5  7  1  0  0  0  0
  2  3  1  0  0  0  0
  2  4  1  0  0  0  0
  2  5  1  0  0  0  0
  1  2  1  0  0  0  0
 25 26  2  0  0  0  0
 25 27  1  0  0  0  0
 23 24  1  0  0  0  0
 21 22  1  0  0  0  0
 21 23  2  0  0  0  0
 19 20  1  0  0  0  0
 19 21  1  0  0  0  0
 17 18  1  0  0  0  0
 17 19  2  0  0  0  0
 15 16  1  0  0  0  0
 15 17  1  0  0  0  0
 14 15  2  0  0  0  0
 14 23  1  0  0  0  0
 11 12  1  0  0  0  0
 11 13  1  0  0  0  0
 11 14  1  0  0  0  0
  9 10  1  0  0  0  0
  9 11  1  0  0  0  0
  9 25  1  0  0  0  0
  7  8  1  0  0  0  0
  7  9  1  0  0  0  0
 29 30  1  0  0  0  0
 29 31  1  0  0  0  0
 29 32  1  0  0  0  0
 27 28  1  0  0  0  0
 27 29  1  0  0  0  0
M  END
$$$$
default_name
  -OEChem-01062215323D

 32 32  0     1  0  0  0  0  0999 V2000
   -3.8405   -3.7518    1.6252 H   0  0  0  0  0  0  0  0  0  0  0  0
   -3.7965   -2.8768    0.9782 C   0  0  0  0  0  0  0  0  0  0  0  0
   -4.5465   -2.1527    1.2902 H   0  0  0  0  0  0  0  0  0  0  0  0
   -3.9745   -3.1748   -0.0538 H   0  0  0  0  0  0  0  0  0  0  0  0
   -2.4245   -2.2537    1.0882 C   0  0  0  0  0  0  0  0  0  0  0  0
   -1.5805   -2.7478    1.8242 O   0  0  0  0  0  0  0  0  0  0  0  0
   -2.2045   -1.1637    0.3562 N   0  0  0  0  0  0  0  0  0  0  0  0
   -2.9595   -0.7907   -0.2008 H   0  0  0  0  0  0  0  0  0  0  0  0
   -0.9485   -0.4087    0.3482 C   0  0  1  0  0  0  0  0  0  0  0  0
   -0.4009   -0.6533   -0.5635 H   0  0  0  0  0  0  0  0  0  0  0  0
   -1.2610    1.0974    0.3359 C   0  0  0  0  0  0  0  0  0  0  0  0
   -1.9291    1.3284    1.1668 H   0  0  0  0  0  0  0  0  0  0  0  0
   -0.3352    1.6521    0.4961 H   0  0  0  0  0  0  0  0  0  0  0  0
   -1.9180    1.5791   -0.9436 C   0  0  0  0  0  0  0  0  0  0  0  0
   -1.1414    1.8492   -2.0864 C   0  0  0  0  0  0  0  0  0  0  0  0
   -0.0670    1.7363   -2.0515 H   0  0  0  0  0  0  0  0  0  0  0  0
   -1.7623    2.2559   -3.2817 C   0  0  0  0  0  0  0  0  0  0  0  0
   -1.1639    2.4653   -4.1573 H   0  0  0  0  0  0  0  0  0  0  0  0
   -3.1599    2.3916   -3.3373 C   0  0  0  0  0  0  0  0  0  0  0  0
   -3.6366    2.7064   -4.2550 H   0  0  0  0  0  0  0  0  0  0  0  0
   -3.9387    2.1240   -2.1968 C   0  0  0  0  0  0  0  0  0  0  0  0
   -5.0125    2.2334   -2.2378 H   0  0  0  0  0  0  0  0  0  0  0  0
   -3.3177    1.7206   -1.0014 C   0  0  0  0  0  0  0  0  0  0  0  0
   -3.9177    1.5183   -0.1237 H   0  0  0  0  0  0  0  0  0  0  0  0
   -0.0639   -0.8014    1.5451 C   0  0  0  0  0  0  0  0  0  0  0  0
   -0.1276   -1.9380    2.0159 O   0  0  0  0  0  0  0  0  0  0  0  0
    0.7550    0.1352    2.0404 N   0  0  0  0  0  0  0  0  0  0  0  0
    0.7092    1.0583    1.6366 H   0  0  0  0  0  0  0  0  0  0  0  0
    1.6498   -0.0724    3.1765 C   0  0  0  0  0  0  0  0  0  0  0  0
    2.2594   -0.9628    3.0090 H   0  0  0  0  0  0  0  0  0  0  0  0
    2.3027    0.7913    3.3048 H   0  0  0  0  0  0  0  0  0  0  0  0
    1.0621   -0.2183    4.0849 H   0  0  0  0  0  0  0  0  0  0  0  0
  5  6  2  0  0  0  0
  5  7  1  0  0  0  0
  2  3  1  0  0  0  0
  2  4  1  0  0  0  0
  2  5  1  0  0  0  0
  1  2  1  0  0  0  0
 25 26  2  0  0  0  0
 25 27  1  0  0  0  0
 23 24  1  0  0  0  0
 21 22  1  0  0  0  0
 21 23  2  0  0  0  0
 19 20  1  0  0  0  0
 19 21  1  0  0  0  0
 17 18  1  0  0  0  0
 17 19  2  0  0  0  0
 15 16  1  0  0  0  0
 15 17  1  0  0  0  0
 14 15  2  0  0  0  0
 14 23  1  0  0  0  0
 11 12  1  0  0  0  0
 11 13  1  0  0  0  0
 11 14  1  0  0  0  0
  9 10  1  0  0  0  0
  9 11  1  0  0  0  0
  9 25  1  0  0  0  0
  7  8  1  0  0  0  0
  7  9  1  0  0  0  0
 29 30  1  0  0  0  0
 29 31  1  0  0  0  0
 29 32  1  0  0  0  0
 27 28  1  0  0  0  0
 27 29  1  0  0  0  0
M  END
$$$$
default_name
  -OEChem-01062215323D

 32 32  0     1  0  0  0  0  0999 V2000
   -3.8405   -3.7518    1.6252 H   0  0  0  0  0  0  0  0  0  0  0  0
   -3.7965   -2.8768    0.9782 C   0  0  0  0  0  0  0  0  0  0  0  0
   -4.5465   -2.1527    1.2902 H   0  0  0  0  0  0  0  0  0  0  0  0
   -3.9745   -3.1748   -0.0538 H   0  0  0  0  0  0  0  0  0  0  0  0
   -2.4245   -2.2537    1.0882 C   0  0  0  0  0  0  0  0  0  0  0  0
   -1.5805   -2.7478    1.8242 O   0  0  0  0  0  0  0  0  0  0  0  0
   -2.2045   -1.1637    0.3562 N   0  0  0  0  0  0  0  0  0  0  0  0
   -2.9595   -0.7907   -0.2008 H   0  0  0  0  0  0  0  0  0  0  0  0
   -0.9485   -0.4087    0.3482 C   0  0  1  0  0  0  0  0  0  0  0  0
   -0.4009   -0.6533   -0.5635 H   0  0  0  0  0  0  0  0  0  0  0  0
   -1.2610    1.0974    0.3359 C   0  0  0  0  0  0  0  0  0  0  0  0
   -1.9291    1.3284    1.1668 H   0  0  0  0  0  0  0  0  0  0  0  0
   -0.3352    1.6521    0.4961 H   0  0  0  0  0  0  0  0  0  0  0  0
   -1.9180    1.5791   -0.9436 C   0  0  0  0  0  0  0  0  0  0  0  0
   -1.1414    1.8492   -2.0864 C   0  0  0  0  0  0  0  0  0  0  0  0
   -0.0670    1.7363   -2.0515 H   0  0  0  0  0  0  0  0  0  0  0  0
   -1.7623    2.2559   -3.2817 C   0  0  0  0  0  0  0  0  0  0  0  0
   -1.1639    2.4653   -4.1573 H   0  0  0  0  0  0  0  0  0  0  0  0
   -3.1599    2.3916   -3.3373 C   0  0  0  0  0  0  0  0  0  0  0  0
   -3.6366    2.7064   -4.2550 H   0  0  0  0  0  0  0  0  0  0  0  0
   -3.9387    2.1240   -2.1968 C   0  0  0  0  0  0  0  0  0  0  0  0
   -5.0125    2.2334   -2.2378 H   0  0  0  0  0  0  0  0  0  0  0  0
   -3.3177    1.7206   -1.0014 C   0  0  0  0  0  0  0  0  0  0  0  0
   -3.9177    1.5183   -0.1237 H   0  0  0  0  0  0  0  0  0  0  0  0
   -0.0639   -0.8014    1.5451 C   0  0  0  0  0  0  0  0  0  0  0  0
    0.0844   -1.9875    1.8430 O   0  0  0  0  0  0  0  0  0  0  0  0
    0.5180    0.1890    2.2333 N   0  0  0  0  0  0  0  0  0  0  0  0
    0.3034    1.1365    1.9622 H   0  0  0  0  0  0  0  0  0  0  0  0
    1.3774   -0.0130    3.3973 C   0  0  0  0  0  0  0  0  0  0  0  0
    2.1654   -0.7293    3.1552 H   0  0  0  0  0  0  0  0  0  0  0  0
    1.8308    0.9314    3.6996 H   0  0  0  0  0  0  0  0  0  0  0  0
    0.7872   -0.4109    4.2250 H   0  0  0  0  0  0  0  0  0  0  0  0
  5  6  2  0  0  0  0
  5  7  1  0  0  0  0
  2  3  1  0  0  0  0
  2  4  1  0  0  0  0
  2  5  1  0  0  0  0
  1  2  1  0  0  0  0
 25 26  2  0  0  0  0
 25 27  1  0  0  0  0
 23 24  1  0  0  0  0
 21 22  1  0  0  0  0
 21 23  2  0  0  0  0
 19 20  1  0  0  0  0
 19 21  1  0  0  0  0
 17 18  1  0  0  0  0
 17 19  2  0  0  0  0
 15 16  1  0  0  0  0
 15 17  1  0  0  0  0
 14 15  2  0  0  0  0
 14 23  1  0  0  0  0
 11 12  1  0  0  0  0
 11 13  1  0  0  0  0
 11 14  1  0  0  0  0
  9 10  1  0  0  0  0
  9 11  1  0  0  0  0
  9 25  1  0  0  0  0
  7  8  1  0  0  0  0
  7  9  1  0  0  0  0
 29 30  1  0  0  0  0
 29 31  1  0  0  0  0
 29 32  1  0  0  0  0
 27 28  1  0  0  0  0
 27 29  1  0  0  0  0
M  END
$$$$
default_name
  -OEChem-01062215323D

 32 32  0     1  0  0  0  0  0999 V2000
   -3.8405   -3.7518    1.6252 H   0  0  0  0  0  0  0  0  0  0  0  0
   -3.7965   -2.8768    0.9782 C   0  0  0  0  0  0  0  0  0  0  0  0
   -4.5465   -2.1527    1.2902 H   0  0  0  0  0  0  0  0  0  0  0  0
   -3.9745   -3.1748   -0.0538 H   0  0  0  0  0  0  0  0  0  0  0  0
   -2.4245   -2.2537    1.0882 C   0  0  0  0  0  0  0  0  0  0  0  0
   -1.5805   -2.7478    1.8242 O   0  0  0  0  0  0  0  0  0  0  0  0
   -2.2045   -1.1637    0.3562 N   0  0  0  0  0  0  0  0  0  0  0  0
   -2.9595   -0.7907   -0.2008 H   0  0  0  0  0  0  0  0  0  0  0  0
   -0.9485   -0.4087    0.3482 C   0  0  1  0  0  0  0  0  0  0  0  0
   -0.4009   -0.6533   -0.5635 H   0  0  0  0  0  0  0  0  0  0  0  0
   -1.2610    1.0974    0.3359 C   0  0  0  0  0  0  0  0  0  0  0  0
   -1.9291    1.3284    1.1668 H   0  0  0  0  0  0  0  0  0  0  0  0
   -0.3352    1.6521    0.4961 H   0  0  0  0  0  0  0  0  0  0  0  0
   -1.9180    1.5791   -0.9436 C   0  0  0  0  0  0  0  0  0  0  0  0
   -1.1414    1.8492   -2.0864 C   0  0  0  0  0  0  0  0  0  0  0  0
   -0.0670    1.7363   -2.0515 H   0  0  0  0  0  0  0  0  0  0  0  0
   -1.7623    2.2559   -3.2817 C   0  0  0  0  0  0  0  0  0  0  0  0
   -1.1639    2.4653   -4.1573 H   0  0  0  0  0  0  0  0  0  0  0  0
   -3.1599    2.3916   -3.3373 C   0  0  0  0  0  0  0  0  0  0  0  0
   -3.6366    2.7064   -4.2550 H   0  0  0  0  0  0  0  0  0  0  0  0
   -3.9387    2.1240   -2.1968 C   0  0  0  0  0  0  0  0  0  0  0  0
   -5.0125    2.2334   -2.2378 H   0  0  0  0  0  0  0  0  0  0  0  0
   -3.3177    1.7206   -1.0014 C   0  0  0  0  0  0  0  0  0  0  0  0
   -3.9177    1.5183   -0.1237 H   0  0  0  0  0  0  0  0  0  0  0  0
   -0.0639   -0.8014    1.5451 C   0  0  0  0  0  0  0  0  0  0  0  0
    0.3105   -1.9669    1.6827 O   0  0  0  0  0  0  0  0  0  0  0  0
    0.2655    0.1647    2.4119 N   0  0  0  0  0  0  0  0  0  0  0  0
   -0.1259    1.0820    2.2616 H   0  0  0  0  0  0  0  0  0  0  0  0
    1.0879   -0.0432    3.6014 C   0  0  0  0  0  0  0  0  0  0  0  0
    2.0178   -0.5445    3.3248 H   0  0  0  0  0  0  0  0  0  0  0  0
    1.3207    0.9131    4.0705 H   0  0  0  0  0  0  0  0  0  0  0  0
    0.5511   -0.6730    4.3135 H   0  0  0  0  0  0  0  0  0  0  0  0
  5  6  2  0  0  0  0
  5  7  1  0  0  0  0
  2  3  1  0  0  0  0
  2  4  1  0  0  0  0
  2  5  1  0  0  0  0
  1  2  1  0  0  0  0
 25 26  2  0  0  0  0
 25 27  1  0  0  0  0
 23 24  1  0  0  0  0
 21 22  1  0  0  0  0
 21 23  2  0  0  0  0
 19 20  1  0  0  0  0
 19 21  1  0  0  0  0
 17 18  1  0  0  0  0
 17 19  2  0  0  0  0
 15 16  1  0  0  0  0
 15 17  1  0  0  0  0
 14 15  2  0  0  0  0
 14 23  1  0  0  0  0
 11 12  1  0  0  0  0
 11 13  1  0  0  0  0
 11 14  1  0  0  0  0
  9 10  1  0  0  0  0
  9 11  1  0  0  0  0
  9 25  1  0  0  0  0
  7  8  1  0  0  0  0
  7  9  1  0  0  0  0
 29 30  1  0  0  0  0
 29 31  1  0  0  0  0
 29 32  1  0  0  0  0
 27 28  1  0  0  0  0
 27 29  1  0  0  0  0
M  END
$$$$
default_name
  -OEChem-01062215323D

 32 32  0     1  0  0  0  0  0999 V2000
   -3.8405   -3.7518    1.6252 H   0  0  0  0  0  0  0  0  0  0  0  0
   -3.7965   -2.8768    0.9782 C   0  0  0  0  0  0  0  0  0  0  0  0
   -4.5465   -2.1527    1.2902 H   0  0  0  0  0  0  0  0  0  0  0  0
   -3.9745   -3.1748   -0.0538 H   0  0  0  0  0  0  0  0  0  0  0  0
   -2.4245   -2.2537    1.0882 C   0  0  0  0  0  0  0  0  0  0  0  0
   -1.5805   -2.7478    1.8242 O   0  0  0  0  0  0  0  0  0  0  0  0
   -2.2045   -1.1637    0.3562 N   0  0  0  0  0  0  0  0  0  0  0  0
   -2.9595   -0.7907   -0.2008 H   0  0  0  0  0  0  0  0  0  0  0  0
   -0.9485   -0.4087    0.3482 C   0  0  1  0  0  0  0  0  0  0  0  0
   -0.4009   -0.6533   -0.5635 H   0  0  0  0  0  0  0  0  0  0  0  0
   -1.2610    1.0974    0.3359 C   0  0  0  0  0  0  0  0  0  0  0  0
   -1.9291    1.3284    1.1668 H   0  0  0  0  0  0  0  0  0  0  0  0
   -0.3352    1.6521    0.4961 H   0  0  0  0  0  0  0  0  0  0  0  0
   -1.9180    1.5791   -0.9436 C   0  0  0  0  0  0  0  0  0  0  0  0
   -1.1414    1.8492   -2.0864 C   0  0  0  0  0  0  0  0  0  0  0  0
   -0.0670    1.7363   -2.0515 H   0  0  0  0  0  0  0  0  0  0  0  0
   -1.7623    2.2559   -3.2817 C   0  0  0  0  0  0  0  0  0  0  0  0
   -1.1639    2.4653   -4.1573 H   0  0  0  0  0  0  0  0  0  0  0  0
   -3.1599    2.3916   -3.3373 C   0  0  0  0  0  0  0  0  0  0  0  0
   -3.6366    2.7064   -4.2550 H   0  0  0  0  0  0  0  0  0  0  0  0
   -3.9387    2.1240   -2.1968 C   0  0  0  0  0  0  0  0  0  0  0  0
   -5.0125    2.2334   -2.2378 H   0  0  0  0  0  0  0  0  0  0  0  0
   -3.3177    1.7206   -1.0014 C   0  0  0  0  0  0  0  0  0  0  0  0
   -3.9177    1.5183   -0.1237 H   0  0  0  0  0  0  0  0  0  0  0  0
   -0.0639   -0.8014    1.5451 C   0  0  0  0  0  0  0  0  0  0  0  0
    0.5354   -1.8777    1.5457 O   0  0  0  0  0  0  0  0  0  0  0  0
    0.0147    0.0637    2.5642 N   0  0  0  0  0  0  0  0  0  0  0  0
   -0.5493    0.8984    2.5143 H   0  0  0  0  0  0  0  0  0  0  0  0
    0.8008   -0.1611    3.7749 C   0  0  0  0  0  0  0  0  0  0  0  0
    1.8269   -0.4208    3.5065 H   0  0  0  0  0  0  0  0  0  0  0  0
    0.8072    0.7375    4.3924 H   0  0  0  0  0  0  0  0  0  0  0  0
    0.3699   -0.9869    4.3444 H   0  0  0  0  0  0  0  0  0  0  0  0
  5  6  2  0  0  0  0
  5  7  1  0  0  0  0
  2  3  1  0  0  0  0
  2  4  1  0  0  0  0
  2  5  1  0  0  0  0
  1  2  1  0  0  0  0
 25 26  2  0  0  0  0
 25 27  1  0  0  0  0
 23 24  1  0  0  0  0
 21 22  1  0  0  0  0
 21 23  2  0  0  0  0
 19 20  1  0  0  0  0
 19 21  1  0  0  0  0
 17 18  1  0  0  0  0
 17 19  2  0  0  0  0
 15 16  1  0  0  0  0
 15 17  1  0  0  0  0
 14 15  2  0  0  0  0
 14 23  1  0  0  0  0
 11 12  1  0  0  0  0
 11 13  1  0  0  0  0
 11 14  1  0  0  0  0
  9 10  1  0  0  0  0
  9 11  1  0  0  0  0
  9 25  1  0  0  0  0
  7  8  1  0  0  0  0
  7  9  1  0  0  0  0
 29 30  1  0  0  0  0
 29 31  1  0  0  0  0
 29 32  1  0  0  0  0
 27 28  1  0  0  0  0
 27 29  1  0  0  0  0
M  END
$$$$
default_name
  -OEChem-01062215323D

 32 32  0     1  0  0  0  0  0999 V2000
   -3.8405   -3.7518    1.6252 H   0  0  0  0  0  0  0  0  0  0  0  0
   -3.7965   -2.8768    0.9782 C   0  0  0  0  0  0  0  0  0  0  0  0
   -4.5465   -2.1527    1.2902 H   0  0  0  0  0  0  0  0  0  0  0  0
   -3.9745   -3.1748   -0.0538 H   0  0  0  0  0  0  0  0  0  0  0  0
   -2.4245   -2.2537    1.0882 C   0  0  0  0  0  0  0  0  0  0  0  0
   -1.5805   -2.7478    1.8242 O   0  0  0  0  0  0  0  0  0  0  0  0
   -2.2045   -1.1637    0.3562 N   0  0  0  0  0  0  0  0  0  0  0  0
   -2.9595   -0.7907   -0.2008 H   0  0  0  0  0  0  0  0  0  0  0  0
   -0.9485   -0.4087    0.3482 C   0  0  1  0  0  0  0  0  0  0  0  0
   -0.4009   -0.6533   -0.5635 H   0  0  0  0  0  0  0  0  0  0  0  0
   -1.2610    1.0974    0.3359 C   0  0  0  0  0  0  0  0  0  0  0  0
   -1.9291    1.3284    1.1668 H   0  0  0  0  0  0  0  0  0  0  0  0
   -0.3352    1.6521    0.4961 H   0  0  0  0  0  0  0  0  0  0  0  0
   -1.9180    1.5791   -0.9436 C   0  0  0  0  0  0  0  0  0  0  0  0
   -1.1414    1.8492   -2.0864 C   0  0  0  0  0  0  0  0  0  0  0  0
   -0.0670    1.7363   -2.0515 H   0  0  0  0  0  0  0  0  0  0  0  0
   -1.7623    2.2559   -3.2817 C   0  0  0  0  0  0  0  0  0  0  0  0
   -1.1639    2.4653   -4.1573 H   0  0  0  0  0  0  0  0  0  0  0  0
   -3.1599    2.3916   -3.3373 C   0  0  0  0  0  0  0  0  0  0  0  0
   -3.6366    2.7064   -4.2550 H   0  0  0  0  0  0  0  0  0  0  0  0
   -3.9387    2.1240   -2.1968 C   0  0  0  0  0  0  0  0  0  0  0  0
   -5.0125    2.2334   -2.2378 H   0  0  0  0  0  0  0  0  0  0  0  0
   -3.3177    1.7206   -1.0014 C   0  0  0  0  0  0  0  0  0  0  0  0
   -3.9177    1.5183   -0.1237 H   0  0  0  0  0  0  0  0  0  0  0  0
   -0.0639   -0.8014    1.5451 C   0  0  0  0  0  0  0  0  0  0  0  0
    0.7436   -1.7259    1.4416 O   0  0  0  0  0  0  0  0  0  0  0  0
   -0.2173   -0.1069    2.6797 N   0  0  0  0  0  0  0  0  0  0  0  0
   -0.9381    0.5983    2.7032 H   0  0  0  0  0  0  0  0  0  0  0  0
    0.5357   -0.3585    3.9060 C   0  0  0  0  0  0  0  0  0  0  0  0
    1.6057   -0.3668    3.6877 H   0  0  0  0  0  0  0  0  0  0  0  0
    0.3253    0.4167    4.6433 H   0  0  0  0  0  0  0  0  0  0  0  0
    0.2561   -1.3311    4.3156 H   0  0  0  0  0  0  0  0  0  0  0  0
  5  6  2  0  0  0  0
  5  7  1  0  0  0  0
  2  3  1  0  0  0  0
  2  4  1  0  0  0  0
  2  5  1  0  0  0  0
  1  2  1  0  0  0  0
 25 26  2  0  0  0  0
 25 27  1  0  0  0  0
 23 24  1  0  0  0  0
 21 22  1  0  0  0  0
 21 23  2  0  0  0  0
 19 20  1  0  0  0  0
 19 21  1  0  0  0  0
 17 18  1  0  0  0  0
 17 19  2  0  0  0  0
 15 16  1  0  0  0  0
 15 17  1  0  0  0  0
 14 15  2  0  0  0  0
 14 23  1  0  0  0  0
 11 12  1  0  0  0  0
 11 13  1  0  0  0  0
 11 14  1  0  0  0  0
  9 10  1  0  0  0  0
  9 11  1  0  0  0  0
  9 25  1  0  0  0  0
  7  8  1  0  0  0  0
  7  9  1  0  0  0  0
 29 30  1  0  0  0  0
 29 31  1  0  0  0  0
 29 32  1  0  0  0  0
 27 28  1  0  0  0  0
 27 29  1  0  0  0  0
M  END
$$$$
default_name
  -OEChem-01062215323D

 32 32  0     1  0  0  0  0  0999 V2000
   -3.8405   -3.7518    1.6252 H   0  0  0  0  0  0  0  0  0  0  0  0
   -3.7965   -2.8768    0.9782 C   0  0  0  0  0  0  0  0  0  0  0  0
   -4.5465   -2.1527    1.2902 H   0  0  0  0  0  0  0  0  0  0  0  0
   -3.9745   -3.1748   -0.0538 H   0  0  0  0  0  0  0  0  0  0  0  0
   -2.4245   -2.2537    1.0882 C   0  0  0  0  0  0  0  0  0  0  0  0
   -1.5805   -2.7478    1.8242 O   0  0  0  0  0  0  0  0  0  0  0  0
   -2.2045   -1.1637    0.3562 N   0  0  0  0  0  0  0  0  0  0  0  0
   -2.9595   -0.7907   -0.2008 H   0  0  0  0  0  0  0  0  0  0  0  0
   -0.9485   -0.4087    0.3482 C   0  0  1  0  0  0  0  0  0  0  0  0
   -0.4009   -0.6533   -0.5635 H   0  0  0  0  0  0  0  0  0  0  0  0
   -1.2610    1.0974    0.3359 C   0  0  0  0  0  0  0  0  0  0  0  0
   -1.9291    1.3284    1.1668 H   0  0  0  0  0  0  0  0  0  0  0  0
   -0.3352    1.6521    0.4961 H   0  0  0  0  0  0  0  0  0  0  0  0
   -1.9180    1.5791   -0.9436 C   0  0  0  0  0  0  0  0  0  0  0  0
   -1.1414    1.8492   -2.0864 C   0  0  0  0  0  0  0  0  0  0  0  0
   -0.0670    1.7363   -2.0515 H   0  0  0  0  0  0  0  0  0  0  0  0
   -1.7623    2.2559   -3.2817 C   0  0  0  0  0  0  0  0  0  0  0  0
   -1.1639    2.4653   -4.1573 H   0  0  0  0  0  0  0  0  0  0  0  0
   -3.1599    2.3916   -3.3373 C   0  0  0  0  0  0  0  0  0  0  0  0
   -3.6366    2.7064   -4.2550 H   0  0  0  0  0  0  0  0  0  0  0  0
   -3.9387    2.1240   -2.1968 C   0  0  0  0  0  0  0  0  0  0  0  0
   -5.0125    2.2334   -2.2378 H   0  0  0  0  0  0  0  0  0  0  0  0
   -3.3177    1.7206   -1.0014 C   0  0  0  0  0  0  0  0  0  0  0  0
   -3.9177    1.5183   -0.1237 H   0  0  0  0  0  0  0  0  0  0  0  0
   -0.0639   -0.8014    1.5451 C   0  0  0  0  0  0  0  0  0  0  0  0
    0.9211   -1.5218    1.3774 O   0  0  0  0  0  0  0  0  0  0  0  0
   -0.4147   -0.3355    2.7505 N   0  0  0  0  0  0  0  0  0  0  0  0
   -1.2656    0.2021    2.8153 H   0  0  0  0  0  0  0  0  0  0  0  0
    0.3108   -0.6221    3.9858 C   0  0  0  0  0  0  0  0  0  0  0  0
    1.3691   -0.3862    3.8562 H   0  0  0  0  0  0  0  0  0  0  0  0
   -0.0922   -0.0275    4.8062 H   0  0  0  0  0  0  0  0  0  0  0  0
    0.2173   -1.6822    4.2291 H   0  0  0  0  0  0  0  0  0  0  0  0
  5  6  2  0  0  0  0
  5  7  1  0  0  0  0
  2  3  1  0  0  0  0
  2  4  1  0  0  0  0
  2  5  1  0  0  0  0
  1  2  1  0  0  0  0
 25 26  2  0  0  0  0
 25 27  1  0  0  0  0
 23 24  1  0  0  0  0
 21 22  1  0  0  0  0
 21 23  2  0  0  0  0
 19 20  1  0  0  0  0
 19 21  1  0  0  0  0
 17 18  1  0  0  0  0
 17 19  2  0  0  0  0
 15 16  1  0  0  0  0
 15 17  1  0  0  0  0
 14 15  2  0  0  0  0
 14 23  1  0  0  0  0
 11 12  1  0  0  0  0
 11 13  1  0  0  0  0
 11 14  1  0  0  0  0
  9 10  1  0  0  0  0
  9 11  1  0  0  0  0
  9 25  1  0  0  0  0
  7  8  1  0  0  0  0
  7  9  1  0  0  0  0
 29 30  1  0  0  0  0
 29 31  1  0  0  0  0
 29 32  1  0  0  0  0
 27 28  1  0  0  0  0
 27 29  1  0  0  0  0
M  END
$$$$
default_name
  -OEChem-01062215323D

 32 32  0     1  0  0  0  0  0999 V2000
   -3.8405   -3.7518    1.6252 H   0  0  0  0  0  0  0  0  0  0  0  0
   -3.7965   -2.8768    0.9782 C   0  0  0  0  0  0  0  0  0  0  0  0
   -4.5465   -2.1527    1.2902 H   0  0  0  0  0  0  0  0  0  0  0  0
   -3.9745   -3.1748   -0.0538 H   0  0  0  0  0  0  0  0  0  0  0  0
   -2.4245   -2.2537    1.0882 C   0  0  0  0  0  0  0  0  0  0  0  0
   -1.5805   -2.7478    1.8242 O   0  0  0  0  0  0  0  0  0  0  0  0
   -2.2045   -1.1637    0.3562 N   0  0  0  0  0  0  0  0  0  0  0  0
   -2.9595   -0.7907   -0.2008 H   0  0  0  0  0  0  0  0  0  0  0  0
   -0.9485   -0.4087    0.3482 C   0  0  1  0  0  0  0  0  0  0  0  0
   -0.4009   -0.6533   -0.5635 H   0  0  0  0  0  0  0  0  0  0  0  0
   -1.2610    1.0974    0.3359 C   0  0  0  0  0  0  0  0  0  0  0  0
   -1.9291    1.3284    1.1668 H   0  0  0  0  0  0  0  0  0  0  0  0
   -0.3352    1.6521    0.4961 H   0  0  0  0  0  0  0  0  0  0  0  0
   -1.9180    1.5791   -0.9436 C   0  0  0  0  0  0  0  0  0  0  0  0
   -1.1414    1.8492   -2.0864 C   0  0  0  0  0  0  0  0  0  0  0  0
   -0.0670    1.7363   -2.0515 H   0  0  0  0  0  0  0  0  0  0  0  0
   -1.7623    2.2559   -3.2817 C   0  0  0  0  0  0  0  0  0  0  0  0
   -1.1639    2.4653   -4.1573 H   0  0  0  0  0  0  0  0  0  0  0  0
   -3.1599    2.3916   -3.3373 C   0  0  0  0  0  0  0  0  0  0  0  0
   -3.6366    2.7064   -4.2550 H   0  0  0  0  0  0  0  0  0  0  0  0
   -3.9387    2.1240   -2.1968 C   0  0  0  0  0  0  0  0  0  0  0  0
   -5.0125    2.2334   -2.2378 H   0  0  0  0  0  0  0  0  0  0  0  0
   -3.3177    1.7206   -1.0014 C   0  0  0  0  0  0  0  0  0  0  0  0
   -3.9177    1.5183   -0.1237 H   0  0  0  0  0  0  0  0  0  0  0  0
   -0.0639   -0.8014    1.5451 C   0  0  0  0  0  0  0  0  0  0  0  0
    1.0558   -1.2795    1.3574 O   0  0  0  0  0  0  0  0  0  0  0  0
   -0.5640   -0.6066    2.7719 N   0  0  0  0  0  0  0  0  0  0  0  0
   -1.5097   -0.2633    2.8430 H   0  0  0  0  0  0  0  0  0  0  0  0
    0.1412   -0.9338    4.0088 C   0  0  0  0  0  0  0  0  0  0  0  0
    1.1334   -0.4776    4.0005 H   0  0  0  0  0  0  0  0  0  0  0  0
   -0.4168   -0.5648    4.8698 H   0  0  0  0  0  0  0  0  0  0  0  0
    0.2563   -2.0163    4.0907 H   0  0  0  0  0  0  0  0  0  0  0  0
  5  6  2  0  0  0  0
  5  7  1  0  0  0  0
  2  3  1  0  0  0  0
  2  4  1  0  0  0  0
  2  5  1  0  0  0  0
  1  2  1  0  0  0  0
 25 26  2  0  0  0  0
 25 27  1  0  0  0  0
 23 24  1  0  0  0  0
 21 22  1  0  0  0  0
 21 23  2  0  0  0  0
 19 20  1  0  0  0  0
 19 21  1  0  0  0  0
 17 18  1  0  0  0  0
 17 19  2  0  0  0  0
 15 16  1  0  0  0  0
 15 17  1  0  0  0  0
 14 15  2  0  0  0  0
 14 23  1  0  0  0  0
 11 12  1  0  0  0  0
 11 13  1  0  0  0  0
 11 14  1  0  0  0  0
  9 10  1  0  0  0  0
  9 11  1  0  0  0  0
  9 25  1  0  0  0  0
  7  8  1  0  0  0  0
  7  9  1  0  0  0  0
 29 30  1  0  0  0  0
 29 31  1  0  0  0  0
 29 32  1  0  0  0  0
 27 28  1  0  0  0  0
 27 29  1  0  0  0  0
M  END
$$$$
default_name
  -OEChem-01062215323D

 32 32  0     1  0  0  0  0  0999 V2000
   -3.8405   -3.7518    1.6252 H   0  0  0  0  0  0  0  0  0  0  0  0
   -3.7965   -2.8768    0.9782 C   0  0  0  0  0  0  0  0  0  0  0  0
   -4.5465   -2.1527    1.2902 H   0  0  0  0  0  0  0  0  0  0  0  0
   -3.9745   -3.1748   -0.0538 H   0  0  0  0  0  0  0  0  0  0  0  0
   -2.4245   -2.2537    1.0882 C   0  0  0  0  0  0  0  0  0  0  0  0
   -1.5805   -2.7478    1.8242 O   0  0  0  0  0  0  0  0  0  0  0  0
   -2.2045   -1.1637    0.3562 N   0  0  0  0  0  0  0  0  0  0  0  0
   -2.9595   -0.7907   -0.2008 H   0  0  0  0  0  0  0  0  0  0  0  0
   -0.9485   -0.4087    0.3482 C   0  0  1  0  0  0  0  0  0  0  0  0
   -0.4009   -0.6533   -0.5635 H   0  0  0  0  0  0  0  0  0  0  0  0
   -1.2610    1.0974    0.3359 C   0  0  0  0  0  0  0  0  0  0  0  0
   -1.9291    1.3284    1.1668 H   0  0  0  0  0  0  0  0  0  0  0  0
   -0.3352    1.6521    0.4961 H   0  0  0  0  0  0  0  0  0  0  0  0
   -1.9180    1.5791   -0.9436 C   0  0  0  0  0  0  0  0  0  0  0  0
   -1.1414    1.8492   -2.0864 C   0  0  0  0  0  0  0  0  0  0  0  0
   -0.0670    1.7363   -2.0515 H   0  0  0  0  0  0  0  0  0  0  0  0
   -1.7623    2.2559   -3.2817 C   0  0  0  0  0  0  0  0  0  0  0  0
   -1.1639    2.4653   -4.1573 H   0  0  0  0  0  0  0  0  0  0  0  0
   -3.1599    2.3916   -3.3373 C   0  0  0  0  0  0  0  0  0  0  0  0
   -3.6366    2.7064   -4.2550 H   0  0  0  0  0  0  0  0  0  0  0  0
   -3.9387    2.1240   -2.1968 C   0  0  0  0  0  0  0  0  0  0  0  0
   -5.0125    2.2334   -2.2378 H   0  0  0  0  0  0  0  0  0  0  0  0
   -3.3177    1.7206   -1.0014 C   0  0  0  0  0  0  0  0  0  0  0  0
   -3.9177    1.5183   -0.1237 H   0  0  0  0  0  0  0  0  0  0  0  0
   -0.0639   -0.8014    1.5451 C   0  0  0  0  0  0  0  0  0  0  0  0
    1.1384   -1.0153    1.3830 O   0  0  0  0  0  0  0  0  0  0  0  0
   -0.6551   -0.9018    2.7424 N   0  0  0  0  0  0  0  0  0  0  0  0
   -1.6536   -0.7660    2.7844 H   0  0  0  0  0  0  0  0  0  0  0  0
    0.0387   -1.2724    3.9735 C   0  0  0  0  0  0  0  0  0  0  0  0
    0.9145   -0.6347    4.1106 H   0  0  0  0  0  0  0  0  0  0  0  0
   -0.6264   -1.1586    4.8299 H   0  0  0  0  0  0  0  0  0  0  0  0
    0.3702   -2.3106    3.9099 H   0  0  0  0  0  0  0  0  0  0  0  0
  5  6  2  0  0  0  0
  5  7  1  0  0  0  0
  2  3  1  0  0  0  0
  2  4  1  0  0  0  0
  2  5  1  0  0  0  0
  1  2  1  0  0  0  0
 25 26  2  0  0  0  0
 25 27  1  0  0  0  0
 23 24  1  0  0  0  0
 21 22  1  0  0  0  0
 21 23  2  0  0  0  0
 19 20  1  0  0  0  0
 19 21  1  0  0  0  0
 17 18  1  0  0  0  0
 17 19  2  0  0  0  0
 15 16  1  0  0  0  0
 15 17  1  0  0  0  0
 14 15  2  0  0  0  0
 14 23  1  0  0  0  0
 11 12  1  0  0  0  0
 11 13  1  0  0  0  0
 11 14  1  0  0  0  0
  9 10  1  0  0  0  0
  9 11  1  0  0  0  0
  9 25  1  0  0  0  0
  7  8  1  0  0  0  0
  7  9  1  0  0  0  0
 29 30  1  0  0  0  0
 29 31  1  0  0  0  0
 29 32  1  0  0  0  0
 27 28  1  0  0  0  0
 27 29  1  0  0  0  0
M  END
$$$$
default_name
  -OEChem-01062215323D

 32 32  0     1  0  0  0  0  0999 V2000
   -3.8405   -3.7518    1.6252 H   0  0  0  0  0  0  0  0  0  0  0  0
   -3.7965   -2.8768    0.9782 C   0  0  0  0  0  0  0  0  0  0  0  0
   -4.5465   -2.1527    1.2902 H   0  0  0  0  0  0  0  0  0  0  0  0
   -3.9745   -3.1748   -0.0538 H   0  0  0  0  0  0  0  0  0  0  0  0
   -2.4245   -2.2537    1.0882 C   0  0  0  0  0  0  0  0  0  0  0  0
   -1.5805   -2.7478    1.8242 O   0  0  0  0  0  0  0  0  0  0  0  0
   -2.2045   -1.1637    0.3562 N   0  0  0  0  0  0  0  0  0  0  0  0
   -2.9595   -0.7907   -0.2008 H   0  0  0  0  0  0  0  0  0  0  0  0
   -0.9485   -0.4087    0.3482 C   0  0  1  0  0  0  0  0  0  0  0  0
   -0.4009   -0.6533   -0.5635 H   0  0  0  0  0  0  0  0  0  0  0  0
   -1.2610    1.0974    0.3359 C   0  0  0  0  0  0  0  0  0  0  0  0
   -1.9291    1.3284    1.1668 H   0  0  0  0  0  0  0  0  0  0  0  0
   -0.3352    1.6521    0.4961 H   0  0  0  0  0  0  0  0  0  0  0  0
   -1.9180    1.5791   -0.9436 C   0  0  0  0  0  0  0  0  0  0  0  0
   -1.1414    1.8492   -2.0864 C   0  0  0  0  0  0  0  0  0  0  0  0
   -0.0670    1.7363   -2.0515 H   0  0  0  0  0  0  0  0  0  0  0  0
   -1.7623    2.2559   -3.2817 C   0  0  0  0  0  0  0  0  0  0  0  0
   -1.1639    2.4653   -4.1573 H   0  0  0  0  0  0  0  0  0  0  0  0
   -3.1599    2.3916   -3.3373 C   0  0  0  0  0  0  0  0  0  0  0  0
   -3.6366    2.7064   -4.2550 H   0  0  0  0  0  0  0  0  0  0  0  0
   -3.9387    2.1240   -2.1968 C   0  0  0  0  0  0  0  0  0  0  0  0
   -5.0125    2.2334   -2.2378 H   0  0  0  0  0  0  0  0  0  0  0  0
   -3.3177    1.7206   -1.0014 C   0  0  0  0  0  0  0  0  0  0  0  0
   -3.9177    1.5183   -0.1237 H   0  0  0  0  0  0  0  0  0  0  0  0
   -0.0639   -0.8014    1.5451 C   0  0  0  0  0  0  0  0  0  0  0  0
    1.1633   -0.7473    1.4525 O   0  0  0  0  0  0  0  0  0  0  0  0
   -0.6817   -1.2008    2.6640 N   0  0  0  0  0  0  0  0  0  0  0  0
   -1.6876   -1.2718    2.6436 H   0  0  0  0  0  0  0  0  0  0  0  0
    0.0102   -1.6149    3.8823 C   0  0  0  0  0  0  0  0  0  0  0  0
    0.7275   -0.8469    4.1792 H   0  0  0  0  0  0  0  0  0  0  0  0
   -0.7068   -1.7684    4.6893 H   0  0  0  0  0  0  0  0  0  0  0  0
    0.5515   -2.5451    3.6991 H   0  0  0  0  0  0  0  0  0  0  0  0
  5  6  2  0  0  0  0
  5  7  1  0  0  0  0
  2  3  1  0  0  0  0
  2  4  1  0  0  0  0
  2  5  1  0  0  0  0
  1  2  1  0  0  0  0
 25 26  2  0  0  0  0
 25 27  1  0  0  0  0
 23 24  1  0  0  0  0
 21 22  1  0  0  0  0
 21 23  2  0  0  0  0
 19 20  1  0  0  0  0
 19 21  1  0  0  0  0
 17 18  1  0  0  0  0
 17 19  2  0  0  0  0
 15 16  1  0  0  0  0
 15 17  1  0  0  0  0
 14 15  2  0  0  0  0
 14 23  1  0  0  0  0
 11 12  1  0  0  0  0
 11 13  1  0  0  0  0
 11 14  1  0  0  0  0
  9 10  1  0  0  0  0
  9 11  1  0  0  0  0
  9 25  1  0  0  0  0
  7  8  1  0  0  0  0
  7  9  1  0  0  0  0
 29 30  1  0  0  0  0
 29 31  1  0  0  0  0
 29 32  1  0  0  0  0
 27 28  1  0  0  0  0
 27 29  1  0  0  0  0
M  END
$$$$
default_name
  -OEChem-01062215323D

 32 32  0     1  0  0  0  0  0999 V2000
   -3.8405   -3.7518    1.6252 H   0  0  0  0  0  0  0  0  0  0  0  0
   -3.7965   -2.8768    0.9782 C   0  0  0  0  0  0  0  0  0  0  0  0
   -4.5465   -2.1527    1.2902 H   0  0  0  0  0  0  0  0  0  0  0  0
   -3.9745   -3.1748   -0.0538 H   0  0  0  0  0  0  0  0  0  0  0  0
   -2.4245   -2.2537    1.0882 C   0  0  0  0  0  0  0  0  0  0  0  0
   -1.5805   -2.7478    1.8242 O   0  0  0  0  0  0  0  0  0  0  0  0
   -2.2045   -1.1637    0.3562 N   0  0  0  0  0  0  0  0  0  0  0  0
   -2.9595   -0.7907   -0.2008 H   0  0  0  0  0  0  0  0  0  0  0  0
   -0.9485   -0.4087    0.3482 C   0  0  1  0  0  0  0  0  0  0  0  0
   -0.4009   -0.6533   -0.5635 H   0  0  0  0  0  0  0  0  0  0  0  0
   -1.2610    1.0974    0.3359 C   0  0  0  0  0  0  0  0  0  0  0  0
   -1.9291    1.3284    1.1668 H   0  0  0  0  0  0  0  0  0  0  0  0
   -0.3352    1.6521    0.4961 H   0  0  0  0  0  0  0  0  0  0  0  0
   -1.9180    1.5791   -0.9436 C   0  0  0  0  0  0  0  0  0  0  0  0
   -1.1414    1.8492   -2.0864 C   0  0  0  0  0  0  0  0  0  0  0  0
   -0.0670    1.7363   -2.0515 H   0  0  0  0  0  0  0  0  0  0  0  0
   -1.7623    2.2559   -3.2817 C   0  0  0  0  0  0  0  0  0  0  0  0
   -1.1639    2.4653   -4.1573 H   0  0  0  0  0  0  0  0  0  0  0  0
   -3.1599    2.3916   -3.3373 C   0  0  0  0  0  0  0  0  0  0  0  0
   -3.6366    2.7064   -4.2550 H   0  0  0  0  0  0  0  0  0  0  0  0
   -3.9387    2.1240   -2.1968 C   0  0  0  0  0  0  0  0  0  0  0  0
   -5.0125    2.2334   -2.2378 H   0  0  0  0  0  0  0  0  0  0  0  0
   -3.3177    1.7206   -1.0014 C   0  0  0  0  0  0  0  0  0  0  0  0
   -3.9177    1.5183   -0.1237 H   0  0  0  0  0  0  0  0  0  0  0  0
   -0.0639   -0.8014    1.5451 C   0  0  0  0  0  0  0  0  0  0  0  0
    1.1288   -0.4938    1.5611 O   0  0  0  0  0  0  0  0  0  0  0  0
   -0.6421   -1.4833    2.5420 N   0  0  0  0  0  0  0  0  0  0  0  0
   -1.6093   -1.7463    2.4301 H   0  0  0  0  0  0  0  0  0  0  0  0
    0.0576   -1.9379    3.7413 C   0  0  0  0  0  0  0  0  0  0  0  0
    0.5850   -1.0998    4.2016 H   0  0  0  0  0  0  0  0  0  0  0  0
   -0.6523   -2.3527    4.4574 H   0  0  0  0  0  0  0  0  0  0  0  0
    0.7877   -2.7037    3.4725 H   0  0  0  0  0  0  0  0  0  0  0  0
  5  6  2  0  0  0  0
  5  7  1  0  0  0  0
  2  3  1  0  0  0  0
  2  4  1  0  0  0  0
  2  5  1  0  0  0  0
  1  2  1  0  0  0  0
 25 26  2  0  0  0  0
 25 27  1  0  0  0  0
 23 24  1  0  0  0  0
 21 22  1  0  0  0  0
 21 23  2  0  0  0  0
 19 20  1  0  0  0  0
 19 21  1  0  0  0  0
 17 18  1  0  0  0  0
 17 19  2  0  0  0  0
 15 16  1  0  0  0  0
 15 17  1  0  0  0  0
 14 15  2  0  0  0  0
 14 23  1  0  0  0  0
 11 12  1  0  0  0  0
 11 13  1  0  0  0  0
 11 14  1  0  0  0  0
  9 10  1  0  0  0  0
  9 11  1  0  0  0  0
  9 25  1  0  0  0  0
  7  8  1  0  0  0  0
  7  9  1  0  0  0  0
 29 30  1  0  0  0  0
 29 31  1  0  0  0  0
 29 32  1  0  0  0  0
 27 28  1  0  0  0  0
 27 29  1  0  0  0  0
M  END
$$$$
default_name
  -OEChem-01062215323D

 32 32  0     1  0  0  0  0  0999 V2000
   -3.8405   -3.7518    1.6252 H   0  0  0  0  0  0  0  0  0  0  0  0
   -3.7965   -2.8768    0.9782 C   0  0  0  0  0  0  0  0  0  0  0  0
   -4.5465   -2.1527    1.2902 H   0  0  0  0  0  0  0  0  0  0  0  0
   -3.9745   -3.1748   -0.0538 H   0  0  0  0  0  0  0  0  0  0  0  0
   -2.4245   -2.2537    1.0882 C   0  0  0  0  0  0  0  0  0  0  0  0
   -1.5805   -2.7478    1.8242 O   0  0  0  0  0  0  0  0  0  0  0  0
   -2.2045   -1.1637    0.3562 N   0  0  0  0  0  0  0  0  0  0  0  0
   -2.9595   -0.7907   -0.2008 H   0  0  0  0  0  0  0  0  0  0  0  0
   -0.9485   -0.4087    0.3482 C   0  0  1  0  0  0  0  0  0  0  0  0
   -0.4009   -0.6533   -0.5635 H   0  0  0  0  0  0  0  0  0  0  0  0
   -1.2610    1.0974    0.3359 C   0  0  0  0  0  0  0  0  0  0  0  0
   -1.9291    1.3284    1.1668 H   0  0  0  0  0  0  0  0  0  0  0  0
   -0.3352    1.6521    0.4961 H   0  0  0  0  0  0  0  0  0  0  0  0
   -1.9180    1.5791   -0.9436 C   0  0  0  0  0  0  0  0  0  0  0  0
   -1.1414    1.8492   -2.0864 C   0  0  0  0  0  0  0  0  0  0  0  0
   -0.0670    1.7363   -2.0515 H   0  0  0  0  0  0  0  0  0  0  0  0
   -1.7623    2.2559   -3.2817 C   0  0  0  0  0  0  0  0  0  0  0  0
   -1.1639    2.4653   -4.1573 H   0  0  0  0  0  0  0  0  0  0  0  0
   -3.1599    2.3916   -3.3373 C   0  0  0  0  0  0  0  0  0  0  0  0
   -3.6366    2.7064   -4.2550 H   0  0  0  0  0  0  0  0  0  0  0  0
   -3.9387    2.1240   -2.1968 C   0  0  0  0  0  0  0  0  0  0  0  0
   -5.0125    2.2334   -2.2378 H   0  0  0  0  0  0  0  0  0  0  0  0
   -3.3177    1.7206   -1.0014 C   0  0  0  0  0  0  0  0  0  0  0  0
   -3.9177    1.5183   -0.1237 H   0  0  0  0  0  0  0  0  0  0  0  0
   -0.0639   -0.8014    1.5451 C   0  0  0  0  0  0  0  0  0  0  0  0
    1.0373   -0.2720    1.7015 O   0  0  0  0  0  0  0  0  0  0  0  0
   -0.5389   -1.7301    2.3848 N   0  0  0  0  0  0  0  0  0  0  0  0
   -1.4241   -2.1571    2.1585 H   0  0  0  0  0  0  0  0  0  0  0  0
    0.1776   -2.2193    3.5602 C   0  0  0  0  0  0  0  0  0  0  0  0
    0.4968   -1.3760    4.1762 H   0  0  0  0  0  0  0  0  0  0  0  0
   -0.4669   -2.8716    4.1501 H   0  0  0  0  0  0  0  0  0  0  0  0
    1.0627   -2.7757    3.2456 H   0  0  0  0  0  0  0  0  0  0  0  0
  5  6  2  0  0  0  0
  5  7  1  0  0  0  0
  2  3  1  0  0  0  0
  2  4  1  0  0  0  0
  2  5  1  0  0  0  0
  1  2  1  0  0  0  0
 25 26  2  0  0  0  0
 25 27  1  0  0  0  0
 23 24  1  0  0  0  0
 21 22  1  0  0  0  0
 21 23  2  0  0  0  0
 19 20  1  0  0  0  0
 19 21  1  0  0  0  0
 17 18  1  0  0  0  0
 17 19  2  0  0  0  0
 15 16  1  0  0  0  0
 15 17  1  0  0  0  0
 14 15  2  0  0  0  0
 14 23  1  0  0  0  0
 11 12  1  0  0  0  0
 11 13  1  0  0  0  0
 11 14  1  0  0  0  0
  9 10  1  0  0  0  0
  9 11  1  0  0  0  0
  9 25  1  0  0  0  0
  7  8  1  0  0  0  0
  7  9  1  0  0  0  0
 29 30  1  0  0  0  0
 29 31  1  0  0  0  0
 29 32  1  0  0  0  0
 27 28  1  0  0  0  0
 27 29  1  0  0  0  0
M  END
$$$$
default_name
  -OEChem-01062215323D

 32 32  0     1  0  0  0  0  0999 V2000
   -3.8405   -3.7518    1.6252 H   0  0  0  0  0  0  0  0  0  0  0  0
   -3.7965   -2.8768    0.9782 C   0  0  0  0  0  0  0  0  0  0  0  0
   -4.5465   -2.1527    1.2902 H   0  0  0  0  0  0  0  0  0  0  0  0
   -3.9745   -3.1748   -0.0538 H   0  0  0  0  0  0  0  0  0  0  0  0
   -2.4245   -2.2537    1.0882 C   0  0  0  0  0  0  0  0  0  0  0  0
   -1.5805   -2.7478    1.8242 O   0  0  0  0  0  0  0  0  0  0  0  0
   -2.2045   -1.1637    0.3562 N   0  0  0  0  0  0  0  0  0  0  0  0
   -2.9595   -0.7907   -0.2008 H   0  0  0  0  0  0  0  0  0  0  0  0
   -0.9485   -0.4087    0.3482 C   0  0  1  0  0  0  0  0  0  0  0  0
   -0.4009   -0.6533   -0.5635 H   0  0  0  0  0  0  0  0  0  0  0  0
   -1.2610    1.0974    0.3359 C   0  0  0  0  0  0  0  0  0  0  0  0
   -1.9291    1.3284    1.1668 H   0  0  0  0  0  0  0  0  0  0  0  0
   -0.3352    1.6521    0.4961 H   0  0  0  0  0  0  0  0  0  0  0  0
   -1.9180    1.5791   -0.9436 C   0  0  0  0  0  0  0  0  0  0  0  0
   -1.1414    1.8492   -2.0864 C   0  0  0  0  0  0  0  0  0  0  0  0
   -0.0670    1.7363   -2.0515 H   0  0  0  0  0  0  0  0  0  0  0  0
   -1.7623    2.2559   -3.2817 C   0  0  0  0  0  0  0  0  0  0  0  0
   -1.1639    2.4653   -4.1573 H   0  0  0  0  0  0  0  0  0  0  0  0
   -3.1599    2.3916   -3.3373 C   0  0  0  0  0  0  0  0  0  0  0  0
   -3.6366    2.7064   -4.2550 H   0  0  0  0  0  0  0  0  0  0  0  0
   -3.9387    2.1240   -2.1968 C   0  0  0  0  0  0  0  0  0  0  0  0
   -5.0125    2.2334   -2.2378 H   0  0  0  0  0  0  0  0  0  0  0  0
   -3.3177    1.7206   -1.0014 C   0  0  0  0  0  0  0  0  0  0  0  0
   -3.9177    1.5183   -0.1237 H   0  0  0  0  0  0  0  0  0  0  0  0
   -0.0639   -0.8014    1.5451 C   0  0  0  0  0  0  0  0  0  0  0  0
    0.8951   -0.0970    1.8640 O   0  0  0  0  0  0  0  0  0  0  0  0
   -0.3791   -1.9243    2.2031 N   0  0  0  0  0  0  0  0  0  0  0  0
   -1.1446   -2.4763    1.8472 H   0  0  0  0  0  0  0  0  0  0  0  0
    0.3622   -2.4401    3.3514 C   0  0  0  0  0  0  0  0  0  0  0  0
    0.4689   -1.6568    4.1047 H   0  0  0  0  0  0  0  0  0  0  0  0
   -0.1630   -3.2898    3.7883 H   0  0  0  0  0  0  0  0  0  0  0  0
    1.3578   -2.7561    3.0339 H   0  0  0  0  0  0  0  0  0  0  0  0
  5  6  2  0  0  0  0
  5  7  1  0  0  0  0
  2  3  1  0  0  0  0
  2  4  1  0  0  0  0
  2  5  1  0  0  0  0
  1  2  1  0  0  0  0
 25 26  2  0  0  0  0
 25 27  1  0  0  0  0
 23 24  1  0  0  0  0
 21 22  1  0  0  0  0
 21 23  2  0  0  0  0
 19 20  1  0  0  0  0
 19 21  1  0  0  0  0
 17 18  1  0  0  0  0
 17 19  2  0  0  0  0
 15 16  1  0  0  0  0
 15 17  1  0  0  0  0
 14 15  2  0  0  0  0
 14 23  1  0  0  0  0
 11 12  1  0  0  0  0
 11 13  1  0  0  0  0
 11 14  1  0  0  0  0
  9 10  1  0  0  0  0
  9 11  1  0  0  0  0
  9 25  1  0  0  0  0
  7  8  1  0  0  0  0
  7  9  1  0  0  0  0
 29 30  1  0  0  0  0
 29 31  1  0  0  0  0
 29 32  1  0  0  0  0
 27 28  1  0  0  0  0
 27 29  1  0  0  0  0
M  END
$$$$
default_name
  -OEChem-01062215323D

 32 32  0     1  0  0  0  0  0999 V2000
   -3.8405   -3.7518    1.6252 H   0  0  0  0  0  0  0  0  0  0  0  0
   -3.7965   -2.8768    0.9782 C   0  0  0  0  0  0  0  0  0  0  0  0
   -4.5465   -2.1527    1.2902 H   0  0  0  0  0  0  0  0  0  0  0  0
   -3.9745   -3.1748   -0.0538 H   0  0  0  0  0  0  0  0  0  0  0  0
   -2.4245   -2.2537    1.0882 C   0  0  0  0  0  0  0  0  0  0  0  0
   -1.5805   -2.7478    1.8242 O   0  0  0  0  0  0  0  0  0  0  0  0
   -2.2045   -1.1637    0.3562 N   0  0  0  0  0  0  0  0  0  0  0  0
   -2.9595   -0.7907   -0.2008 H   0  0  0  0  0  0  0  0  0  0  0  0
   -0.9485   -0.4087    0.3482 C   0  0  1  0  0  0  0  0  0  0  0  0
   -0.4009   -0.6533   -0.5635 H   0  0  0  0  0  0  0  0  0  0  0  0
   -1.2610    1.0974    0.3359 C   0  0  0  0  0  0  0  0  0  0  0  0
   -1.9291    1.3284    1.1668 H   0  0  0  0  0  0  0  0  0  0  0  0
   -0.3352    1.6521    0.4961 H   0  0  0  0  0  0  0  0  0  0  0  0
   -1.9180    1.5791   -0.9436 C   0  0  0  0  0  0  0  0  0  0  0  0
   -1.1414    1.8492   -2.0864 C   0  0  0  0  0  0  0  0  0  0  0  0
   -0.0670    1.7363   -2.0515 H   0  0  0  0  0  0  0  0  0  0  0  0
   -1.7623    2.2559   -3.2817 C   0  0  0  0  0  0  0  0  0  0  0  0
   -1.1639    2.4653   -4.1573 H   0  0  0  0  0  0  0  0  0  0  0  0
   -3.1599    2.3916   -3.3373 C   0  0  0  0  0  0  0  0  0  0  0  0
   -3.6366    2.7064   -4.2550 H   0  0  0  0  0  0  0  0  0  0  0  0
   -3.9387    2.1240   -2.1968 C   0  0  0  0  0  0  0  0  0  0  0  0
   -5.0125    2.2334   -2.2378 H   0  0  0  0  0  0  0  0  0  0  0  0
   -3.3177    1.7206   -1.0014 C   0  0  0  0  0  0  0  0  0  0  0  0
   -3.9177    1.5183   -0.1237 H   0  0  0  0  0  0  0  0  0  0  0  0
   -0.0639   -0.8014    1.5451 C   0  0  0  0  0  0  0  0  0  0  0  0
    0.7117    0.0191    2.0376 O   0  0  0  0  0  0  0  0  0  0  0  0
   -0.1738   -2.0527    2.0092 N   0  0  0  0  0  0  0  0  0  0  0  0
   -0.7898   -2.6820    1.5175 H   0  0  0  0  0  0  0  0  0  0  0  0
    0.5987   -2.5851    3.1290 C   0  0  0  0  0  0  0  0  0  0  0  0
    0.5031   -1.9230    3.9921 H   0  0  0  0  0  0  0  0  0  0  0  0
    0.2385   -3.5788    3.3967 H   0  0  0  0  0  0  0  0  0  0  0  0
    1.6529   -2.6463    2.8518 H   0  0  0  0  0  0  0  0  0  0  0  0
  5  6  2  0  0  0  0
  5  7  1  0  0  0  0
  2  3  1  0  0  0  0
  2  4  1  0  0  0  0
  2  5  1  0  0  0  0
  1  2  1  0  0  0  0
 25 26  2  0  0  0  0
 25 27  1  0  0  0  0
 23 24  1  0  0  0  0
 21 22  1  0  0  0  0
 21 23  2  0  0  0  0
 19 20  1  0  0  0  0
 19 21  1  0  0  0  0
 17 18  1  0  0  0  0
 17 19  2  0  0  0  0
 15 16  1  0  0  0  0
 15 17  1  0  0  0  0
 14 15  2  0  0  0  0
 14 23  1  0  0  0  0
 11 12  1  0  0  0  0
 11 13  1  0  0  0  0
 11 14  1  0  0  0  0
  9 10  1  0  0  0  0
  9 11  1  0  0  0  0
  9 25  1  0  0  0  0
  7  8  1  0  0  0  0
  7  9  1  0  0  0  0
 29 30  1  0  0  0  0
 29 31  1  0  0  0  0
 29 32  1  0  0  0  0
 27 28  1  0  0  0  0
 27 29  1  0  0  0  0
M  END
$$$$
default_name
  -OEChem-01062215323D

 32 32  0     1  0  0  0  0  0999 V2000
   -3.8405   -3.7518    1.6252 H   0  0  0  0  0  0  0  0  0  0  0  0
   -3.7965   -2.8768    0.9782 C   0  0  0  0  0  0  0  0  0  0  0  0
   -4.5465   -2.1527    1.2902 H   0  0  0  0  0  0  0  0  0  0  0  0
   -3.9745   -3.1748   -0.0538 H   0  0  0  0  0  0  0  0  0  0  0  0
   -2.4245   -2.2537    1.0882 C   0  0  0  0  0  0  0  0  0  0  0  0
   -1.5805   -2.7478    1.8242 O   0  0  0  0  0  0  0  0  0  0  0  0
   -2.2045   -1.1637    0.3562 N   0  0  0  0  0  0  0  0  0  0  0  0
   -2.9595   -0.7907   -0.2008 H   0  0  0  0  0  0  0  0  0  0  0  0
   -0.9485   -0.4087    0.3482 C   0  0  1  0  0  0  0  0  0  0  0  0
   -0.4009   -0.6533   -0.5635 H   0  0  0  0  0  0  0  0  0  0  0  0
   -1.2610    1.0974    0.3359 C   0  0  0  0  0  0  0  0  0  0  0  0
   -1.9291    1.3284    1.1668 H   0  0  0  0  0  0  0  0  0  0  0  0
   -0.3352    1.6521    0.4961 H   0  0  0  0  0  0  0  0  0  0  0  0
   -1.9180    1.5791   -0.9436 C   0  0  0  0  0  0  0  0  0  0  0  0
   -1.1414    1.8492   -2.0864 C   0  0  0  0  0  0  0  0  0  0  0  0
   -0.0670    1.7363   -2.0515 H   0  0  0  0  0  0  0  0  0  0  0  0
   -1.7623    2.2559   -3.2817 C   0  0  0  0  0  0  0  0  0  0  0  0
   -1.1639    2.4653   -4.1573 H   0  0  0  0  0  0  0  0  0  0  0  0
   -3.1599    2.3916   -3.3373 C   0  0  0  0  0  0  0  0  0  0  0  0
   -3.6366    2.7064   -4.2550 H   0  0  0  0  0  0  0  0  0  0  0  0
   -3.9387    2.1240   -2.1968 C   0  0  0  0  0  0  0  0  0  0  0  0
   -5.0125    2.2334   -2.2378 H   0  0  0  0  0  0  0  0  0  0  0  0
   -3.3177    1.7206   -1.0014 C   0  0  0  0  0  0  0  0  0  0  0  0
   -3.9177    1.5183   -0.1237 H   0  0  0  0  0  0  0  0  0  0  0  0
   -0.0639   -0.8014    1.5451 C   0  0  0  0  0  0  0  0  0  0  0  0
    0.4998    0.0686    2.2105 O   0  0  0  0  0  0  0  0  0  0  0  0
    0.0632   -2.1065    1.8163 N   0  0  0  0  0  0  0  0  0  0  0  0
   -0.3840   -2.7603    1.1919 H   0  0  0  0  0  0  0  0  0  0  0  0
    0.8710   -2.6446    2.9082 C   0  0  0  0  0  0  0  0  0  0  0  0
    0.5972   -2.1564    3.8459 H   0  0  0  0  0  0  0  0  0  0  0  0
    0.7104   -3.7189    3.0020 H   0  0  0  0  0  0  0  0  0  0  0  0
    1.9279   -2.4538    2.7118 H   0  0  0  0  0  0  0  0  0  0  0  0
  5  6  2  0  0  0  0
  5  7  1  0  0  0  0
  2  3  1  0  0  0  0
  2  4  1  0  0  0  0
  2  5  1  0  0  0  0
  1  2  1  0  0  0  0
 25 26  2  0  0  0  0
 25 27  1  0  0  0  0
 23 24  1  0  0  0  0
 21 22  1  0  0  0  0
 21 23  2  0  0  0  0
 19 20  1  0  0  0  0
 19 21  1  0  0  0  0
 17 18  1  0  0  0  0
 17 19  2  0  0  0  0
 15 16  1  0  0  0  0
 15 17  1  0  0  0  0
 14 15  2  0  0  0  0
 14 23  1  0  0  0  0
 11 12  1  0  0  0  0
 11 13  1  0  0  0  0
 11 14  1  0  0  0  0
  9 10  1  0  0  0  0
  9 11  1  0  0  0  0
  9 25  1  0  0  0  0
  7  8  1  0  0  0  0
  7  9  1  0  0  0  0
 29 30  1  0  0  0  0
 29 31  1  0  0  0  0
 29 32  1  0  0  0  0
 27 28  1  0  0  0  0
 27 29  1  0  0  0  0
M  END
$$$$
default_name
  -OEChem-01062215323D

 32 32  0     1  0  0  0  0  0999 V2000
   -3.8405   -3.7518    1.6252 H   0  0  0  0  0  0  0  0  0  0  0  0
   -3.7965   -2.8768    0.9782 C   0  0  0  0  0  0  0  0  0  0  0  0
   -4.5465   -2.1527    1.2902 H   0  0  0  0  0  0  0  0  0  0  0  0
   -3.9745   -3.1748   -0.0538 H   0  0  0  0  0  0  0  0  0  0  0  0
   -2.4245   -2.2537    1.0882 C   0  0  0  0  0  0  0  0  0  0  0  0
   -1.5805   -2.7478    1.8242 O   0  0  0  0  0  0  0  0  0  0  0  0
   -2.2045   -1.1637    0.3562 N   0  0  0  0  0  0  0  0  0  0  0  0
   -2.9595   -0.7907   -0.2008 H   0  0  0  0  0  0  0  0  0  0  0  0
   -0.9485   -0.4087    0.3482 C   0  0  1  0  0  0  0  0  0  0  0  0
   -0.4009   -0.6533   -0.5635 H   0  0  0  0  0  0  0  0  0  0  0  0
   -1.2610    1.0974    0.3359 C   0  0  0  0  0  0  0  0  0  0  0  0
   -1.9291    1.3284    1.1668 H   0  0  0  0  0  0  0  0  0  0  0  0
   -0.3352    1.6521    0.4961 H   0  0  0  0  0  0  0  0  0  0  0  0
   -1.9180    1.5791   -0.9436 C   0  0  0  0  0  0  0  0  0  0  0  0
   -1.1414    1.8492   -2.0864 C   0  0  0  0  0  0  0  0  0  0  0  0
   -0.0670    1.7363   -2.0515 H   0  0  0  0  0  0  0  0  0  0  0  0
   -1.7623    2.2559   -3.2817 C   0  0  0  0  0  0  0  0  0  0  0  0
   -1.1639    2.4653   -4.1573 H   0  0  0  0  0  0  0  0  0  0  0  0
   -3.1599    2.3916   -3.3373 C   0  0  0  0  0  0  0  0  0  0  0  0
   -3.6366    2.7064   -4.2550 H   0  0  0  0  0  0  0  0  0  0  0  0
   -3.9387    2.1240   -2.1968 C   0  0  0  0  0  0  0  0  0  0  0  0
   -5.0125    2.2334   -2.2378 H   0  0  0  0  0  0  0  0  0  0  0  0
   -3.3177    1.7206   -1.0014 C   0  0  0  0  0  0  0  0  0  0  0  0
   -3.9177    1.5183   -0.1237 H   0  0  0  0  0  0  0  0  0  0  0  0
   -0.0639   -0.8014    1.5451 C   0  0  0  0  0  0  0  0  0  0  0  0
    0.2737    0.0481    2.3709 O   0  0  0  0  0  0  0  0  0  0  0  0
    0.3158   -2.0822    1.6377 N   0  0  0  0  0  0  0  0  0  0  0  0
    0.0453   -2.7058    0.8925 H   0  0  0  0  0  0  0  0  0  0  0  0
    1.1606   -2.6143    2.7041 C   0  0  0  0  0  0  0  0  0  0  0  0
    0.7447   -2.3413    3.6763 H   0  0  0  0  0  0  0  0  0  0  0  0
    1.2205   -3.7006    2.6311 H   0  0  0  0  0  0  0  0  0  0  0  0
    2.1640   -2.1917    2.6233 H   0  0  0  0  0  0  0  0  0  0  0  0
  5  6  2  0  0  0  0
  5  7  1  0  0  0  0
  2  3  1  0  0  0  0
  2  4  1  0  0  0  0
  2  5  1  0  0  0  0
  1  2  1  0  0  0  0
 25 26  2  0  0  0  0
 25 27  1  0  0  0  0
 23 24  1  0  0  0  0
 21 22  1  0  0  0  0
 21 23  2  0  0  0  0
 19 20  1  0  0  0  0
 19 21  1  0  0  0  0
 17 18  1  0  0  0  0
 17 19  2  0  0  0  0
 15 16  1  0  0  0  0
 15 17  1  0  0  0  0
 14 15  2  0  0  0  0
 14 23  1  0  0  0  0
 11 12  1  0  0  0  0
 11 13  1  0  0  0  0
 11 14  1  0  0  0  0
  9 10  1  0  0  0  0
  9 11  1  0  0  0  0
  9 25  1  0  0  0  0
  7  8  1  0  0  0  0
  7  9  1  0  0  0  0
 29 30  1  0  0  0  0
 29 31  1  0  0  0  0
 29 32  1  0  0  0  0
 27 28  1  0  0  0  0
 27 29  1  0  0  0  0
M  END
$$$$
default_name
  -OEChem-01062215323D

 32 32  0     1  0  0  0  0  0999 V2000
   -3.8405   -3.7518    1.6252 H   0  0  0  0  0  0  0  0  0  0  0  0
   -3.7965   -2.8768    0.9782 C   0  0  0  0  0  0  0  0  0  0  0  0
   -4.5465   -2.1527    1.2902 H   0  0  0  0  0  0  0  0  0  0  0  0
   -3.9745   -3.1748   -0.0538 H   0  0  0  0  0  0  0  0  0  0  0  0
   -2.4245   -2.2537    1.0882 C   0  0  0  0  0  0  0  0  0  0  0  0
   -1.5805   -2.7478    1.8242 O   0  0  0  0  0  0  0  0  0  0  0  0
   -2.2045   -1.1637    0.3562 N   0  0  0  0  0  0  0  0  0  0  0  0
   -2.9595   -0.7907   -0.2008 H   0  0  0  0  0  0  0  0  0  0  0  0
   -0.9485   -0.4087    0.3482 C   0  0  1  0  0  0  0  0  0  0  0  0
   -0.4009   -0.6533   -0.5635 H   0  0  0  0  0  0  0  0  0  0  0  0
   -1.2610    1.0974    0.3359 C   0  0  0  0  0  0  0  0  0  0  0  0
   -1.9291    1.3284    1.1668 H   0  0  0  0  0  0  0  0  0  0  0  0
   -0.3352    1.6521    0.4961 H   0  0  0  0  0  0  0  0  0  0  0  0
   -1.9180    1.5791   -0.9436 C   0  0  0  0  0  0  0  0  0  0  0  0
   -1.1414    1.8492   -2.0864 C   0  0  0  0  0  0  0  0  0  0  0  0
   -0.0670    1.7363   -2.0515 H   0  0  0  0  0  0  0  0  0  0  0  0
   -1.7623    2.2559   -3.2817 C   0  0  0  0  0  0  0  0  0  0  0  0
   -1.1639    2.4653   -4.1573 H   0  0  0  0  0  0  0  0  0  0  0  0
   -3.1599    2.3916   -3.3373 C   0  0  0  0  0  0  0  0  0  0  0  0
   -3.6366    2.7064   -4.2550 H   0  0  0  0  0  0  0  0  0  0  0  0
   -3.9387    2.1240   -2.1968 C   0  0  0  0  0  0  0  0  0  0  0  0
   -5.0125    2.2334   -2.2378 H   0  0  0  0  0  0  0  0  0  0  0  0
   -3.3177    1.7206   -1.0014 C   0  0  0  0  0  0  0  0  0  0  0  0
   -3.9177    1.5183   -0.1237 H   0  0  0  0  0  0  0  0  0  0  0  0
   -0.0639   -0.8014    1.5451 C   0  0  0  0  0  0  0  0  0  0  0  0
    0.0488   -0.0411    2.5078 O   0  0  0  0  0  0  0  0  0  0  0  0
    0.5666   -1.9813    1.4854 N   0  0  0  0  0  0  0  0  0  0  0  0
    0.4687   -2.5222    0.6398 H   0  0  0  0  0  0  0  0  0  0  0  0
    1.4477   -2.4965    2.5306 C   0  0  0  0  0  0  0  0  0  0  0  0
    0.9357   -2.4649    3.4946 H   0  0  0  0  0  0  0  0  0  0  0  0
    1.7340   -3.5250    2.3092 H   0  0  0  0  0  0  0  0  0  0  0  0
    2.3451   -1.8778    2.5924 H   0  0  0  0  0  0  0  0  0  0  0  0
  5  6  2  0  0  0  0
  5  7  1  0  0  0  0
  2  3  1  0  0  0  0
  2  4  1  0  0  0  0
  2  5  1  0  0  0  0
  1  2  1  0  0  0  0
 25 26  2  0  0  0  0
 25 27  1  0  0  0  0
 23 24  1  0  0  0  0
 21 22  1  0  0  0  0
 21 23  2  0  0  0  0
 19 20  1  0  0  0  0
 19 21  1  0  0  0  0
 17 18  1  0  0  0  0
 17 19  2  0  0  0  0
 15 16  1  0  0  0  0
 15 17  1  0  0  0  0
 14 15  2  0  0  0  0
 14 23  1  0  0  0  0
 11 12  1  0  0  0  0
 11 13  1  0  0  0  0
 11 14  1  0  0  0  0
  9 10  1  0  0  0  0
  9 11  1  0  0  0  0
  9 25  1  0  0  0  0
  7  8  1  0  0  0  0
  7  9  1  0  0  0  0
 29 30  1  0  0  0  0
 29 31  1  0  0  0  0
 29 32  1  0  0  0  0
 27 28  1  0  0  0  0
 27 29  1  0  0  0  0
M  END
$$$$
default_name
  -OEChem-01062215323D

 32 32  0     1  0  0  0  0  0999 V2000
   -3.8405   -3.7518    1.6252 H   0  0  0  0  0  0  0  0  0  0  0  0
   -3.7965   -2.8768    0.9782 C   0  0  0  0  0  0  0  0  0  0  0  0
   -4.5465   -2.1527    1.2902 H   0  0  0  0  0  0  0  0  0  0  0  0
   -3.9745   -3.1748   -0.0538 H   0  0  0  0  0  0  0  0  0  0  0  0
   -2.4245   -2.2537    1.0882 C   0  0  0  0  0  0  0  0  0  0  0  0
   -1.5805   -2.7478    1.8242 O   0  0  0  0  0  0  0  0  0  0  0  0
   -2.2045   -1.1637    0.3562 N   0  0  0  0  0  0  0  0  0  0  0  0
   -2.9595   -0.7907   -0.2008 H   0  0  0  0  0  0  0  0  0  0  0  0
   -0.9485   -0.4087    0.3482 C   0  0  1  0  0  0  0  0  0  0  0  0
   -0.4009   -0.6533   -0.5635 H   0  0  0  0  0  0  0  0  0  0  0  0
   -1.2610    1.0974    0.3359 C   0  0  0  0  0  0  0  0  0  0  0  0
   -1.9291    1.3284    1.1668 H   0  0  0  0  0  0  0  0  0  0  0  0
   -0.3352    1.6521    0.4961 H   0  0  0  0  0  0  0  0  0  0  0  0
   -1.9180    1.5791   -0.9436 C   0  0  0  0  0  0  0  0  0  0  0  0
   -1.1414    1.8492   -2.0864 C   0  0  0  0  0  0  0  0  0  0  0  0
   -0.0670    1.7363   -2.0515 H   0  0  0  0  0  0  0  0  0  0  0  0
   -1.7623    2.2559   -3.2817 C   0  0  0  0  0  0  0  0  0  0  0  0
   -1.1639    2.4653   -4.1573 H   0  0  0  0  0  0  0  0  0  0  0  0
   -3.1599    2.3916   -3.3373 C   0  0  0  0  0  0  0  0  0  0  0  0
   -3.6366    2.7064   -4.2550 H   0  0  0  0  0  0  0  0  0  0  0  0
   -3.9387    2.1240   -2.1968 C   0  0  0  0  0  0  0  0  0  0  0  0
   -5.0125    2.2334   -2.2378 H   0  0  0  0  0  0  0  0  0  0  0  0
   -3.3177    1.7206   -1.0014 C   0  0  0  0  0  0  0  0  0  0  0  0
   -3.9177    1.5183   -0.1237 H   0  0  0  0  0  0  0  0  0  0  0  0
   -0.0639   -0.8014    1.5451 C   0  0  0  0  0  0  0  0  0  0  0  0
   -0.1595   -0.1929    2.6119 O   0  0  0  0  0  0  0  0  0  0  0  0
    0.7985   -1.8107    1.3700 N   0  0  0  0  0  0  0  0  0  0  0  0
    0.8575   -2.2221    0.4509 H   0  0  0  0  0  0  0  0  0  0  0  0
    1.7128   -2.2990    2.3995 C   0  0  0  0  0  0  0  0  0  0  0  0
    1.1569   -2.5189    3.3134 H   0  0  0  0  0  0  0  0  0  0  0  0
    2.2159   -3.2042    2.0582 H   0  0  0  0  0  0  0  0  0  0  0  0
    2.4589   -1.5335    2.6212 H   0  0  0  0  0  0  0  0  0  0  0  0
  5  6  2  0  0  0  0
  5  7  1  0  0  0  0
  2  3  1  0  0  0  0
  2  4  1  0  0  0  0
  2  5  1  0  0  0  0
  1  2  1  0  0  0  0
 25 26  2  0  0  0  0
 25 27  1  0  0  0  0
 23 24  1  0  0  0  0
 21 22  1  0  0  0  0
 21 23  2  0  0  0  0
 19 20  1  0  0  0  0
 19 21  1  0  0  0  0
 17 18  1  0  0  0  0
 17 19  2  0  0  0  0
 15 16  1  0  0  0  0
 15 17  1  0  0  0  0
 14 15  2  0  0  0  0
 14 23  1  0  0  0  0
 11 12  1  0  0  0  0
 11 13  1  0  0  0  0
 11 14  1  0  0  0  0
  9 10  1  0  0  0  0
  9 11  1  0  0  0  0
  9 25  1  0  0  0  0
  7  8  1  0  0  0  0
  7  9  1  0  0  0  0
 29 30  1  0  0  0  0
 29 31  1  0  0  0  0
 29 32  1  0  0  0  0
 27 28  1  0  0  0  0
 27 29  1  0  0  0  0
M  END
$$$$
default_name
  -OEChem-01062215323D

 32 32  0     1  0  0  0  0  0999 V2000
   -3.8405   -3.7518    1.6252 H   0  0  0  0  0  0  0  0  0  0  0  0
   -3.7965   -2.8768    0.9782 C   0  0  0  0  0  0  0  0  0  0  0  0
   -4.5465   -2.1527    1.2902 H   0  0  0  0  0  0  0  0  0  0  0  0
   -3.9745   -3.1748   -0.0538 H   0  0  0  0  0  0  0  0  0  0  0  0
   -2.4245   -2.2537    1.0882 C   0  0  0  0  0  0  0  0  0  0  0  0
   -1.5805   -2.7478    1.8242 O   0  0  0  0  0  0  0  0  0  0  0  0
   -2.2045   -1.1637    0.3562 N   0  0  0  0  0  0  0  0  0  0  0  0
   -2.9595   -0.7907   -0.2008 H   0  0  0  0  0  0  0  0  0  0  0  0
   -0.9485   -0.4087    0.3482 C   0  0  1  0  0  0  0  0  0  0  0  0
   -0.4009   -0.6533   -0.5635 H   0  0  0  0  0  0  0  0  0  0  0  0
   -1.2610    1.0974    0.3359 C   0  0  0  0  0  0  0  0  0  0  0  0
   -1.9291    1.3284    1.1668 H   0  0  0  0  0  0  0  0  0  0  0  0
   -0.3352    1.6521    0.4961 H   0  0  0  0  0  0  0  0  0  0  0  0
   -1.9180    1.5791   -0.9436 C   0  0  0  0  0  0  0  0  0  0  0  0
   -1.1414    1.8492   -2.0864 C   0  0  0  0  0  0  0  0  0  0  0  0
   -0.0670    1.7363   -2.0515 H   0  0  0  0  0  0  0  0  0  0  0  0
   -1.7623    2.2559   -3.2817 C   0  0  0  0  0  0  0  0  0  0  0  0
   -1.1639    2.4653   -4.1573 H   0  0  0  0  0  0  0  0  0  0  0  0
   -3.1599    2.3916   -3.3373 C   0  0  0  0  0  0  0  0  0  0  0  0
   -3.6366    2.7064   -4.2550 H   0  0  0  0  0  0  0  0  0  0  0  0
   -3.9387    2.1240   -2.1968 C   0  0  0  0  0  0  0  0  0  0  0  0
   -5.0125    2.2334   -2.2378 H   0  0  0  0  0  0  0  0  0  0  0  0
   -3.3177    1.7206   -1.0014 C   0  0  0  0  0  0  0  0  0  0  0  0
   -3.9177    1.5183   -0.1237 H   0  0  0  0  0  0  0  0  0  0  0  0
   -0.0639   -0.8014    1.5451 C   0  0  0  0  0  0  0  0  0  0  0  0
   -0.3370   -0.3970    2.6762 O   0  0  0  0  0  0  0  0  0  0  0  0
    0.9959   -1.5820    1.2991 N   0  0  0  0  0  0  0  0  0  0  0  0
    1.1850   -1.8258    0.3388 H   0  0  0  0  0  0  0  0  0  0  0  0
    1.9377   -2.0355    2.3197 C   0  0  0  0  0  0  0  0  0  0  0  0
    1.3935   -2.4996    3.1449 H   0  0  0  0  0  0  0  0  0  0  0  0
    2.6334   -2.7600    1.8954 H   0  0  0  0  0  0  0  0  0  0  0  0
    2.4977   -1.1824    2.7077 H   0  0  0  0  0  0  0  0  0  0  0  0
  5  6  2  0  0  0  0
  5  7  1  0  0  0  0
  2  3  1  0  0  0  0
  2  4  1  0  0  0  0
  2  5  1  0  0  0  0
  1  2  1  0  0  0  0
 25 26  2  0  0  0  0
 25 27  1  0  0  0  0
 23 24  1  0  0  0  0
 21 22  1  0  0  0  0
 21 23  2  0  0  0  0
 19 20  1  0  0  0  0
 19 21  1  0  0  0  0
 17 18  1  0  0  0  0
 17 19  2  0  0  0  0
 15 16  1  0  0  0  0
 15 17  1  0  0  0  0
 14 15  2  0  0  0  0
 14 23  1  0  0  0  0
 11 12  1  0  0  0  0
 11 13  1  0  0  0  0
 11 14  1  0  0  0  0
  9 10  1  0  0  0  0
  9 11  1  0  0  0  0
  9 25  1  0  0  0  0
  7  8  1  0  0  0  0
  7  9  1  0  0  0  0
 29 30  1  0  0  0  0
 29 31  1  0  0  0  0
 29 32  1  0  0  0  0
 27 28  1  0  0  0  0
 27 29  1  0  0  0  0
M  END
$$$$
default_name
  -OEChem-01062215323D

 32 32  0     1  0  0  0  0  0999 V2000
   -3.8405   -3.7518    1.6252 H   0  0  0  0  0  0  0  0  0  0  0  0
   -3.7965   -2.8768    0.9782 C   0  0  0  0  0  0  0  0  0  0  0  0
   -4.5465   -2.1527    1.2902 H   0  0  0  0  0  0  0  0  0  0  0  0
   -3.9745   -3.1748   -0.0538 H   0  0  0  0  0  0  0  0  0  0  0  0
   -2.4245   -2.2537    1.0882 C   0  0  0  0  0  0  0  0  0  0  0  0
   -1.5805   -2.7478    1.8242 O   0  0  0  0  0  0  0  0  0  0  0  0
   -2.2045   -1.1637    0.3562 N   0  0  0  0  0  0  0  0  0  0  0  0
   -2.9595   -0.7907   -0.2008 H   0  0  0  0  0  0  0  0  0  0  0  0
   -0.9485   -0.4087    0.3482 C   0  0  1  0  0  0  0  0  0  0  0  0
   -0.4009   -0.6533   -0.5635 H   0  0  0  0  0  0  0  0  0  0  0  0
   -1.2610    1.0974    0.3359 C   0  0  0  0  0  0  0  0  0  0  0  0
   -1.9291    1.3284    1.1668 H   0  0  0  0  0  0  0  0  0  0  0  0
   -0.3352    1.6521    0.4961 H   0  0  0  0  0  0  0  0  0  0  0  0
   -1.9180    1.5791   -0.9436 C   0  0  0  0  0  0  0  0  0  0  0  0
   -1.1414    1.8492   -2.0864 C   0  0  0  0  0  0  0  0  0  0  0  0
   -0.0670    1.7363   -2.0515 H   0  0  0  0  0  0  0  0  0  0  0  0
   -1.7623    2.2559   -3.2817 C   0  0  0  0  0  0  0  0  0  0  0  0
   -1.1639    2.4653   -4.1573 H   0  0  0  0  0  0  0  0  0  0  0  0
   -3.1599    2.3916   -3.3373 C   0  0  0  0  0  0  0  0  0  0  0  0
   -3.6366    2.7064   -4.2550 H   0  0  0  0  0  0  0  0  0  0  0  0
   -3.9387    2.1240   -2.1968 C   0  0  0  0  0  0  0  0  0  0  0  0
   -5.0125    2.2334   -2.2378 H   0  0  0  0  0  0  0  0  0  0  0  0
   -3.3177    1.7206   -1.0014 C   0  0  0  0  0  0  0  0  0  0  0  0
   -3.9177    1.5183   -0.1237 H   0  0  0  0  0  0  0  0  0  0  0  0
   -0.0639   -0.8014    1.5451 C   0  0  0  0  0  0  0  0  0  0  0  0
   -0.4716   -0.6393    2.6962 O   0  0  0  0  0  0  0  0  0  0  0  0
    1.1452   -1.3109    1.2777 N   0  0  0  0  0  0  0  0  0  0  0  0
    1.4291   -1.3605    0.3111 H   0  0  0  0  0  0  0  0  0  0  0  0
    2.1072   -1.7238    2.2967 C   0  0  0  0  0  0  0  0  0  0  0  0
    1.6292   -2.4082    3.0006 H   0  0  0  0  0  0  0  0  0  0  0  0
    2.9580   -2.2227    1.8318 H   0  0  0  0  0  0  0  0  0  0  0  0
    2.4588   -0.8483    2.8461 H   0  0  0  0  0  0  0  0  0  0  0  0
  5  6  2  0  0  0  0
  5  7  1  0  0  0  0
  2  3  1  0  0  0  0
  2  4  1  0  0  0  0
  2  5  1  0  0  0  0
  1  2  1  0  0  0  0
 25 26  2  0  0  0  0
 25 27  1  0  0  0  0
 23 24  1  0  0  0  0
 21 22  1  0  0  0  0
 21 23  2  0  0  0  0
 19 20  1  0  0  0  0
 19 21  1  0  0  0  0
 17 18  1  0  0  0  0
 17 19  2  0  0  0  0
 15 16  1  0  0  0  0
 15 17  1  0  0  0  0
 14 15  2  0  0  0  0
 14 23  1  0  0  0  0
 11 12  1  0  0  0  0
 11 13  1  0  0  0  0
 11 14  1  0  0  0  0
  9 10  1  0  0  0  0
  9 11  1  0  0  0  0
  9 25  1  0  0  0  0
  7  8  1  0  0  0  0
  7  9  1  0  0  0  0
 29 30  1  0  0  0  0
 29 31  1  0  0  0  0
 29 32  1  0  0  0  0
 27 28  1  0  0  0  0
 27 29  1  0  0  0  0
M  END
$$$$
default_name
  -OEChem-01062215323D

 32 32  0     1  0  0  0  0  0999 V2000
   -3.8405   -3.7518    1.6252 H   0  0  0  0  0  0  0  0  0  0  0  0
   -3.7965   -2.8768    0.9782 C   0  0  0  0  0  0  0  0  0  0  0  0
   -4.5465   -2.1527    1.2902 H   0  0  0  0  0  0  0  0  0  0  0  0
   -3.9745   -3.1748   -0.0538 H   0  0  0  0  0  0  0  0  0  0  0  0
   -2.4245   -2.2537    1.0882 C   0  0  0  0  0  0  0  0  0  0  0  0
   -1.5805   -2.7478    1.8242 O   0  0  0  0  0  0  0  0  0  0  0  0
   -2.2045   -1.1637    0.3562 N   0  0  0  0  0  0  0  0  0  0  0  0
   -2.9595   -0.7907   -0.2008 H   0  0  0  0  0  0  0  0  0  0  0  0
   -0.9485   -0.4087    0.3482 C   0  0  1  0  0  0  0  0  0  0  0  0
   -0.4009   -0.6533   -0.5635 H   0  0  0  0  0  0  0  0  0  0  0  0
   -1.2610    1.0974    0.3359 C   0  0  0  0  0  0  0  0  0  0  0  0
   -1.9291    1.3284    1.1668 H   0  0  0  0  0  0  0  0  0  0  0  0
   -0.3352    1.6521    0.4961 H   0  0  0  0  0  0  0  0  0  0  0  0
   -1.9180    1.5791   -0.9436 C   0  0  0  0  0  0  0  0  0  0  0  0
   -1.1414    1.8492   -2.0864 C   0  0  0  0  0  0  0  0  0  0  0  0
   -0.0670    1.7363   -2.0515 H   0  0  0  0  0  0  0  0  0  0  0  0
   -1.7623    2.2559   -3.2817 C   0  0  0  0  0  0  0  0  0  0  0  0
   -1.1639    2.4653   -4.1573 H   0  0  0  0  0  0  0  0  0  0  0  0
   -3.1599    2.3916   -3.3373 C   0  0  0  0  0  0  0  0  0  0  0  0
   -3.6366    2.7064   -4.2550 H   0  0  0  0  0  0  0  0  0  0  0  0
   -3.9387    2.1240   -2.1968 C   0  0  0  0  0  0  0  0  0  0  0  0
   -5.0125    2.2334   -2.2378 H   0  0  0  0  0  0  0  0  0  0  0  0
   -3.3177    1.7206   -1.0014 C   0  0  0  0  0  0  0  0  0  0  0  0
   -3.9177    1.5183   -0.1237 H   0  0  0  0  0  0  0  0  0  0  0  0
   -0.0639   -0.8014    1.5451 C   0  0  0  0  0  0  0  0  0  0  0  0
   -0.5542   -0.9035    2.6706 O   0  0  0  0  0  0  0  0  0  0  0  0
    1.2363   -1.0158    1.3072 N   0  0  0  0  0  0  0  0  0  0  0  0
    1.5730   -0.8578    0.3696 H   0  0  0  0  0  0  0  0  0  0  0  0
    2.2098   -1.3851    2.3320 C   0  0  0  0  0  0  0  0  0  0  0  0
    1.8480   -2.2511    2.8905 H   0  0  0  0  0  0  0  0  0  0  0  0
    3.1676   -1.6289    1.8716 H   0  0  0  0  0  0  0  0  0  0  0  0
    2.3448   -0.5540    3.0268 H   0  0  0  0  0  0  0  0  0  0  0  0
  5  6  2  0  0  0  0
  5  7  1  0  0  0  0
  2  3  1  0  0  0  0
  2  4  1  0  0  0  0
  2  5  1  0  0  0  0
  1  2  1  0  0  0  0
 25 26  2  0  0  0  0
 25 27  1  0  0  0  0
 23 24  1  0  0  0  0
 21 22  1  0  0  0  0
 21 23  2  0  0  0  0
 19 20  1  0  0  0  0
 19 21  1  0  0  0  0
 17 18  1  0  0  0  0
 17 19  2  0  0  0  0
 15 16  1  0  0  0  0
 15 17  1  0  0  0  0
 14 15  2  0  0  0  0
 14 23  1  0  0  0  0
 11 12  1  0  0  0  0
 11 13  1  0  0  0  0
 11 14  1  0  0  0  0
  9 10  1  0  0  0  0
  9 11  1  0  0  0  0
  9 25  1  0  0  0  0
  7  8  1  0  0  0  0
  7  9  1  0  0  0  0
 29 30  1  0  0  0  0
 29 31  1  0  0  0  0
 29 32  1  0  0  0  0
 27 28  1  0  0  0  0
 27 29  1  0  0  0  0
M  END
$$$$
default_name
  -OEChem-01062215323D

 32 32  0     1  0  0  0  0  0999 V2000
   -3.8405   -3.7518    1.6252 H   0  0  0  0  0  0  0  0  0  0  0  0
   -3.7965   -2.8768    0.9782 C   0  0  0  0  0  0  0  0  0  0  0  0
   -4.5465   -2.1527    1.2902 H   0  0  0  0  0  0  0  0  0  0  0  0
   -3.9745   -3.1748   -0.0538 H   0  0  0  0  0  0  0  0  0  0  0  0
   -2.4245   -2.2537    1.0882 C   0  0  0  0  0  0  0  0  0  0  0  0
   -1.5805   -2.7478    1.8242 O   0  0  0  0  0  0  0  0  0  0  0  0
   -2.2045   -1.1637    0.3562 N   0  0  0  0  0  0  0  0  0  0  0  0
   -2.9595   -0.7907   -0.2008 H   0  0  0  0  0  0  0  0  0  0  0  0
   -0.9485   -0.4087    0.3482 C   0  0  1  0  0  0  0  0  0  0  0  0
   -0.4009   -0.6533   -0.5635 H   0  0  0  0  0  0  0  0  0  0  0  0
   -1.2610    1.0974    0.3359 C   0  0  0  0  0  0  0  0  0  0  0  0
   -1.9291    1.3284    1.1668 H   0  0  0  0  0  0  0  0  0  0  0  0
   -0.3352    1.6521    0.4961 H   0  0  0  0  0  0  0  0  0  0  0  0
   -1.9180    1.5791   -0.9436 C   0  0  0  0  0  0  0  0  0  0  0  0
   -1.1414    1.8492   -2.0864 C   0  0  0  0  0  0  0  0  0  0  0  0
   -0.0670    1.7363   -2.0515 H   0  0  0  0  0  0  0  0  0  0  0  0
   -1.7623    2.2559   -3.2817 C   0  0  0  0  0  0  0  0  0  0  0  0
   -1.1639    2.4653   -4.1573 H   0  0  0  0  0  0  0  0  0  0  0  0
   -3.1599    2.3916   -3.3373 C   0  0  0  0  0  0  0  0  0  0  0  0
   -3.6366    2.7064   -4.2550 H   0  0  0  0  0  0  0  0  0  0  0  0
   -3.9387    2.1240   -2.1968 C   0  0  0  0  0  0  0  0  0  0  0  0
   -5.0125    2.2334   -2.2378 H   0  0  0  0  0  0  0  0  0  0  0  0
   -3.3177    1.7206   -1.0014 C   0  0  0  0  0  0  0  0  0  0  0  0
   -3.9177    1.5183   -0.1237 H   0  0  0  0  0  0  0  0  0  0  0  0
   -0.0639   -0.8014    1.5451 C   0  0  0  0  0  0  0  0  0  0  0  0
   -0.5791   -1.1715    2.6011 O   0  0  0  0  0  0  0  0  0  0  0  0
    1.2629   -0.7168    1.3856 N   0  0  0  0  0  0  0  0  0  0  0  0
    1.6070   -0.3519    0.5105 H   0  0  0  0  0  0  0  0  0  0  0  0
    2.2383   -1.0427    2.4232 C   0  0  0  0  0  0  0  0  0  0  0  0
    2.0351   -2.0388    2.8219 H   0  0  0  0  0  0  0  0  0  0  0  0
    3.2480   -1.0191    2.0123 H   0  0  0  0  0  0  0  0  0  0  0  0
    2.1635   -0.3196    3.2377 H   0  0  0  0  0  0  0  0  0  0  0  0
  5  6  2  0  0  0  0
  5  7  1  0  0  0  0
  2  3  1  0  0  0  0
  2  4  1  0  0  0  0
  2  5  1  0  0  0  0
  1  2  1  0  0  0  0
 25 26  2  0  0  0  0
 25 27  1  0  0  0  0
 23 24  1  0  0  0  0
 21 22  1  0  0  0  0
 21 23  2  0  0  0  0
 19 20  1  0  0  0  0
 19 21  1  0  0  0  0
 17 18  1  0  0  0  0
 17 19  2  0  0  0  0
 15 16  1  0  0  0  0
 15 17  1  0  0  0  0
 14 15  2  0  0  0  0
 14 23  1  0  0  0  0
 11 12  1  0  0  0  0
 11 13  1  0  0  0  0
 11 14  1  0  0  0  0
  9 10  1  0  0  0  0
  9 11  1  0  0  0  0
  9 25  1  0  0  0  0
  7  8  1  0  0  0  0
  7  9  1  0  0  0  0
 29 30  1  0  0  0  0
 29 31  1  0  0  0  0
 29 32  1  0  0  0  0
 27 28  1  0  0  0  0
 27 29  1  0  0  0  0
M  END
$$$$
default_name
  -OEChem-01062215323D

 32 32  0     1  0  0  0  0  0999 V2000
   -3.8405   -3.7518    1.6252 H   0  0  0  0  0  0  0  0  0  0  0  0
   -3.7965   -2.8768    0.9782 C   0  0  0  0  0  0  0  0  0  0  0  0
   -4.5465   -2.1527    1.2902 H   0  0  0  0  0  0  0  0  0  0  0  0
   -3.9745   -3.1748   -0.0538 H   0  0  0  0  0  0  0  0  0  0  0  0
   -2.4245   -2.2537    1.0882 C   0  0  0  0  0  0  0  0  0  0  0  0
   -1.5805   -2.7478    1.8242 O   0  0  0  0  0  0  0  0  0  0  0  0
   -2.2045   -1.1637    0.3562 N   0  0  0  0  0  0  0  0  0  0  0  0
   -2.9595   -0.7907   -0.2008 H   0  0  0  0  0  0  0  0  0  0  0  0
   -0.9485   -0.4087    0.3482 C   0  0  1  0  0  0  0  0  0  0  0  0
   -0.4009   -0.6533   -0.5635 H   0  0  0  0  0  0  0  0  0  0  0  0
   -1.2610    1.0974    0.3359 C   0  0  0  0  0  0  0  0  0  0  0  0
   -1.9291    1.3284    1.1668 H   0  0  0  0  0  0  0  0  0  0  0  0
   -0.3352    1.6521    0.4961 H   0  0  0  0  0  0  0  0  0  0  0  0
   -1.9180    1.5791   -0.9436 C   0  0  0  0  0  0  0  0  0  0  0  0
   -1.1414    1.8492   -2.0864 C   0  0  0  0  0  0  0  0  0  0  0  0
   -0.0670    1.7363   -2.0515 H   0  0  0  0  0  0  0  0  0  0  0  0
   -1.7623    2.2559   -3.2817 C   0  0  0  0  0  0  0  0  0  0  0  0
   -1.1639    2.4653   -4.1573 H   0  0  0  0  0  0  0  0  0  0  0  0
   -3.1599    2.3916   -3.3373 C   0  0  0  0  0  0  0  0  0  0  0  0
   -3.6366    2.7064   -4.2550 H   0  0  0  0  0  0  0  0  0  0  0  0
   -3.9387    2.1240   -2.1968 C   0  0  0  0  0  0  0  0  0  0  0  0
   -5.0125    2.2334   -2.2378 H   0  0  0  0  0  0  0  0  0  0  0  0
   -3.3177    1.7206   -1.0014 C   0  0  0  0  0  0  0  0  0  0  0  0
   -3.9177    1.5183   -0.1237 H   0  0  0  0  0  0  0  0  0  0  0  0
   -0.0639   -0.8014    1.5451 C   0  0  0  0  0  0  0  0  0  0  0  0
   -0.5447   -1.4250    2.4924 O   0  0  0  0  0  0  0  0  0  0  0  0
    1.2233   -0.4342    1.5076 N   0  0  0  0  0  0  0  0  0  0  0  0
    1.5287    0.1226    0.7240 H   0  0  0  0  0  0  0  0  0  0  0  0
    2.1909   -0.7197    2.5642 C   0  0  0  0  0  0  0  0  0  0  0  0
    2.1775   -1.7860    2.7995 H   0  0  0  0  0  0  0  0  0  0  0  0
    3.1936   -0.4348    2.2442 H   0  0  0  0  0  0  0  0  0  0  0  0
    1.9274   -0.1610    3.4643 H   0  0  0  0  0  0  0  0  0  0  0  0
  5  6  2  0  0  0  0
  5  7  1  0  0  0  0
  2  3  1  0  0  0  0
  2  4  1  0  0  0  0
  2  5  1  0  0  0  0
  1  2  1  0  0  0  0
 25 26  2  0  0  0  0
 25 27  1  0  0  0  0
 23 24  1  0  0  0  0
 21 22  1  0  0  0  0
 21 23  2  0  0  0  0
 19 20  1  0  0  0  0
 19 21  1  0  0  0  0
 17 18  1  0  0  0  0
 17 19  2  0  0  0  0
 15 16  1  0  0  0  0
 15 17  1  0  0  0  0
 14 15  2  0  0  0  0
 14 23  1  0  0  0  0
 11 12  1  0  0  0  0
 11 13  1  0  0  0  0
 11 14  1  0  0  0  0
  9 10  1  0  0  0  0
  9 11  1  0  0  0  0
  9 25  1  0  0  0  0
  7  8  1  0  0  0  0
  7  9  1  0  0  0  0
 29 30  1  0  0  0  0
 29 31  1  0  0  0  0
 29 32  1  0  0  0  0
 27 28  1  0  0  0  0
 27 29  1  0  0  0  0
M  END
$$$$
default_name
  -OEChem-01062215323D

 32 32  0     1  0  0  0  0  0999 V2000
   -3.8405   -3.7518    1.6252 H   0  0  0  0  0  0  0  0  0  0  0  0
   -3.7965   -2.8768    0.9782 C   0  0  0  0  0  0  0  0  0  0  0  0
   -4.5465   -2.1527    1.2902 H   0  0  0  0  0  0  0  0  0  0  0  0
   -3.9745   -3.1748   -0.0538 H   0  0  0  0  0  0  0  0  0  0  0  0
   -2.4245   -2.2537    1.0882 C   0  0  0  0  0  0  0  0  0  0  0  0
   -1.5805   -2.7478    1.8242 O   0  0  0  0  0  0  0  0  0  0  0  0
   -2.2045   -1.1637    0.3562 N   0  0  0  0  0  0  0  0  0  0  0  0
   -2.9595   -0.7907   -0.2008 H   0  0  0  0  0  0  0  0  0  0  0  0
   -0.9485   -0.4087    0.3482 C   0  0  1  0  0  0  0  0  0  0  0  0
   -0.5313   -0.4374   -0.6597 H   0  0  0  0  0  0  0  0  0  0  0  0
   -1.2350    1.0582    0.7120 C   0  0  0  0  0  0  0  0  0  0  0  0
   -1.7827    1.0899    1.6549 H   0  0  0  0  0  0  0  0  0  0  0  0
   -0.2871    1.5760    0.8662 H   0  0  0  0  0  0  0  0  0  0  0  0
   -2.0486    1.8028   -0.3294 C   0  0  0  0  0  0  0  0  0  0  0  0
   -1.4268    2.3303   -1.4770 C   0  0  0  0  0  0  0  0  0  0  0  0
   -0.3593    2.2271   -1.6118 H   0  0  0  0  0  0  0  0  0  0  0  0
   -2.1945    2.9837   -2.4586 C   0  0  0  0  0  0  0  0  0  0  0  0
   -1.7147    3.3902   -3.3378 H   0  0  0  0  0  0  0  0  0  0  0  0
   -3.5846    3.1092   -2.2956 C   0  0  0  0  0  0  0  0  0  0  0  0
   -4.1741    3.6133   -3.0486 H   0  0  0  0  0  0  0  0  0  0  0  0
   -4.2089    2.5846   -1.1493 C   0  0  0  0  0  0  0  0  0  0  0  0
   -5.2767    2.6858   -1.0213 H   0  0  0  0  0  0  0  0  0  0  0  0
   -3.4409    1.9345   -0.1670 C   0  0  0  0  0  0  0  0  0  0  0  0
   -3.9220    1.5343    0.7160 H   0  0  0  0  0  0  0  0  0  0  0  0
    0.0811   -1.0451    1.2992 C   0  0  0  0  0  0  0  0  0  0  0  0
   -0.2112   -2.0538    1.9431 O   0  0  0  0  0  0  0  0  0  0  0  0
    1.2804   -0.4570    1.3928 N   0  0  0  0  0  0  0  0  0  0  0  0
    1.4245    0.3974    0.8765 H   0  0  0  0  0  0  0  0  0  0  0  0
    2.3623   -0.9283    2.2540 C   0  0  0  0  0  0  0  0  0  0  0  0
    2.5484   -1.9880    2.0673 H   0  0  0  0  0  0  0  0  0  0  0  0
    3.2739   -0.3632    2.0575 H   0  0  0  0  0  0  0  0  0  0  0  0
    2.0793   -0.8034    3.3010 H   0  0  0  0  0  0  0  0  0  0  0  0
  5  6  2  0  0  0  0
  5  7  1  0  0  0  0
  2  3  1  0  0  0  0
  2  4  1  0  0  0  0
  2  5  1  0  0  0  0
  1  2  1  0  0  0  0
 25 26  2  0  0  0  0
 25 27  1  0  0  0  0
 23 24  1  0  0  0  0
 21 22  1  0  0  0  0
 21 23  2  0  0  0  0
 19 20  1  0  0  0  0
 19 21  1  0  0  0  0
 17 18  1  0  0  0  0
 17 19  2  0  0  0  0
 15 16  1  0  0  0  0
 15 17  1  0  0  0  0
 14 15  2  0  0  0  0
 14 23  1  0  0  0  0
 11 12  1  0  0  0  0
 11 13  1  0  0  0  0
 11 14  1  0  0  0  0
  9 10  1  0  0  0  0
  9 11  1  0  0  0  0
  9 25  1  0  0  0  0
  7  8  1  0  0  0  0
  7  9  1  0  0  0  0
 29 30  1  0  0  0  0
 29 31  1  0  0  0  0
 29 32  1  0  0  0  0
 27 28  1  0  0  0  0
 27 29  1  0  0  0  0
M  END
$$$$
default_name
  -OEChem-01062215323D

 32 32  0     1  0  0  0  0  0999 V2000
   -3.8405   -3.7518    1.6252 H   0  0  0  0  0  0  0  0  0  0  0  0
   -3.7965   -2.8768    0.9782 C   0  0  0  0  0  0  0  0  0  0  0  0
   -4.5465   -2.1527    1.2902 H   0  0  0  0  0  0  0  0  0  0  0  0
   -3.9745   -3.1748   -0.0538 H   0  0  0  0  0  0  0  0  0  0  0  0
   -2.4245   -2.2537    1.0882 C   0  0  0  0  0  0  0  0  0  0  0  0
   -1.5805   -2.7478    1.8242 O   0  0  0  0  0  0  0  0  0  0  0  0
   -2.2045   -1.1637    0.3562 N   0  0  0  0  0  0  0  0  0  0  0  0
   -2.9595   -0.7907   -0.2008 H   0  0  0  0  0  0  0  0  0  0  0  0
   -0.9485   -0.4087    0.3482 C   0  0  1  0  0  0  0  0  0  0  0  0
   -0.5313   -0.4374   -0.6597 H   0  0  0  0  0  0  0  0  0  0  0  0
   -1.2350    1.0582    0.7120 C   0  0  0  0  0  0  0  0  0  0  0  0
   -1.7827    1.0899    1.6549 H   0  0  0  0  0  0  0  0  0  0  0  0
   -0.2871    1.5760    0.8662 H   0  0  0  0  0  0  0  0  0  0  0  0
   -2.0486    1.8028   -0.3294 C   0  0  0  0  0  0  0  0  0  0  0  0
   -1.4268    2.3303   -1.4770 C   0  0  0  0  0  0  0  0  0  0  0  0
   -0.3593    2.2271   -1.6118 H   0  0  0  0  0  0  0  0  0  0  0  0
   -2.1945    2.9837   -2.4586 C   0  0  0  0  0  0  0  0  0  0  0  0
   -1.7147    3.3902   -3.3378 H   0  0  0  0  0  0  0  0  0  0  0  0
   -3.5846    3.1092   -2.2956 C   0  0  0  0  0  0  0  0  0  0  0  0
   -4.1741    3.6133   -3.0486 H   0  0  0  0  0  0  0  0  0  0  0  0
   -4.2089    2.5846   -1.1493 C   0  0  0  0  0  0  0  0  0  0  0  0
   -5.2767    2.6858   -1.0213 H   0  0  0  0  0  0  0  0  0  0  0  0
   -3.4409    1.9345   -0.1670 C   0  0  0  0  0  0  0  0  0  0  0  0
   -3.9220    1.5343    0.7160 H   0  0  0  0  0  0  0  0  0  0  0  0
    0.0811   -1.0451    1.2992 C   0  0  0  0  0  0  0  0  0  0  0  0
   -0.0947   -2.1863    1.7284 O   0  0  0  0  0  0  0  0  0  0  0  0
    1.1495   -0.3101    1.6328 N   0  0  0  0  0  0  0  0  0  0  0  0
    1.1942    0.6357    1.2852 H   0  0  0  0  0  0  0  0  0  0  0  0
    2.2109   -0.7619    2.5293 C   0  0  0  0  0  0  0  0  0  0  0  0
    2.5902   -1.7298    2.1949 H   0  0  0  0  0  0  0  0  0  0  0  0
    3.0278   -0.0399    2.5402 H   0  0  0  0  0  0  0  0  0  0  0  0
    1.8147   -0.8735    3.5405 H   0  0  0  0  0  0  0  0  0  0  0  0
  5  6  2  0  0  0  0
  5  7  1  0  0  0  0
  2  3  1  0  0  0  0
  2  4  1  0  0  0  0
  2  5  1  0  0  0  0
  1  2  1  0  0  0  0
 25 26  2  0  0  0  0
 25 27  1  0  0  0  0
 23 24  1  0  0  0  0
 21 22  1  0  0  0  0
 21 23  2  0  0  0  0
 19 20  1  0  0  0  0
 19 21  1  0  0  0  0
 17 18  1  0  0  0  0
 17 19  2  0  0  0  0
 15 16  1  0  0  0  0
 15 17  1  0  0  0  0
 14 15  2  0  0  0  0
 14 23  1  0  0  0  0
 11 12  1  0  0  0  0
 11 13  1  0  0  0  0
 11 14  1  0  0  0  0
  9 10  1  0  0  0  0
  9 11  1  0  0  0  0
  9 25  1  0  0  0  0
  7  8  1  0  0  0  0
  7  9  1  0  0  0  0
 29 30  1  0  0  0  0
 29 31  1  0  0  0  0
 29 32  1  0  0  0  0
 27 28  1  0  0  0  0
 27 29  1  0  0  0  0
M  END
$$$$
default_name
  -OEChem-01062215323D

 32 32  0     1  0  0  0  0  0999 V2000
   -3.8405   -3.7518    1.6252 H   0  0  0  0  0  0  0  0  0  0  0  0
   -3.7965   -2.8768    0.9782 C   0  0  0  0  0  0  0  0  0  0  0  0
   -4.5465   -2.1527    1.2902 H   0  0  0  0  0  0  0  0  0  0  0  0
   -3.9745   -3.1748   -0.0538 H   0  0  0  0  0  0  0  0  0  0  0  0
   -2.4245   -2.2537    1.0882 C   0  0  0  0  0  0  0  0  0  0  0  0
   -1.5805   -2.7478    1.8242 O   0  0  0  0  0  0  0  0  0  0  0  0
   -2.2045   -1.1637    0.3562 N   0  0  0  0  0  0  0  0  0  0  0  0
   -2.9595   -0.7907   -0.2008 H   0  0  0  0  0  0  0  0  0  0  0  0
   -0.9485   -0.4087    0.3482 C   0  0  1  0  0  0  0  0  0  0  0  0
   -0.5313   -0.4374   -0.6597 H   0  0  0  0  0  0  0  0  0  0  0  0
   -1.2350    1.0582    0.7120 C   0  0  0  0  0  0  0  0  0  0  0  0
   -1.7827    1.0899    1.6549 H   0  0  0  0  0  0  0  0  0  0  0  0
   -0.2871    1.5760    0.8662 H   0  0  0  0  0  0  0  0  0  0  0  0
   -2.0486    1.8028   -0.3294 C   0  0  0  0  0  0  0  0  0  0  0  0
   -1.4268    2.3303   -1.4770 C   0  0  0  0  0  0  0  0  0  0  0  0
   -0.3593    2.2271   -1.6118 H   0  0  0  0  0  0  0  0  0  0  0  0
   -2.1945    2.9837   -2.4586 C   0  0  0  0  0  0  0  0  0  0  0  0
   -1.7147    3.3902   -3.3378 H   0  0  0  0  0  0  0  0  0  0  0  0
   -3.5846    3.1092   -2.2956 C   0  0  0  0  0  0  0  0  0  0  0  0
   -4.1741    3.6133   -3.0486 H   0  0  0  0  0  0  0  0  0  0  0  0
   -4.2089    2.5846   -1.1493 C   0  0  0  0  0  0  0  0  0  0  0  0
   -5.2767    2.6858   -1.0213 H   0  0  0  0  0  0  0  0  0  0  0  0
   -3.4409    1.9345   -0.1670 C   0  0  0  0  0  0  0  0  0  0  0  0
   -3.9220    1.5343    0.7160 H   0  0  0  0  0  0  0  0  0  0  0  0
    0.0811   -1.0451    1.2992 C   0  0  0  0  0  0  0  0  0  0  0  0
    0.0620   -2.2586    1.5104 O   0  0  0  0  0  0  0  0  0  0  0  0
    0.9739   -0.2308    1.8760 N   0  0  0  0  0  0  0  0  0  0  0  0
    0.8900    0.7582    1.6967 H   0  0  0  0  0  0  0  0  0  0  0  0
    2.0085   -0.6731    2.8078 C   0  0  0  0  0  0  0  0  0  0  0  0
    2.5757   -1.4957    2.3673 H   0  0  0  0  0  0  0  0  0  0  0  0
    2.6868    0.1495    3.0362 H   0  0  0  0  0  0  0  0  0  0  0  0
    1.5448   -1.0250    3.7314 H   0  0  0  0  0  0  0  0  0  0  0  0
  5  6  2  0  0  0  0
  5  7  1  0  0  0  0
  2  3  1  0  0  0  0
  2  4  1  0  0  0  0
  2  5  1  0  0  0  0
  1  2  1  0  0  0  0
 25 26  2  0  0  0  0
 25 27  1  0  0  0  0
 23 24  1  0  0  0  0
 21 22  1  0  0  0  0
 21 23  2  0  0  0  0
 19 20  1  0  0  0  0
 19 21  1  0  0  0  0
 17 18  1  0  0  0  0
 17 19  2  0  0  0  0
 15 16  1  0  0  0  0
 15 17  1  0  0  0  0
 14 15  2  0  0  0  0
 14 23  1  0  0  0  0
 11 12  1  0  0  0  0
 11 13  1  0  0  0  0
 11 14  1  0  0  0  0
  9 10  1  0  0  0  0
  9 11  1  0  0  0  0
  9 25  1  0  0  0  0
  7  8  1  0  0  0  0
  7  9  1  0  0  0  0
 29 30  1  0  0  0  0
 29 31  1  0  0  0  0
 29 32  1  0  0  0  0
 27 28  1  0  0  0  0
 27 29  1  0  0  0  0
M  END
$$$$
default_name
  -OEChem-01062215323D

 32 32  0     1  0  0  0  0  0999 V2000
   -3.8405   -3.7518    1.6252 H   0  0  0  0  0  0  0  0  0  0  0  0
   -3.7965   -2.8768    0.9782 C   0  0  0  0  0  0  0  0  0  0  0  0
   -4.5465   -2.1527    1.2902 H   0  0  0  0  0  0  0  0  0  0  0  0
   -3.9745   -3.1748   -0.0538 H   0  0  0  0  0  0  0  0  0  0  0  0
   -2.4245   -2.2537    1.0882 C   0  0  0  0  0  0  0  0  0  0  0  0
   -1.5805   -2.7478    1.8242 O   0  0  0  0  0  0  0  0  0  0  0  0
   -2.2045   -1.1637    0.3562 N   0  0  0  0  0  0  0  0  0  0  0  0
   -2.9595   -0.7907   -0.2008 H   0  0  0  0  0  0  0  0  0  0  0  0
   -0.9485   -0.4087    0.3482 C   0  0  1  0  0  0  0  0  0  0  0  0
   -0.5313   -0.4374   -0.6597 H   0  0  0  0  0  0  0  0  0  0  0  0
   -1.2350    1.0582    0.7120 C   0  0  0  0  0  0  0  0  0  0  0  0
   -1.7827    1.0899    1.6549 H   0  0  0  0  0  0  0  0  0  0  0  0
   -0.2871    1.5760    0.8662 H   0  0  0  0  0  0  0  0  0  0  0  0
   -2.0486    1.8028   -0.3294 C   0  0  0  0  0  0  0  0  0  0  0  0
   -1.4268    2.3303   -1.4770 C   0  0  0  0  0  0  0  0  0  0  0  0
   -0.3593    2.2271   -1.6118 H   0  0  0  0  0  0  0  0  0  0  0  0
   -2.1945    2.9837   -2.4586 C   0  0  0  0  0  0  0  0  0  0  0  0
   -1.7147    3.3902   -3.3378 H   0  0  0  0  0  0  0  0  0  0  0  0
   -3.5846    3.1092   -2.2956 C   0  0  0  0  0  0  0  0  0  0  0  0
   -4.1741    3.6133   -3.0486 H   0  0  0  0  0  0  0  0  0  0  0  0
   -4.2089    2.5846   -1.1493 C   0  0  0  0  0  0  0  0  0  0  0  0
   -5.2767    2.6858   -1.0213 H   0  0  0  0  0  0  0  0  0  0  0  0
   -3.4409    1.9345   -0.1670 C   0  0  0  0  0  0  0  0  0  0  0  0
   -3.9220    1.5343    0.7160 H   0  0  0  0  0  0  0  0  0  0  0  0
    0.0811   -1.0451    1.2992 C   0  0  0  0  0  0  0  0  0  0  0  0
    0.2482   -2.2656    1.3041 O   0  0  0  0  0  0  0  0  0  0  0  0
    0.7656   -0.2243    2.1058 N   0  0  0  0  0  0  0  0  0  0  0  0
    0.5325    0.7567    2.0827 H   0  0  0  0  0  0  0  0  0  0  0  0
    1.7690   -0.6678    3.0706 C   0  0  0  0  0  0  0  0  0  0  0  0
    2.5057   -1.3018    2.5727 H   0  0  0  0  0  0  0  0  0  0  0  0
    2.2740    0.1920    3.5115 H   0  0  0  0  0  0  0  0  0  0  0  0
    1.2878   -1.2475    3.8607 H   0  0  0  0  0  0  0  0  0  0  0  0
  5  6  2  0  0  0  0
  5  7  1  0  0  0  0
  2  3  1  0  0  0  0
  2  4  1  0  0  0  0
  2  5  1  0  0  0  0
  1  2  1  0  0  0  0
 25 26  2  0  0  0  0
 25 27  1  0  0  0  0
 23 24  1  0  0  0  0
 21 22  1  0  0  0  0
 21 23  2  0  0  0  0
 19 20  1  0  0  0  0
 19 21  1  0  0  0  0
 17 18  1  0  0  0  0
 17 19  2  0  0  0  0
 15 16  1  0  0  0  0
 15 17  1  0  0  0  0
 14 15  2  0  0  0  0
 14 23  1  0  0  0  0
 11 12  1  0  0  0  0
 11 13  1  0  0  0  0
 11 14  1  0  0  0  0
  9 10  1  0  0  0  0
  9 11  1  0  0  0  0
  9 25  1  0  0  0  0
  7  8  1  0  0  0  0
  7  9  1  0  0  0  0
 29 30  1  0  0  0  0
 29 31  1  0  0  0  0
 29 32  1  0  0  0  0
 27 28  1  0  0  0  0
 27 29  1  0  0  0  0
M  END
$$$$
default_name
  -OEChem-01062215323D

 32 32  0     1  0  0  0  0  0999 V2000
   -3.8405   -3.7518    1.6252 H   0  0  0  0  0  0  0  0  0  0  0  0
   -3.7965   -2.8768    0.9782 C   0  0  0  0  0  0  0  0  0  0  0  0
   -4.5465   -2.1527    1.2902 H   0  0  0  0  0  0  0  0  0  0  0  0
   -3.9745   -3.1748   -0.0538 H   0  0  0  0  0  0  0  0  0  0  0  0
   -2.4245   -2.2537    1.0882 C   0  0  0  0  0  0  0  0  0  0  0  0
   -1.5805   -2.7478    1.8242 O   0  0  0  0  0  0  0  0  0  0  0  0
   -2.2045   -1.1637    0.3562 N   0  0  0  0  0  0  0  0  0  0  0  0
   -2.9595   -0.7907   -0.2008 H   0  0  0  0  0  0  0  0  0  0  0  0
   -0.9485   -0.4087    0.3482 C   0  0  1  0  0  0  0  0  0  0  0  0
   -0.5313   -0.4374   -0.6597 H   0  0  0  0  0  0  0  0  0  0  0  0
   -1.2350    1.0582    0.7120 C   0  0  0  0  0  0  0  0  0  0  0  0
   -1.7827    1.0899    1.6549 H   0  0  0  0  0  0  0  0  0  0  0  0
   -0.2871    1.5760    0.8662 H   0  0  0  0  0  0  0  0  0  0  0  0
   -2.0486    1.8028   -0.3294 C   0  0  0  0  0  0  0  0  0  0  0  0
   -1.4268    2.3303   -1.4770 C   0  0  0  0  0  0  0  0  0  0  0  0
   -0.3593    2.2271   -1.6118 H   0  0  0  0  0  0  0  0  0  0  0  0
   -2.1945    2.9837   -2.4586 C   0  0  0  0  0  0  0  0  0  0  0  0
   -1.7147    3.3902   -3.3378 H   0  0  0  0  0  0  0  0  0  0  0  0
   -3.5846    3.1092   -2.2956 C   0  0  0  0  0  0  0  0  0  0  0  0
   -4.1741    3.6133   -3.0486 H   0  0  0  0  0  0  0  0  0  0  0  0
   -4.2089    2.5846   -1.1493 C   0  0  0  0  0  0  0  0  0  0  0  0
   -5.2767    2.6858   -1.0213 H   0  0  0  0  0  0  0  0  0  0  0  0
   -3.4409    1.9345   -0.1670 C   0  0  0  0  0  0  0  0  0  0  0  0
   -3.9220    1.5343    0.7160 H   0  0  0  0  0  0  0  0  0  0  0  0
    0.0811   -1.0451    1.2992 C   0  0  0  0  0  0  0  0  0  0  0  0
    0.4512   -2.2069    1.1236 O   0  0  0  0  0  0  0  0  0  0  0  0
    0.5388   -0.2911    2.3067 N   0  0  0  0  0  0  0  0  0  0  0  0
    0.1460    0.6313    2.4171 H   0  0  0  0  0  0  0  0  0  0  0  0
    1.5087   -0.7466    3.2997 C   0  0  0  0  0  0  0  0  0  0  0  0
    2.3852   -1.1612    2.7973 H   0  0  0  0  0  0  0  0  0  0  0  0
    1.8177    0.0849    3.9338 H   0  0  0  0  0  0  0  0  0  0  0  0
    1.0613   -1.5259    3.9196 H   0  0  0  0  0  0  0  0  0  0  0  0
  5  6  2  0  0  0  0
  5  7  1  0  0  0  0
  2  3  1  0  0  0  0
  2  4  1  0  0  0  0
  2  5  1  0  0  0  0
  1  2  1  0  0  0  0
 25 26  2  0  0  0  0
 25 27  1  0  0  0  0
 23 24  1  0  0  0  0
 21 22  1  0  0  0  0
 21 23  2  0  0  0  0
 19 20  1  0  0  0  0
 19 21  1  0  0  0  0
 17 18  1  0  0  0  0
 17 19  2  0  0  0  0
 15 16  1  0  0  0  0
 15 17  1  0  0  0  0
 14 15  2  0  0  0  0
 14 23  1  0  0  0  0
 11 12  1  0  0  0  0
 11 13  1  0  0  0  0
 11 14  1  0  0  0  0
  9 10  1  0  0  0  0
  9 11  1  0  0  0  0
  9 25  1  0  0  0  0
  7  8  1  0  0  0  0
  7  9  1  0  0  0  0
 29 30  1  0  0  0  0
 29 31  1  0  0  0  0
 29 32  1  0  0  0  0
 27 28  1  0  0  0  0
 27 29  1  0  0  0  0
M  END
$$$$
default_name
  -OEChem-01062215323D

 32 32  0     1  0  0  0  0  0999 V2000
   -3.8405   -3.7518    1.6252 H   0  0  0  0  0  0  0  0  0  0  0  0
   -3.7965   -2.8768    0.9782 C   0  0  0  0  0  0  0  0  0  0  0  0
   -4.5465   -2.1527    1.2902 H   0  0  0  0  0  0  0  0  0  0  0  0
   -3.9745   -3.1748   -0.0538 H   0  0  0  0  0  0  0  0  0  0  0  0
   -2.4245   -2.2537    1.0882 C   0  0  0  0  0  0  0  0  0  0  0  0
   -1.5805   -2.7478    1.8242 O   0  0  0  0  0  0  0  0  0  0  0  0
   -2.2045   -1.1637    0.3562 N   0  0  0  0  0  0  0  0  0  0  0  0
   -2.9595   -0.7907   -0.2008 H   0  0  0  0  0  0  0  0  0  0  0  0
   -0.9485   -0.4087    0.3482 C   0  0  1  0  0  0  0  0  0  0  0  0
   -0.5313   -0.4374   -0.6597 H   0  0  0  0  0  0  0  0  0  0  0  0
   -1.2350    1.0582    0.7120 C   0  0  0  0  0  0  0  0  0  0  0  0
   -1.7827    1.0899    1.6549 H   0  0  0  0  0  0  0  0  0  0  0  0
   -0.2871    1.5760    0.8662 H   0  0  0  0  0  0  0  0  0  0  0  0
   -2.0486    1.8028   -0.3294 C   0  0  0  0  0  0  0  0  0  0  0  0
   -1.4268    2.3303   -1.4770 C   0  0  0  0  0  0  0  0  0  0  0  0
   -0.3593    2.2271   -1.6118 H   0  0  0  0  0  0  0  0  0  0  0  0
   -2.1945    2.9837   -2.4586 C   0  0  0  0  0  0  0  0  0  0  0  0
   -1.7147    3.3902   -3.3378 H   0  0  0  0  0  0  0  0  0  0  0  0
   -3.5846    3.1092   -2.2956 C   0  0  0  0  0  0  0  0  0  0  0  0
   -4.1741    3.6133   -3.0486 H   0  0  0  0  0  0  0  0  0  0  0  0
   -4.2089    2.5846   -1.1493 C   0  0  0  0  0  0  0  0  0  0  0  0
   -5.2767    2.6858   -1.0213 H   0  0  0  0  0  0  0  0  0  0  0  0
   -3.4409    1.9345   -0.1670 C   0  0  0  0  0  0  0  0  0  0  0  0
   -3.9220    1.5343    0.7160 H   0  0  0  0  0  0  0  0  0  0  0  0
    0.0811   -1.0451    1.2992 C   0  0  0  0  0  0  0  0  0  0  0  0
    0.6573   -2.0864    0.9811 O   0  0  0  0  0  0  0  0  0  0  0  0
    0.3089   -0.4267    2.4648 N   0  0  0  0  0  0  0  0  0  0  0  0
   -0.2429    0.3905    2.6771 H   0  0  0  0  0  0  0  0  0  0  0  0
    1.2454   -0.9039    3.4795 C   0  0  0  0  0  0  0  0  0  0  0  0
    2.2223   -1.0836    3.0257 H   0  0  0  0  0  0  0  0  0  0  0  0
    1.3488   -0.1647    4.2744 H   0  0  0  0  0  0  0  0  0  0  0  0
    0.8807   -1.8413    3.9040 H   0  0  0  0  0  0  0  0  0  0  0  0
  5  6  2  0  0  0  0
  5  7  1  0  0  0  0
  2  3  1  0  0  0  0
  2  4  1  0  0  0  0
  2  5  1  0  0  0  0
  1  2  1  0  0  0  0
 25 26  2  0  0  0  0
 25 27  1  0  0  0  0
 23 24  1  0  0  0  0
 21 22  1  0  0  0  0
 21 23  2  0  0  0  0
 19 20  1  0  0  0  0
 19 21  1  0  0  0  0
 17 18  1  0  0  0  0
 17 19  2  0  0  0  0
 15 16  1  0  0  0  0
 15 17  1  0  0  0  0
 14 15  2  0  0  0  0
 14 23  1  0  0  0  0
 11 12  1  0  0  0  0
 11 13  1  0  0  0  0
 11 14  1  0  0  0  0
  9 10  1  0  0  0  0
  9 11  1  0  0  0  0
  9 25  1  0  0  0  0
  7  8  1  0  0  0  0
  7  9  1  0  0  0  0
 29 30  1  0  0  0  0
 29 31  1  0  0  0  0
 29 32  1  0  0  0  0
 27 28  1  0  0  0  0
 27 29  1  0  0  0  0
M  END
$$$$
default_name
  -OEChem-01062215323D

 32 32  0     1  0  0  0  0  0999 V2000
   -3.8405   -3.7518    1.6252 H   0  0  0  0  0  0  0  0  0  0  0  0
   -3.7965   -2.8768    0.9782 C   0  0  0  0  0  0  0  0  0  0  0  0
   -4.5465   -2.1527    1.2902 H   0  0  0  0  0  0  0  0  0  0  0  0
   -3.9745   -3.1748   -0.0538 H   0  0  0  0  0  0  0  0  0  0  0  0
   -2.4245   -2.2537    1.0882 C   0  0  0  0  0  0  0  0  0  0  0  0
   -1.5805   -2.7478    1.8242 O   0  0  0  0  0  0  0  0  0  0  0  0
   -2.2045   -1.1637    0.3562 N   0  0  0  0  0  0  0  0  0  0  0  0
   -2.9595   -0.7907   -0.2008 H   0  0  0  0  0  0  0  0  0  0  0  0
   -0.9485   -0.4087    0.3482 C   0  0  1  0  0  0  0  0  0  0  0  0
   -0.5313   -0.4374   -0.6597 H   0  0  0  0  0  0  0  0  0  0  0  0
   -1.2350    1.0582    0.7120 C   0  0  0  0  0  0  0  0  0  0  0  0
   -1.7827    1.0899    1.6549 H   0  0  0  0  0  0  0  0  0  0  0  0
   -0.2871    1.5760    0.8662 H   0  0  0  0  0  0  0  0  0  0  0  0
   -2.0486    1.8028   -0.3294 C   0  0  0  0  0  0  0  0  0  0  0  0
   -1.4268    2.3303   -1.4770 C   0  0  0  0  0  0  0  0  0  0  0  0
   -0.3593    2.2271   -1.6118 H   0  0  0  0  0  0  0  0  0  0  0  0
   -2.1945    2.9837   -2.4586 C   0  0  0  0  0  0  0  0  0  0  0  0
   -1.7147    3.3902   -3.3378 H   0  0  0  0  0  0  0  0  0  0  0  0
   -3.5846    3.1092   -2.2956 C   0  0  0  0  0  0  0  0  0  0  0  0
   -4.1741    3.6133   -3.0486 H   0  0  0  0  0  0  0  0  0  0  0  0
   -4.2089    2.5846   -1.1493 C   0  0  0  0  0  0  0  0  0  0  0  0
   -5.2767    2.6858   -1.0213 H   0  0  0  0  0  0  0  0  0  0  0  0
   -3.4409    1.9345   -0.1670 C   0  0  0  0  0  0  0  0  0  0  0  0
   -3.9220    1.5343    0.7160 H   0  0  0  0  0  0  0  0  0  0  0  0
    0.0811   -1.0451    1.2992 C   0  0  0  0  0  0  0  0  0  0  0  0
    0.8523   -1.9125    0.8864 O   0  0  0  0  0  0  0  0  0  0  0  0
    0.0916   -0.6218    2.5695 N   0  0  0  0  0  0  0  0  0  0  0  0
   -0.6079    0.0506    2.8448 H   0  0  0  0  0  0  0  0  0  0  0  0
    0.9969   -1.1291    3.5978 C   0  0  0  0  0  0  0  0  0  0  0  0
    2.0280   -1.0742    3.2422 H   0  0  0  0  0  0  0  0  0  0  0  0
    0.8994   -0.5398    4.5099 H   0  0  0  0  0  0  0  0  0  0  0  0
    0.7584   -2.1720    3.8151 H   0  0  0  0  0  0  0  0  0  0  0  0
  5  6  2  0  0  0  0
  5  7  1  0  0  0  0
  2  3  1  0  0  0  0
  2  4  1  0  0  0  0
  2  5  1  0  0  0  0
  1  2  1  0  0  0  0
 25 26  2  0  0  0  0
 25 27  1  0  0  0  0
 23 24  1  0  0  0  0
 21 22  1  0  0  0  0
 21 23  2  0  0  0  0
 19 20  1  0  0  0  0
 19 21  1  0  0  0  0
 17 18  1  0  0  0  0
 17 19  2  0  0  0  0
 15 16  1  0  0  0  0
 15 17  1  0  0  0  0
 14 15  2  0  0  0  0
 14 23  1  0  0  0  0
 11 12  1  0  0  0  0
 11 13  1  0  0  0  0
 11 14  1  0  0  0  0
  9 10  1  0  0  0  0
  9 11  1  0  0  0  0
  9 25  1  0  0  0  0
  7  8  1  0  0  0  0
  7  9  1  0  0  0  0
 29 30  1  0  0  0  0
 29 31  1  0  0  0  0
 29 32  1  0  0  0  0
 27 28  1  0  0  0  0
 27 29  1  0  0  0  0
M  END
$$$$
default_name
  -OEChem-01062215323D

 32 32  0     1  0  0  0  0  0999 V2000
   -3.8405   -3.7518    1.6252 H   0  0  0  0  0  0  0  0  0  0  0  0
   -3.7965   -2.8768    0.9782 C   0  0  0  0  0  0  0  0  0  0  0  0
   -4.5465   -2.1527    1.2902 H   0  0  0  0  0  0  0  0  0  0  0  0
   -3.9745   -3.1748   -0.0538 H   0  0  0  0  0  0  0  0  0  0  0  0
   -2.4245   -2.2537    1.0882 C   0  0  0  0  0  0  0  0  0  0  0  0
   -1.5805   -2.7478    1.8242 O   0  0  0  0  0  0  0  0  0  0  0  0
   -2.2045   -1.1637    0.3562 N   0  0  0  0  0  0  0  0  0  0  0  0
   -2.9595   -0.7907   -0.2008 H   0  0  0  0  0  0  0  0  0  0  0  0
   -0.9485   -0.4087    0.3482 C   0  0  1  0  0  0  0  0  0  0  0  0
   -0.5313   -0.4374   -0.6597 H   0  0  0  0  0  0  0  0  0  0  0  0
   -1.2350    1.0582    0.7120 C   0  0  0  0  0  0  0  0  0  0  0  0
   -1.7827    1.0899    1.6549 H   0  0  0  0  0  0  0  0  0  0  0  0
   -0.2871    1.5760    0.8662 H   0  0  0  0  0  0  0  0  0  0  0  0
   -2.0486    1.8028   -0.3294 C   0  0  0  0  0  0  0  0  0  0  0  0
   -1.4268    2.3303   -1.4770 C   0  0  0  0  0  0  0  0  0  0  0  0
   -0.3593    2.2271   -1.6118 H   0  0  0  0  0  0  0  0  0  0  0  0
   -2.1945    2.9837   -2.4586 C   0  0  0  0  0  0  0  0  0  0  0  0
   -1.7147    3.3902   -3.3378 H   0  0  0  0  0  0  0  0  0  0  0  0
   -3.5846    3.1092   -2.2956 C   0  0  0  0  0  0  0  0  0  0  0  0
   -4.1741    3.6133   -3.0486 H   0  0  0  0  0  0  0  0  0  0  0  0
   -4.2089    2.5846   -1.1493 C   0  0  0  0  0  0  0  0  0  0  0  0
   -5.2767    2.6858   -1.0213 H   0  0  0  0  0  0  0  0  0  0  0  0
   -3.4409    1.9345   -0.1670 C   0  0  0  0  0  0  0  0  0  0  0  0
   -3.9220    1.5343    0.7160 H   0  0  0  0  0  0  0  0  0  0  0  0
    0.0811   -1.0451    1.2992 C   0  0  0  0  0  0  0  0  0  0  0  0
    1.0230   -1.6969    0.8459 O   0  0  0  0  0  0  0  0  0  0  0  0
   -0.0984   -0.8632    2.6136 N   0  0  0  0  0  0  0  0  0  0  0  0
   -0.9241   -0.3650    2.9090 H   0  0  0  0  0  0  0  0  0  0  0  0
    0.7803   -1.4068    3.6464 C   0  0  0  0  0  0  0  0  0  0  0  0
    1.8157   -1.1337    3.4323 H   0  0  0  0  0  0  0  0  0  0  0  0
    0.5001   -1.0147    4.6245 H   0  0  0  0  0  0  0  0  0  0  0  0
    0.7027   -2.4957    3.6588 H   0  0  0  0  0  0  0  0  0  0  0  0
  5  6  2  0  0  0  0
  5  7  1  0  0  0  0
  2  3  1  0  0  0  0
  2  4  1  0  0  0  0
  2  5  1  0  0  0  0
  1  2  1  0  0  0  0
 25 26  2  0  0  0  0
 25 27  1  0  0  0  0
 23 24  1  0  0  0  0
 21 22  1  0  0  0  0
 21 23  2  0  0  0  0
 19 20  1  0  0  0  0
 19 21  1  0  0  0  0
 17 18  1  0  0  0  0
 17 19  2  0  0  0  0
 15 16  1  0  0  0  0
 15 17  1  0  0  0  0
 14 15  2  0  0  0  0
 14 23  1  0  0  0  0
 11 12  1  0  0  0  0
 11 13  1  0  0  0  0
 11 14  1  0  0  0  0
  9 10  1  0  0  0  0
  9 11  1  0  0  0  0
  9 25  1  0  0  0  0
  7  8  1  0  0  0  0
  7  9  1  0  0  0  0
 29 30  1  0  0  0  0
 29 31  1  0  0  0  0
 29 32  1  0  0  0  0
 27 28  1  0  0  0  0
 27 29  1  0  0  0  0
M  END
$$$$
default_name
  -OEChem-01062215323D

 32 32  0     1  0  0  0  0  0999 V2000
   -3.8405   -3.7518    1.6252 H   0  0  0  0  0  0  0  0  0  0  0  0
   -3.7965   -2.8768    0.9782 C   0  0  0  0  0  0  0  0  0  0  0  0
   -4.5465   -2.1527    1.2902 H   0  0  0  0  0  0  0  0  0  0  0  0
   -3.9745   -3.1748   -0.0538 H   0  0  0  0  0  0  0  0  0  0  0  0
   -2.4245   -2.2537    1.0882 C   0  0  0  0  0  0  0  0  0  0  0  0
   -1.5805   -2.7478    1.8242 O   0  0  0  0  0  0  0  0  0  0  0  0
   -2.2045   -1.1637    0.3562 N   0  0  0  0  0  0  0  0  0  0  0  0
   -2.9595   -0.7907   -0.2008 H   0  0  0  0  0  0  0  0  0  0  0  0
   -0.9485   -0.4087    0.3482 C   0  0  1  0  0  0  0  0  0  0  0  0
   -0.5313   -0.4374   -0.6597 H   0  0  0  0  0  0  0  0  0  0  0  0
   -1.2350    1.0582    0.7120 C   0  0  0  0  0  0  0  0  0  0  0  0
   -1.7827    1.0899    1.6549 H   0  0  0  0  0  0  0  0  0  0  0  0
   -0.2871    1.5760    0.8662 H   0  0  0  0  0  0  0  0  0  0  0  0
   -2.0486    1.8028   -0.3294 C   0  0  0  0  0  0  0  0  0  0  0  0
   -1.4268    2.3303   -1.4770 C   0  0  0  0  0  0  0  0  0  0  0  0
   -0.3593    2.2271   -1.6118 H   0  0  0  0  0  0  0  0  0  0  0  0
   -2.1945    2.9837   -2.4586 C   0  0  0  0  0  0  0  0  0  0  0  0
   -1.7147    3.3902   -3.3378 H   0  0  0  0  0  0  0  0  0  0  0  0
   -3.5846    3.1092   -2.2956 C   0  0  0  0  0  0  0  0  0  0  0  0
   -4.1741    3.6133   -3.0486 H   0  0  0  0  0  0  0  0  0  0  0  0
   -4.2089    2.5846   -1.1493 C   0  0  0  0  0  0  0  0  0  0  0  0
   -5.2767    2.6858   -1.0213 H   0  0  0  0  0  0  0  0  0  0  0  0
   -3.4409    1.9345   -0.1670 C   0  0  0  0  0  0  0  0  0  0  0  0
   -3.9220    1.5343    0.7160 H   0  0  0  0  0  0  0  0  0  0  0  0
    0.0811   -1.0451    1.2992 C   0  0  0  0  0  0  0  0  0  0  0  0
    1.1577   -1.4543    0.8623 O   0  0  0  0  0  0  0  0  0  0  0  0
   -0.2479   -1.1343    2.5941 N   0  0  0  0  0  0  0  0  0  0  0  0
   -1.1700   -0.8282    2.8652 H   0  0  0  0  0  0  0  0  0  0  0  0
    0.6103   -1.7181    3.6222 C   0  0  0  0  0  0  0  0  0  0  0  0
    1.5998   -1.2580    3.5828 H   0  0  0  0  0  0  0  0  0  0  0  0
    0.1780   -1.5571    4.6102 H   0  0  0  0  0  0  0  0  0  0  0  0
    0.7173   -2.7902    3.4459 H   0  0  0  0  0  0  0  0  0  0  0  0
  5  6  2  0  0  0  0
  5  7  1  0  0  0  0
  2  3  1  0  0  0  0
  2  4  1  0  0  0  0
  2  5  1  0  0  0  0
  1  2  1  0  0  0  0
 25 26  2  0  0  0  0
 25 27  1  0  0  0  0
 23 24  1  0  0  0  0
 21 22  1  0  0  0  0
 21 23  2  0  0  0  0
 19 20  1  0  0  0  0
 19 21  1  0  0  0  0
 17 18  1  0  0  0  0
 17 19  2  0  0  0  0
 15 16  1  0  0  0  0
 15 17  1  0  0  0  0
 14 15  2  0  0  0  0
 14 23  1  0  0  0  0
 11 12  1  0  0  0  0
 11 13  1  0  0  0  0
 11 14  1  0  0  0  0
  9 10  1  0  0  0  0
  9 11  1  0  0  0  0
  9 25  1  0  0  0  0
  7  8  1  0  0  0  0
  7  9  1  0  0  0  0
 29 30  1  0  0  0  0
 29 31  1  0  0  0  0
 29 32  1  0  0  0  0
 27 28  1  0  0  0  0
 27 29  1  0  0  0  0
M  END
$$$$
default_name
  -OEChem-01062215323D

 32 32  0     1  0  0  0  0  0999 V2000
   -3.8405   -3.7518    1.6252 H   0  0  0  0  0  0  0  0  0  0  0  0
   -3.7965   -2.8768    0.9782 C   0  0  0  0  0  0  0  0  0  0  0  0
   -4.5465   -2.1527    1.2902 H   0  0  0  0  0  0  0  0  0  0  0  0
   -3.9745   -3.1748   -0.0538 H   0  0  0  0  0  0  0  0  0  0  0  0
   -2.4245   -2.2537    1.0882 C   0  0  0  0  0  0  0  0  0  0  0  0
   -1.5805   -2.7478    1.8242 O   0  0  0  0  0  0  0  0  0  0  0  0
   -2.2045   -1.1637    0.3562 N   0  0  0  0  0  0  0  0  0  0  0  0
   -2.9595   -0.7907   -0.2008 H   0  0  0  0  0  0  0  0  0  0  0  0
   -0.9485   -0.4087    0.3482 C   0  0  1  0  0  0  0  0  0  0  0  0
   -0.5313   -0.4374   -0.6597 H   0  0  0  0  0  0  0  0  0  0  0  0
   -1.2350    1.0582    0.7120 C   0  0  0  0  0  0  0  0  0  0  0  0
   -1.7827    1.0899    1.6549 H   0  0  0  0  0  0  0  0  0  0  0  0
   -0.2871    1.5760    0.8662 H   0  0  0  0  0  0  0  0  0  0  0  0
   -2.0486    1.8028   -0.3294 C   0  0  0  0  0  0  0  0  0  0  0  0
   -1.4268    2.3303   -1.4770 C   0  0  0  0  0  0  0  0  0  0  0  0
   -0.3593    2.2271   -1.6118 H   0  0  0  0  0  0  0  0  0  0  0  0
   -2.1945    2.9837   -2.4586 C   0  0  0  0  0  0  0  0  0  0  0  0
   -1.7147    3.3902   -3.3378 H   0  0  0  0  0  0  0  0  0  0  0  0
   -3.5846    3.1092   -2.2956 C   0  0  0  0  0  0  0  0  0  0  0  0
   -4.1741    3.6133   -3.0486 H   0  0  0  0  0  0  0  0  0  0  0  0
   -4.2089    2.5846   -1.1493 C   0  0  0  0  0  0  0  0  0  0  0  0
   -5.2767    2.6858   -1.0213 H   0  0  0  0  0  0  0  0  0  0  0  0
   -3.4409    1.9345   -0.1670 C   0  0  0  0  0  0  0  0  0  0  0  0
   -3.9220    1.5343    0.7160 H   0  0  0  0  0  0  0  0  0  0  0  0
    0.0811   -1.0451    1.2992 C   0  0  0  0  0  0  0  0  0  0  0  0
    1.2473   -1.2013    0.9346 O   0  0  0  0  0  0  0  0  0  0  0  0
   -0.3470   -1.4168    2.5124 N   0  0  0  0  0  0  0  0  0  0  0  0
   -1.3287   -1.3073    2.7164 H   0  0  0  0  0  0  0  0  0  0  0  0
    0.4984   -2.0419    3.5267 C   0  0  0  0  0  0  0  0  0  0  0  0
    1.3950   -1.4386    3.6836 H   0  0  0  0  0  0  0  0  0  0  0  0
   -0.0448   -2.1300    4.4680 H   0  0  0  0  0  0  0  0  0  0  0  0
    0.8014   -3.0355    3.1908 H   0  0  0  0  0  0  0  0  0  0  0  0
  5  6  2  0  0  0  0
  5  7  1  0  0  0  0
  2  3  1  0  0  0  0
  2  4  1  0  0  0  0
  2  5  1  0  0  0  0
  1  2  1  0  0  0  0
 25 26  2  0  0  0  0
 25 27  1  0  0  0  0
 23 24  1  0  0  0  0
 21 22  1  0  0  0  0
 21 23  2  0  0  0  0
 19 20  1  0  0  0  0
 19 21  1  0  0  0  0
 17 18  1  0  0  0  0
 17 19  2  0  0  0  0
 15 16  1  0  0  0  0
 15 17  1  0  0  0  0
 14 15  2  0  0  0  0
 14 23  1  0  0  0  0
 11 12  1  0  0  0  0
 11 13  1  0  0  0  0
 11 14  1  0  0  0  0
  9 10  1  0  0  0  0
  9 11  1  0  0  0  0
  9 25  1  0  0  0  0
  7  8  1  0  0  0  0
  7  9  1  0  0  0  0
 29 30  1  0  0  0  0
 29 31  1  0  0  0  0
 29 32  1  0  0  0  0
 27 28  1  0  0  0  0
 27 29  1  0  0  0  0
M  END
$$$$
default_name
  -OEChem-01062215323D

 32 32  0     1  0  0  0  0  0999 V2000
   -3.8405   -3.7518    1.6252 H   0  0  0  0  0  0  0  0  0  0  0  0
   -3.7965   -2.8768    0.9782 C   0  0  0  0  0  0  0  0  0  0  0  0
   -4.5465   -2.1527    1.2902 H   0  0  0  0  0  0  0  0  0  0  0  0
   -3.9745   -3.1748   -0.0538 H   0  0  0  0  0  0  0  0  0  0  0  0
   -2.4245   -2.2537    1.0882 C   0  0  0  0  0  0  0  0  0  0  0  0
   -1.5805   -2.7478    1.8242 O   0  0  0  0  0  0  0  0  0  0  0  0
   -2.2045   -1.1637    0.3562 N   0  0  0  0  0  0  0  0  0  0  0  0
   -2.9595   -0.7907   -0.2008 H   0  0  0  0  0  0  0  0  0  0  0  0
   -0.9485   -0.4087    0.3482 C   0  0  1  0  0  0  0  0  0  0  0  0
   -0.5313   -0.4374   -0.6597 H   0  0  0  0  0  0  0  0  0  0  0  0
   -1.2350    1.0582    0.7120 C   0  0  0  0  0  0  0  0  0  0  0  0
   -1.7827    1.0899    1.6549 H   0  0  0  0  0  0  0  0  0  0  0  0
   -0.2871    1.5760    0.8662 H   0  0  0  0  0  0  0  0  0  0  0  0
   -2.0486    1.8028   -0.3294 C   0  0  0  0  0  0  0  0  0  0  0  0
   -1.4268    2.3303   -1.4770 C   0  0  0  0  0  0  0  0  0  0  0  0
   -0.3593    2.2271   -1.6118 H   0  0  0  0  0  0  0  0  0  0  0  0
   -2.1945    2.9837   -2.4586 C   0  0  0  0  0  0  0  0  0  0  0  0
   -1.7147    3.3902   -3.3378 H   0  0  0  0  0  0  0  0  0  0  0  0
   -3.5846    3.1092   -2.2956 C   0  0  0  0  0  0  0  0  0  0  0  0
   -4.1741    3.6133   -3.0486 H   0  0  0  0  0  0  0  0  0  0  0  0
   -4.2089    2.5846   -1.1493 C   0  0  0  0  0  0  0  0  0  0  0  0
   -5.2767    2.6858   -1.0213 H   0  0  0  0  0  0  0  0  0  0  0  0
   -3.4409    1.9345   -0.1670 C   0  0  0  0  0  0  0  0  0  0  0  0
   -3.9220    1.5343    0.7160 H   0  0  0  0  0  0  0  0  0  0  0  0
    0.0811   -1.0451    1.2992 C   0  0  0  0  0  0  0  0  0  0  0  0
    1.2857   -0.9551    1.0579 O   0  0  0  0  0  0  0  0  0  0  0  0
   -0.3887   -1.6912    2.3739 N   0  0  0  0  0  0  0  0  0  0  0  0
   -1.3894   -1.7697    2.4727 H   0  0  0  0  0  0  0  0  0  0  0  0
    0.4523   -2.3559    3.3664 C   0  0  0  0  0  0  0  0  0  0  0  0
    1.2154   -1.6633    3.7278 H   0  0  0  0  0  0  0  0  0  0  0  0
   -0.1532   -2.6944    4.2076 H   0  0  0  0  0  0  0  0  0  0  0  0
    0.9490   -3.2148    2.9109 H   0  0  0  0  0  0  0  0  0  0  0  0
  5  6  2  0  0  0  0
  5  7  1  0  0  0  0
  2  3  1  0  0  0  0
  2  4  1  0  0  0  0
  2  5  1  0  0  0  0
  1  2  1  0  0  0  0
 25 26  2  0  0  0  0
 25 27  1  0  0  0  0
 23 24  1  0  0  0  0
 21 22  1  0  0  0  0
 21 23  2  0  0  0  0
 19 20  1  0  0  0  0
 19 21  1  0  0  0  0
 17 18  1  0  0  0  0
 17 19  2  0  0  0  0
 15 16  1  0  0  0  0
 15 17  1  0  0  0  0
 14 15  2  0  0  0  0
 14 23  1  0  0  0  0
 11 12  1  0  0  0  0
 11 13  1  0  0  0  0
 11 14  1  0  0  0  0
  9 10  1  0  0  0  0
  9 11  1  0  0  0  0
  9 25  1  0  0  0  0
  7  8  1  0  0  0  0
  7  9  1  0  0  0  0
 29 30  1  0  0  0  0
 29 31  1  0  0  0  0
 29 32  1  0  0  0  0
 27 28  1  0  0  0  0
 27 29  1  0  0  0  0
M  END
$$$$
default_name
  -OEChem-01062215323D

 32 32  0     1  0  0  0  0  0999 V2000
   -3.8405   -3.7518    1.6252 H   0  0  0  0  0  0  0  0  0  0  0  0
   -3.7965   -2.8768    0.9782 C   0  0  0  0  0  0  0  0  0  0  0  0
   -4.5465   -2.1527    1.2902 H   0  0  0  0  0  0  0  0  0  0  0  0
   -3.9745   -3.1748   -0.0538 H   0  0  0  0  0  0  0  0  0  0  0  0
   -2.4245   -2.2537    1.0882 C   0  0  0  0  0  0  0  0  0  0  0  0
   -1.5805   -2.7478    1.8242 O   0  0  0  0  0  0  0  0  0  0  0  0
   -2.2045   -1.1637    0.3562 N   0  0  0  0  0  0  0  0  0  0  0  0
   -2.9595   -0.7907   -0.2008 H   0  0  0  0  0  0  0  0  0  0  0  0
   -0.9485   -0.4087    0.3482 C   0  0  1  0  0  0  0  0  0  0  0  0
   -0.5313   -0.4374   -0.6597 H   0  0  0  0  0  0  0  0  0  0  0  0
   -1.2350    1.0582    0.7120 C   0  0  0  0  0  0  0  0  0  0  0  0
   -1.7827    1.0899    1.6549 H   0  0  0  0  0  0  0  0  0  0  0  0
   -0.2871    1.5760    0.8662 H   0  0  0  0  0  0  0  0  0  0  0  0
   -2.0486    1.8028   -0.3294 C   0  0  0  0  0  0  0  0  0  0  0  0
   -1.4268    2.3303   -1.4770 C   0  0  0  0  0  0  0  0  0  0  0  0
   -0.3593    2.2271   -1.6118 H   0  0  0  0  0  0  0  0  0  0  0  0
   -2.1945    2.9837   -2.4586 C   0  0  0  0  0  0  0  0  0  0  0  0
   -1.7147    3.3902   -3.3378 H   0  0  0  0  0  0  0  0  0  0  0  0
   -3.5846    3.1092   -2.2956 C   0  0  0  0  0  0  0  0  0  0  0  0
   -4.1741    3.6133   -3.0486 H   0  0  0  0  0  0  0  0  0  0  0  0
   -4.2089    2.5846   -1.1493 C   0  0  0  0  0  0  0  0  0  0  0  0
   -5.2767    2.6858   -1.0213 H   0  0  0  0  0  0  0  0  0  0  0  0
   -3.4409    1.9345   -0.1670 C   0  0  0  0  0  0  0  0  0  0  0  0
   -3.9220    1.5343    0.7160 H   0  0  0  0  0  0  0  0  0  0  0  0
    0.0811   -1.0451    1.2992 C   0  0  0  0  0  0  0  0  0  0  0  0
    1.2702   -0.7325    1.2236 O   0  0  0  0  0  0  0  0  0  0  0  0
   -0.3703   -1.9391    2.1881 N   0  0  0  0  0  0  0  0  0  0  0  0
   -1.3481   -2.1839    2.1508 H   0  0  0  0  0  0  0  0  0  0  0  0
    0.4752   -2.6389    3.1523 C   0  0  0  0  0  0  0  0  0  0  0  0
    1.0730   -1.9167    3.7123 H   0  0  0  0  0  0  0  0  0  0  0  0
   -0.1397   -3.2119    3.8468 H   0  0  0  0  0  0  0  0  0  0  0  0
    1.1503   -3.3159    2.6254 H   0  0  0  0  0  0  0  0  0  0  0  0
  5  6  2  0  0  0  0
  5  7  1  0  0  0  0
  2  3  1  0  0  0  0
  2  4  1  0  0  0  0
  2  5  1  0  0  0  0
  1  2  1  0  0  0  0
 25 26  2  0  0  0  0
 25 27  1  0  0  0  0
 23 24  1  0  0  0  0
 21 22  1  0  0  0  0
 21 23  2  0  0  0  0
 19 20  1  0  0  0  0
 19 21  1  0  0  0  0
 17 18  1  0  0  0  0
 17 19  2  0  0  0  0
 15 16  1  0  0  0  0
 15 17  1  0  0  0  0
 14 15  2  0  0  0  0
 14 23  1  0  0  0  0
 11 12  1  0  0  0  0
 11 13  1  0  0  0  0
 11 14  1  0  0  0  0
  9 10  1  0  0  0  0
  9 11  1  0  0  0  0
  9 25  1  0  0  0  0
  7  8  1  0  0  0  0
  7  9  1  0  0  0  0
 29 30  1  0  0  0  0
 29 31  1  0  0  0  0
 29 32  1  0  0  0  0
 27 28  1  0  0  0  0
 27 29  1  0  0  0  0
M  END
$$$$
default_name
  -OEChem-01062215323D

 32 32  0     1  0  0  0  0  0999 V2000
   -3.8405   -3.7518    1.6252 H   0  0  0  0  0  0  0  0  0  0  0  0
   -3.7965   -2.8768    0.9782 C   0  0  0  0  0  0  0  0  0  0  0  0
   -4.5465   -2.1527    1.2902 H   0  0  0  0  0  0  0  0  0  0  0  0
   -3.9745   -3.1748   -0.0538 H   0  0  0  0  0  0  0  0  0  0  0  0
   -2.4245   -2.2537    1.0882 C   0  0  0  0  0  0  0  0  0  0  0  0
   -1.5805   -2.7478    1.8242 O   0  0  0  0  0  0  0  0  0  0  0  0
   -2.2045   -1.1637    0.3562 N   0  0  0  0  0  0  0  0  0  0  0  0
   -2.9595   -0.7907   -0.2008 H   0  0  0  0  0  0  0  0  0  0  0  0
   -0.9485   -0.4087    0.3482 C   0  0  1  0  0  0  0  0  0  0  0  0
   -0.5313   -0.4374   -0.6597 H   0  0  0  0  0  0  0  0  0  0  0  0
   -1.2350    1.0582    0.7120 C   0  0  0  0  0  0  0  0  0  0  0  0
   -1.7827    1.0899    1.6549 H   0  0  0  0  0  0  0  0  0  0  0  0
   -0.2871    1.5760    0.8662 H   0  0  0  0  0  0  0  0  0  0  0  0
   -2.0486    1.8028   -0.3294 C   0  0  0  0  0  0  0  0  0  0  0  0
   -1.4268    2.3303   -1.4770 C   0  0  0  0  0  0  0  0  0  0  0  0
   -0.3593    2.2271   -1.6118 H   0  0  0  0  0  0  0  0  0  0  0  0
   -2.1945    2.9837   -2.4586 C   0  0  0  0  0  0  0  0  0  0  0  0
   -1.7147    3.3902   -3.3378 H   0  0  0  0  0  0  0  0  0  0  0  0
   -3.5846    3.1092   -2.2956 C   0  0  0  0  0  0  0  0  0  0  0  0
   -4.1741    3.6133   -3.0486 H   0  0  0  0  0  0  0  0  0  0  0  0
   -4.2089    2.5846   -1.1493 C   0  0  0  0  0  0  0  0  0  0  0  0
   -5.2767    2.6858   -1.0213 H   0  0  0  0  0  0  0  0  0  0  0  0
   -3.4409    1.9345   -0.1670 C   0  0  0  0  0  0  0  0  0  0  0  0
   -3.9220    1.5343    0.7160 H   0  0  0  0  0  0  0  0  0  0  0  0
    0.0811   -1.0451    1.2992 C   0  0  0  0  0  0  0  0  0  0  0  0
    1.2019   -0.5487    1.4206 O   0  0  0  0  0  0  0  0  0  0  0  0
   -0.2931   -2.1434    1.9678 N   0  0  0  0  0  0  0  0  0  0  0  0
   -1.2075   -2.5216    1.7726 H   0  0  0  0  0  0  0  0  0  0  0  0
    0.5654   -2.8715    2.8990 C   0  0  0  0  0  0  0  0  0  0  0  0
    0.9777   -2.1816    3.6383 H   0  0  0  0  0  0  0  0  0  0  0  0
   -0.0054   -3.6471    3.4102 H   0  0  0  0  0  0  0  0  0  0  0  0
    1.3914   -3.3320    2.3536 H   0  0  0  0  0  0  0  0  0  0  0  0
  5  6  2  0  0  0  0
  5  7  1  0  0  0  0
  2  3  1  0  0  0  0
  2  4  1  0  0  0  0
  2  5  1  0  0  0  0
  1  2  1  0  0  0  0
 25 26  2  0  0  0  0
 25 27  1  0  0  0  0
 23 24  1  0  0  0  0
 21 22  1  0  0  0  0
 21 23  2  0  0  0  0
 19 20  1  0  0  0  0
 19 21  1  0  0  0  0
 17 18  1  0  0  0  0
 17 19  2  0  0  0  0
 15 16  1  0  0  0  0
 15 17  1  0  0  0  0
 14 15  2  0  0  0  0
 14 23  1  0  0  0  0
 11 12  1  0  0  0  0
 11 13  1  0  0  0  0
 11 14  1  0  0  0  0
  9 10  1  0  0  0  0
  9 11  1  0  0  0  0
  9 25  1  0  0  0  0
  7  8  1  0  0  0  0
  7  9  1  0  0  0  0
 29 30  1  0  0  0  0
 29 31  1  0  0  0  0
 29 32  1  0  0  0  0
 27 28  1  0  0  0  0
 27 29  1  0  0  0  0
M  END
$$$$
default_name
  -OEChem-01062215323D

 32 32  0     1  0  0  0  0  0999 V2000
   -3.8405   -3.7518    1.6252 H   0  0  0  0  0  0  0  0  0  0  0  0
   -3.7965   -2.8768    0.9782 C   0  0  0  0  0  0  0  0  0  0  0  0
   -4.5465   -2.1527    1.2902 H   0  0  0  0  0  0  0  0  0  0  0  0
   -3.9745   -3.1748   -0.0538 H   0  0  0  0  0  0  0  0  0  0  0  0
   -2.4245   -2.2537    1.0882 C   0  0  0  0  0  0  0  0  0  0  0  0
   -1.5805   -2.7478    1.8242 O   0  0  0  0  0  0  0  0  0  0  0  0
   -2.2045   -1.1637    0.3562 N   0  0  0  0  0  0  0  0  0  0  0  0
   -2.9595   -0.7907   -0.2008 H   0  0  0  0  0  0  0  0  0  0  0  0
   -0.9485   -0.4087    0.3482 C   0  0  1  0  0  0  0  0  0  0  0  0
   -0.5313   -0.4374   -0.6597 H   0  0  0  0  0  0  0  0  0  0  0  0
   -1.2350    1.0582    0.7120 C   0  0  0  0  0  0  0  0  0  0  0  0
   -1.7827    1.0899    1.6549 H   0  0  0  0  0  0  0  0  0  0  0  0
   -0.2871    1.5760    0.8662 H   0  0  0  0  0  0  0  0  0  0  0  0
   -2.0486    1.8028   -0.3294 C   0  0  0  0  0  0  0  0  0  0  0  0
   -1.4268    2.3303   -1.4770 C   0  0  0  0  0  0  0  0  0  0  0  0
   -0.3593    2.2271   -1.6118 H   0  0  0  0  0  0  0  0  0  0  0  0
   -2.1945    2.9837   -2.4586 C   0  0  0  0  0  0  0  0  0  0  0  0
   -1.7147    3.3902   -3.3378 H   0  0  0  0  0  0  0  0  0  0  0  0
   -3.5846    3.1092   -2.2956 C   0  0  0  0  0  0  0  0  0  0  0  0
   -4.1741    3.6133   -3.0486 H   0  0  0  0  0  0  0  0  0  0  0  0
   -4.2089    2.5846   -1.1493 C   0  0  0  0  0  0  0  0  0  0  0  0
   -5.2767    2.6858   -1.0213 H   0  0  0  0  0  0  0  0  0  0  0  0
   -3.4409    1.9345   -0.1670 C   0  0  0  0  0  0  0  0  0  0  0  0
   -3.9220    1.5343    0.7160 H   0  0  0  0  0  0  0  0  0  0  0  0
    0.0811   -1.0451    1.2992 C   0  0  0  0  0  0  0  0  0  0  0  0
    1.0854   -0.4161    1.6354 O   0  0  0  0  0  0  0  0  0  0  0  0
   -0.1622   -2.2902    1.7278 N   0  0  0  0  0  0  0  0  0  0  0  0
   -0.9772   -2.7599    1.3639 H   0  0  0  0  0  0  0  0  0  0  0  0
    0.7169   -3.0379    2.6237 C   0  0  0  0  0  0  0  0  0  0  0  0
    0.9358   -2.4398    3.5108 H   0  0  0  0  0  0  0  0  0  0  0  0
    0.2406   -3.9704    2.9274 H   0  0  0  0  0  0  0  0  0  0  0  0
    1.6560   -3.2619    2.1140 H   0  0  0  0  0  0  0  0  0  0  0  0
  5  6  2  0  0  0  0
  5  7  1  0  0  0  0
  2  3  1  0  0  0  0
  2  4  1  0  0  0  0
  2  5  1  0  0  0  0
  1  2  1  0  0  0  0
 25 26  2  0  0  0  0
 25 27  1  0  0  0  0
 23 24  1  0  0  0  0
 21 22  1  0  0  0  0
 21 23  2  0  0  0  0
 19 20  1  0  0  0  0
 19 21  1  0  0  0  0
 17 18  1  0  0  0  0
 17 19  2  0  0  0  0
 15 16  1  0  0  0  0
 15 17  1  0  0  0  0
 14 15  2  0  0  0  0
 14 23  1  0  0  0  0
 11 12  1  0  0  0  0
 11 13  1  0  0  0  0
 11 14  1  0  0  0  0
  9 10  1  0  0  0  0
  9 11  1  0  0  0  0
  9 25  1  0  0  0  0
  7  8  1  0  0  0  0
  7  9  1  0  0  0  0
 29 30  1  0  0  0  0
 29 31  1  0  0  0  0
 29 32  1  0  0  0  0
 27 28  1  0  0  0  0
 27 29  1  0  0  0  0
M  END
$$$$
default_name
  -OEChem-01062215323D

 32 32  0     1  0  0  0  0  0999 V2000
   -3.8405   -3.7518    1.6252 H   0  0  0  0  0  0  0  0  0  0  0  0
   -3.7965   -2.8768    0.9782 C   0  0  0  0  0  0  0  0  0  0  0  0
   -4.5465   -2.1527    1.2902 H   0  0  0  0  0  0  0  0  0  0  0  0
   -3.9745   -3.1748   -0.0538 H   0  0  0  0  0  0  0  0  0  0  0  0
   -2.4245   -2.2537    1.0882 C   0  0  0  0  0  0  0  0  0  0  0  0
   -1.5805   -2.7478    1.8242 O   0  0  0  0  0  0  0  0  0  0  0  0
   -2.2045   -1.1637    0.3562 N   0  0  0  0  0  0  0  0  0  0  0  0
   -2.9595   -0.7907   -0.2008 H   0  0  0  0  0  0  0  0  0  0  0  0
   -0.9485   -0.4087    0.3482 C   0  0  1  0  0  0  0  0  0  0  0  0
   -0.5313   -0.4374   -0.6597 H   0  0  0  0  0  0  0  0  0  0  0  0
   -1.2350    1.0582    0.7120 C   0  0  0  0  0  0  0  0  0  0  0  0
   -1.7827    1.0899    1.6549 H   0  0  0  0  0  0  0  0  0  0  0  0
   -0.2871    1.5760    0.8662 H   0  0  0  0  0  0  0  0  0  0  0  0
   -2.0486    1.8028   -0.3294 C   0  0  0  0  0  0  0  0  0  0  0  0
   -1.4268    2.3303   -1.4770 C   0  0  0  0  0  0  0  0  0  0  0  0
   -0.3593    2.2271   -1.6118 H   0  0  0  0  0  0  0  0  0  0  0  0
   -2.1945    2.9837   -2.4586 C   0  0  0  0  0  0  0  0  0  0  0  0
   -1.7147    3.3902   -3.3378 H   0  0  0  0  0  0  0  0  0  0  0  0
   -3.5846    3.1092   -2.2956 C   0  0  0  0  0  0  0  0  0  0  0  0
   -4.1741    3.6133   -3.0486 H   0  0  0  0  0  0  0  0  0  0  0  0
   -4.2089    2.5846   -1.1493 C   0  0  0  0  0  0  0  0  0  0  0  0
   -5.2767    2.6858   -1.0213 H   0  0  0  0  0  0  0  0  0  0  0  0
   -3.4409    1.9345   -0.1670 C   0  0  0  0  0  0  0  0  0  0  0  0
   -3.9220    1.5343    0.7160 H   0  0  0  0  0  0  0  0  0  0  0  0
    0.0811   -1.0451    1.2992 C   0  0  0  0  0  0  0  0  0  0  0  0
    0.9287   -0.3439    1.8533 O   0  0  0  0  0  0  0  0  0  0  0  0
    0.0134   -2.3696    1.4846 N   0  0  0  0  0  0  0  0  0  0  0  0
   -0.6730   -2.8824    0.9524 H   0  0  0  0  0  0  0  0  0  0  0  0
    0.9193   -3.1267    2.3451 C   0  0  0  0  0  0  0  0  0  0  0  0
    0.9504   -2.6739    3.3384 H   0  0  0  0  0  0  0  0  0  0  0  0
    0.5816   -4.1598    2.4315 H   0  0  0  0  0  0  0  0  0  0  0  0
    1.9260   -3.1104    1.9231 H   0  0  0  0  0  0  0  0  0  0  0  0
  5  6  2  0  0  0  0
  5  7  1  0  0  0  0
  2  3  1  0  0  0  0
  2  4  1  0  0  0  0
  2  5  1  0  0  0  0
  1  2  1  0  0  0  0
 25 26  2  0  0  0  0
 25 27  1  0  0  0  0
 23 24  1  0  0  0  0
 21 22  1  0  0  0  0
 21 23  2  0  0  0  0
 19 20  1  0  0  0  0
 19 21  1  0  0  0  0
 17 18  1  0  0  0  0
 17 19  2  0  0  0  0
 15 16  1  0  0  0  0
 15 17  1  0  0  0  0
 14 15  2  0  0  0  0
 14 23  1  0  0  0  0
 11 12  1  0  0  0  0
 11 13  1  0  0  0  0
 11 14  1  0  0  0  0
  9 10  1  0  0  0  0
  9 11  1  0  0  0  0
  9 25  1  0  0  0  0
  7  8  1  0  0  0  0
  7  9  1  0  0  0  0
 29 30  1  0  0  0  0
 29 31  1  0  0  0  0
 29 32  1  0  0  0  0
 27 28  1  0  0  0  0
 27 29  1  0  0  0  0
M  END
$$$$
default_name
  -OEChem-01062215323D

 32 32  0     1  0  0  0  0  0999 V2000
   -3.8405   -3.7518    1.6252 H   0  0  0  0  0  0  0  0  0  0  0  0
   -3.7965   -2.8768    0.9782 C   0  0  0  0  0  0  0  0  0  0  0  0
   -4.5465   -2.1527    1.2902 H   0  0  0  0  0  0  0  0  0  0  0  0
   -3.9745   -3.1748   -0.0538 H   0  0  0  0  0  0  0  0  0  0  0  0
   -2.4245   -2.2537    1.0882 C   0  0  0  0  0  0  0  0  0  0  0  0
   -1.5805   -2.7478    1.8242 O   0  0  0  0  0  0  0  0  0  0  0  0
   -2.2045   -1.1637    0.3562 N   0  0  0  0  0  0  0  0  0  0  0  0
   -2.9595   -0.7907   -0.2008 H   0  0  0  0  0  0  0  0  0  0  0  0
   -0.9485   -0.4087    0.3482 C   0  0  1  0  0  0  0  0  0  0  0  0
   -0.5313   -0.4374   -0.6597 H   0  0  0  0  0  0  0  0  0  0  0  0
   -1.2350    1.0582    0.7120 C   0  0  0  0  0  0  0  0  0  0  0  0
   -1.7827    1.0899    1.6549 H   0  0  0  0  0  0  0  0  0  0  0  0
   -0.2871    1.5760    0.8662 H   0  0  0  0  0  0  0  0  0  0  0  0
   -2.0486    1.8028   -0.3294 C   0  0  0  0  0  0  0  0  0  0  0  0
   -1.4268    2.3303   -1.4770 C   0  0  0  0  0  0  0  0  0  0  0  0
   -0.3593    2.2271   -1.6118 H   0  0  0  0  0  0  0  0  0  0  0  0
   -2.1945    2.9837   -2.4586 C   0  0  0  0  0  0  0  0  0  0  0  0
   -1.7147    3.3902   -3.3378 H   0  0  0  0  0  0  0  0  0  0  0  0
   -3.5846    3.1092   -2.2956 C   0  0  0  0  0  0  0  0  0  0  0  0
   -4.1741    3.6133   -3.0486 H   0  0  0  0  0  0  0  0  0  0  0  0
   -4.2089    2.5846   -1.1493 C   0  0  0  0  0  0  0  0  0  0  0  0
   -5.2767    2.6858   -1.0213 H   0  0  0  0  0  0  0  0  0  0  0  0
   -3.4409    1.9345   -0.1670 C   0  0  0  0  0  0  0  0  0  0  0  0
   -3.9220    1.5343    0.7160 H   0  0  0  0  0  0  0  0  0  0  0  0
    0.0811   -1.0451    1.2992 C   0  0  0  0  0  0  0  0  0  0  0  0
    0.7425   -0.3369    2.0596 O   0  0  0  0  0  0  0  0  0  0  0  0
    0.2217   -2.3761    1.2548 N   0  0  0  0  0  0  0  0  0  0  0  0
   -0.3154   -2.8810    0.5664 H   0  0  0  0  0  0  0  0  0  0  0  0
    1.1587   -3.1319    2.0824 C   0  0  0  0  0  0  0  0  0  0  0  0
    1.0203   -2.8678    3.1329 H   0  0  0  0  0  0  0  0  0  0  0  0
    0.9944   -4.2024    1.9562 H   0  0  0  0  0  0  0  0  0  0  0  0
    2.1830   -2.8879    1.7938 H   0  0  0  0  0  0  0  0  0  0  0  0
  5  6  2  0  0  0  0
  5  7  1  0  0  0  0
  2  3  1  0  0  0  0
  2  4  1  0  0  0  0
  2  5  1  0  0  0  0
  1  2  1  0  0  0  0
 25 26  2  0  0  0  0
 25 27  1  0  0  0  0
 23 24  1  0  0  0  0
 21 22  1  0  0  0  0
 21 23  2  0  0  0  0
 19 20  1  0  0  0  0
 19 21  1  0  0  0  0
 17 18  1  0  0  0  0
 17 19  2  0  0  0  0
 15 16  1  0  0  0  0
 15 17  1  0  0  0  0
 14 15  2  0  0  0  0
 14 23  1  0  0  0  0
 11 12  1  0  0  0  0
 11 13  1  0  0  0  0
 11 14  1  0  0  0  0
  9 10  1  0  0  0  0
  9 11  1  0  0  0  0
  9 25  1  0  0  0  0
  7  8  1  0  0  0  0
  7  9  1  0  0  0  0
 29 30  1  0  0  0  0
 29 31  1  0  0  0  0
 29 32  1  0  0  0  0
 27 28  1  0  0  0  0
 27 29  1  0  0  0  0
M  END
$$$$
default_name
  -OEChem-01062215323D

 32 32  0     1  0  0  0  0  0999 V2000
   -3.8405   -3.7518    1.6252 H   0  0  0  0  0  0  0  0  0  0  0  0
   -3.7965   -2.8768    0.9782 C   0  0  0  0  0  0  0  0  0  0  0  0
   -4.5465   -2.1527    1.2902 H   0  0  0  0  0  0  0  0  0  0  0  0
   -3.9745   -3.1748   -0.0538 H   0  0  0  0  0  0  0  0  0  0  0  0
   -2.4245   -2.2537    1.0882 C   0  0  0  0  0  0  0  0  0  0  0  0
   -1.5805   -2.7478    1.8242 O   0  0  0  0  0  0  0  0  0  0  0  0
   -2.2045   -1.1637    0.3562 N   0  0  0  0  0  0  0  0  0  0  0  0
   -2.9595   -0.7907   -0.2008 H   0  0  0  0  0  0  0  0  0  0  0  0
   -0.9485   -0.4087    0.3482 C   0  0  1  0  0  0  0  0  0  0  0  0
   -0.5313   -0.4374   -0.6597 H   0  0  0  0  0  0  0  0  0  0  0  0
   -1.2350    1.0582    0.7120 C   0  0  0  0  0  0  0  0  0  0  0  0
   -1.7827    1.0899    1.6549 H   0  0  0  0  0  0  0  0  0  0  0  0
   -0.2871    1.5760    0.8662 H   0  0  0  0  0  0  0  0  0  0  0  0
   -2.0486    1.8028   -0.3294 C   0  0  0  0  0  0  0  0  0  0  0  0
   -1.4268    2.3303   -1.4770 C   0  0  0  0  0  0  0  0  0  0  0  0
   -0.3593    2.2271   -1.6118 H   0  0  0  0  0  0  0  0  0  0  0  0
   -2.1945    2.9837   -2.4586 C   0  0  0  0  0  0  0  0  0  0  0  0
   -1.7147    3.3902   -3.3378 H   0  0  0  0  0  0  0  0  0  0  0  0
   -3.5846    3.1092   -2.2956 C   0  0  0  0  0  0  0  0  0  0  0  0
   -4.1741    3.6133   -3.0486 H   0  0  0  0  0  0  0  0  0  0  0  0
   -4.2089    2.5846   -1.1493 C   0  0  0  0  0  0  0  0  0  0  0  0
   -5.2767    2.6858   -1.0213 H   0  0  0  0  0  0  0  0  0  0  0  0
   -3.4409    1.9345   -0.1670 C   0  0  0  0  0  0  0  0  0  0  0  0
   -3.9220    1.5343    0.7160 H   0  0  0  0  0  0  0  0  0  0  0  0
    0.0811   -1.0451    1.2992 C   0  0  0  0  0  0  0  0  0  0  0  0
    0.5395   -0.3956    2.2401 O   0  0  0  0  0  0  0  0  0  0  0  0
    0.4485   -2.3092    1.0539 N   0  0  0  0  0  0  0  0  0  0  0  0
    0.0710   -2.7555    0.2320 H   0  0  0  0  0  0  0  0  0  0  0  0
    1.4190   -3.0532    1.8533 C   0  0  0  0  0  0  0  0  0  0  0  0
    1.1409   -3.0084    2.9083 H   0  0  0  0  0  0  0  0  0  0  0  0
    1.4507   -4.0952    1.5338 H   0  0  0  0  0  0  0  0  0  0  0  0
    2.4095   -2.6095    1.7349 H   0  0  0  0  0  0  0  0  0  0  0  0
  5  6  2  0  0  0  0
  5  7  1  0  0  0  0
  2  3  1  0  0  0  0
  2  4  1  0  0  0  0
  2  5  1  0  0  0  0
  1  2  1  0  0  0  0
 25 26  2  0  0  0  0
 25 27  1  0  0  0  0
 23 24  1  0  0  0  0
 21 22  1  0  0  0  0
 21 23  2  0  0  0  0
 19 20  1  0  0  0  0
 19 21  1  0  0  0  0
 17 18  1  0  0  0  0
 17 19  2  0  0  0  0
 15 16  1  0  0  0  0
 15 17  1  0  0  0  0
 14 15  2  0  0  0  0
 14 23  1  0  0  0  0
 11 12  1  0  0  0  0
 11 13  1  0  0  0  0
 11 14  1  0  0  0  0
  9 10  1  0  0  0  0
  9 11  1  0  0  0  0
  9 25  1  0  0  0  0
  7  8  1  0  0  0  0
  7  9  1  0  0  0  0
 29 30  1  0  0  0  0
 29 31  1  0  0  0  0
 29 32  1  0  0  0  0
 27 28  1  0  0  0  0
 27 29  1  0  0  0  0
M  END
$$$$
default_name
  -OEChem-01062215323D

 32 32  0     1  0  0  0  0  0999 V2000
   -3.8405   -3.7518    1.6252 H   0  0  0  0  0  0  0  0  0  0  0  0
   -3.7965   -2.8768    0.9782 C   0  0  0  0  0  0  0  0  0  0  0  0
   -4.5465   -2.1527    1.2902 H   0  0  0  0  0  0  0  0  0  0  0  0
   -3.9745   -3.1748   -0.0538 H   0  0  0  0  0  0  0  0  0  0  0  0
   -2.4245   -2.2537    1.0882 C   0  0  0  0  0  0  0  0  0  0  0  0
   -1.5805   -2.7478    1.8242 O   0  0  0  0  0  0  0  0  0  0  0  0
   -2.2045   -1.1637    0.3562 N   0  0  0  0  0  0  0  0  0  0  0  0
   -2.9595   -0.7907   -0.2008 H   0  0  0  0  0  0  0  0  0  0  0  0
   -0.9485   -0.4087    0.3482 C   0  0  1  0  0  0  0  0  0  0  0  0
   -0.5313   -0.4374   -0.6597 H   0  0  0  0  0  0  0  0  0  0  0  0
   -1.2350    1.0582    0.7120 C   0  0  0  0  0  0  0  0  0  0  0  0
   -1.7827    1.0899    1.6549 H   0  0  0  0  0  0  0  0  0  0  0  0
   -0.2871    1.5760    0.8662 H   0  0  0  0  0  0  0  0  0  0  0  0
   -2.0486    1.8028   -0.3294 C   0  0  0  0  0  0  0  0  0  0  0  0
   -1.4268    2.3303   -1.4770 C   0  0  0  0  0  0  0  0  0  0  0  0
   -0.3593    2.2271   -1.6118 H   0  0  0  0  0  0  0  0  0  0  0  0
   -2.1945    2.9837   -2.4586 C   0  0  0  0  0  0  0  0  0  0  0  0
   -1.7147    3.3902   -3.3378 H   0  0  0  0  0  0  0  0  0  0  0  0
   -3.5846    3.1092   -2.2956 C   0  0  0  0  0  0  0  0  0  0  0  0
   -4.1741    3.6133   -3.0486 H   0  0  0  0  0  0  0  0  0  0  0  0
   -4.2089    2.5846   -1.1493 C   0  0  0  0  0  0  0  0  0  0  0  0
   -5.2767    2.6858   -1.0213 H   0  0  0  0  0  0  0  0  0  0  0  0
   -3.4409    1.9345   -0.1670 C   0  0  0  0  0  0  0  0  0  0  0  0
   -3.9220    1.5343    0.7160 H   0  0  0  0  0  0  0  0  0  0  0  0
    0.0811   -1.0451    1.2992 C   0  0  0  0  0  0  0  0  0  0  0  0
    0.3334   -0.5160    2.3826 O   0  0  0  0  0  0  0  0  0  0  0  0
    0.6784   -2.1736    0.8958 N   0  0  0  0  0  0  0  0  0  0  0  0
    0.4600   -2.5147   -0.0280 H   0  0  0  0  0  0  0  0  0  0  0  0
    1.6824   -2.8959    1.6734 C   0  0  0  0  0  0  0  0  0  0  0  0
    1.3038   -3.0860    2.6800 H   0  0  0  0  0  0  0  0  0  0  0  0
    1.9196   -3.8456    1.1933 H   0  0  0  0  0  0  0  0  0  0  0  0
    2.5900   -2.2941    1.7505 H   0  0  0  0  0  0  0  0  0  0  0  0
  5  6  2  0  0  0  0
  5  7  1  0  0  0  0
  2  3  1  0  0  0  0
  2  4  1  0  0  0  0
  2  5  1  0  0  0  0
  1  2  1  0  0  0  0
 25 26  2  0  0  0  0
 25 27  1  0  0  0  0
 23 24  1  0  0  0  0
 21 22  1  0  0  0  0
 21 23  2  0  0  0  0
 19 20  1  0  0  0  0
 19 21  1  0  0  0  0
 17 18  1  0  0  0  0
 17 19  2  0  0  0  0
 15 16  1  0  0  0  0
 15 17  1  0  0  0  0
 14 15  2  0  0  0  0
 14 23  1  0  0  0  0
 11 12  1  0  0  0  0
 11 13  1  0  0  0  0
 11 14  1  0  0  0  0
  9 10  1  0  0  0  0
  9 11  1  0  0  0  0
  9 25  1  0  0  0  0
  7  8  1  0  0  0  0
  7  9  1  0  0  0  0
 29 30  1  0  0  0  0
 29 31  1  0  0  0  0
 29 32  1  0  0  0  0
 27 28  1  0  0  0  0
 27 29  1  0  0  0  0
M  END
$$$$
default_name
  -OEChem-01062215323D

 32 32  0     1  0  0  0  0  0999 V2000
   -3.8405   -3.7518    1.6252 H   0  0  0  0  0  0  0  0  0  0  0  0
   -3.7965   -2.8768    0.9782 C   0  0  0  0  0  0  0  0  0  0  0  0
   -4.5465   -2.1527    1.2902 H   0  0  0  0  0  0  0  0  0  0  0  0
   -3.9745   -3.1748   -0.0538 H   0  0  0  0  0  0  0  0  0  0  0  0
   -2.4245   -2.2537    1.0882 C   0  0  0  0  0  0  0  0  0  0  0  0
   -1.5805   -2.7478    1.8242 O   0  0  0  0  0  0  0  0  0  0  0  0
   -2.2045   -1.1637    0.3562 N   0  0  0  0  0  0  0  0  0  0  0  0
   -2.9595   -0.7907   -0.2008 H   0  0  0  0  0  0  0  0  0  0  0  0
   -0.9485   -0.4087    0.3482 C   0  0  1  0  0  0  0  0  0  0  0  0
   -0.5313   -0.4374   -0.6597 H   0  0  0  0  0  0  0  0  0  0  0  0
   -1.2350    1.0582    0.7120 C   0  0  0  0  0  0  0  0  0  0  0  0
   -1.7827    1.0899    1.6549 H   0  0  0  0  0  0  0  0  0  0  0  0
   -0.2871    1.5760    0.8662 H   0  0  0  0  0  0  0  0  0  0  0  0
   -2.0486    1.8028   -0.3294 C   0  0  0  0  0  0  0  0  0  0  0  0
   -1.4268    2.3303   -1.4770 C   0  0  0  0  0  0  0  0  0  0  0  0
   -0.3593    2.2271   -1.6118 H   0  0  0  0  0  0  0  0  0  0  0  0
   -2.1945    2.9837   -2.4586 C   0  0  0  0  0  0  0  0  0  0  0  0
   -1.7147    3.3902   -3.3378 H   0  0  0  0  0  0  0  0  0  0  0  0
   -3.5846    3.1092   -2.2956 C   0  0  0  0  0  0  0  0  0  0  0  0
   -4.1741    3.6133   -3.0486 H   0  0  0  0  0  0  0  0  0  0  0  0
   -4.2089    2.5846   -1.1493 C   0  0  0  0  0  0  0  0  0  0  0  0
   -5.2767    2.6858   -1.0213 H   0  0  0  0  0  0  0  0  0  0  0  0
   -3.4409    1.9345   -0.1670 C   0  0  0  0  0  0  0  0  0  0  0  0
   -3.9220    1.5343    0.7160 H   0  0  0  0  0  0  0  0  0  0  0  0
    0.0811   -1.0451    1.2992 C   0  0  0  0  0  0  0  0  0  0  0  0
    0.1384   -0.6900    2.4773 O   0  0  0  0  0  0  0  0  0  0  0  0
    0.8958   -1.9785    0.7911 N   0  0  0  0  0  0  0  0  0  0  0  0
    0.8250   -2.1749   -0.1957 H   0  0  0  0  0  0  0  0  0  0  0  0
    1.9308   -2.6707    1.5552 C   0  0  0  0  0  0  0  0  0  0  0  0
    1.4981   -3.0954    2.4634 H   0  0  0  0  0  0  0  0  0  0  0  0
    2.3690   -3.4706    0.9577 H   0  0  0  0  0  0  0  0  0  0  0  0
    2.7123   -1.9634    1.8394 H   0  0  0  0  0  0  0  0  0  0  0  0
  5  6  2  0  0  0  0
  5  7  1  0  0  0  0
  2  3  1  0  0  0  0
  2  4  1  0  0  0  0
  2  5  1  0  0  0  0
  1  2  1  0  0  0  0
 25 26  2  0  0  0  0
 25 27  1  0  0  0  0
 23 24  1  0  0  0  0
 21 22  1  0  0  0  0
 21 23  2  0  0  0  0
 19 20  1  0  0  0  0
 19 21  1  0  0  0  0
 17 18  1  0  0  0  0
 17 19  2  0  0  0  0
 15 16  1  0  0  0  0
 15 17  1  0  0  0  0
 14 15  2  0  0  0  0
 14 23  1  0  0  0  0
 11 12  1  0  0  0  0
 11 13  1  0  0  0  0
 11 14  1  0  0  0  0
  9 10  1  0  0  0  0
  9 11  1  0  0  0  0
  9 25  1  0  0  0  0
  7  8  1  0  0  0  0
  7  9  1  0  0  0  0
 29 30  1  0  0  0  0
 29 31  1  0  0  0  0
 29 32  1  0  0  0  0
 27 28  1  0  0  0  0
 27 29  1  0  0  0  0
M  END
$$$$
default_name
  -OEChem-01062215323D

 32 32  0     1  0  0  0  0  0999 V2000
   -3.8405   -3.7518    1.6252 H   0  0  0  0  0  0  0  0  0  0  0  0
   -3.7965   -2.8768    0.9782 C   0  0  0  0  0  0  0  0  0  0  0  0
   -4.5465   -2.1527    1.2902 H   0  0  0  0  0  0  0  0  0  0  0  0
   -3.9745   -3.1748   -0.0538 H   0  0  0  0  0  0  0  0  0  0  0  0
   -2.4245   -2.2537    1.0882 C   0  0  0  0  0  0  0  0  0  0  0  0
   -1.5805   -2.7478    1.8242 O   0  0  0  0  0  0  0  0  0  0  0  0
   -2.2045   -1.1637    0.3562 N   0  0  0  0  0  0  0  0  0  0  0  0
   -2.9595   -0.7907   -0.2008 H   0  0  0  0  0  0  0  0  0  0  0  0
   -0.9485   -0.4087    0.3482 C   0  0  1  0  0  0  0  0  0  0  0  0
   -0.5313   -0.4374   -0.6597 H   0  0  0  0  0  0  0  0  0  0  0  0
   -1.2350    1.0582    0.7120 C   0  0  0  0  0  0  0  0  0  0  0  0
   -1.7827    1.0899    1.6549 H   0  0  0  0  0  0  0  0  0  0  0  0
   -0.2871    1.5760    0.8662 H   0  0  0  0  0  0  0  0  0  0  0  0
   -2.0486    1.8028   -0.3294 C   0  0  0  0  0  0  0  0  0  0  0  0
   -1.4268    2.3303   -1.4770 C   0  0  0  0  0  0  0  0  0  0  0  0
   -0.3593    2.2271   -1.6118 H   0  0  0  0  0  0  0  0  0  0  0  0
   -2.1945    2.9837   -2.4586 C   0  0  0  0  0  0  0  0  0  0  0  0
   -1.7147    3.3902   -3.3378 H   0  0  0  0  0  0  0  0  0  0  0  0
   -3.5846    3.1092   -2.2956 C   0  0  0  0  0  0  0  0  0  0  0  0
   -4.1741    3.6133   -3.0486 H   0  0  0  0  0  0  0  0  0  0  0  0
   -4.2089    2.5846   -1.1493 C   0  0  0  0  0  0  0  0  0  0  0  0
   -5.2767    2.6858   -1.0213 H   0  0  0  0  0  0  0  0  0  0  0  0
   -3.4409    1.9345   -0.1670 C   0  0  0  0  0  0  0  0  0  0  0  0
   -3.9220    1.5343    0.7160 H   0  0  0  0  0  0  0  0  0  0  0  0
    0.0811   -1.0451    1.2992 C   0  0  0  0  0  0  0  0  0  0  0  0
   -0.0323   -0.9056    2.5178 O   0  0  0  0  0  0  0  0  0  0  0  0
    1.0857   -1.7372    0.7470 N   0  0  0  0  0  0  0  0  0  0  0  0
    1.1412   -1.7592   -0.2599 H   0  0  0  0  0  0  0  0  0  0  0  0
    2.1474   -2.3929    1.5065 C   0  0  0  0  0  0  0  0  0  0  0  0
    1.7104   -3.0359    2.2734 H   0  0  0  0  0  0  0  0  0  0  0  0
    2.7684   -2.9957    0.8432 H   0  0  0  0  0  0  0  0  0  0  0  0
    2.7680   -1.6397    1.9957 H   0  0  0  0  0  0  0  0  0  0  0  0
  5  6  2  0  0  0  0
  5  7  1  0  0  0  0
  2  3  1  0  0  0  0
  2  4  1  0  0  0  0
  2  5  1  0  0  0  0
  1  2  1  0  0  0  0
 25 26  2  0  0  0  0
 25 27  1  0  0  0  0
 23 24  1  0  0  0  0
 21 22  1  0  0  0  0
 21 23  2  0  0  0  0
 19 20  1  0  0  0  0
 19 21  1  0  0  0  0
 17 18  1  0  0  0  0
 17 19  2  0  0  0  0
 15 16  1  0  0  0  0
 15 17  1  0  0  0  0
 14 15  2  0  0  0  0
 14 23  1  0  0  0  0
 11 12  1  0  0  0  0
 11 13  1  0  0  0  0
 11 14  1  0  0  0  0
  9 10  1  0  0  0  0
  9 11  1  0  0  0  0
  9 25  1  0  0  0  0
  7  8  1  0  0  0  0
  7  9  1  0  0  0  0
 29 30  1  0  0  0  0
 29 31  1  0  0  0  0
 29 32  1  0  0  0  0
 27 28  1  0  0  0  0
 27 29  1  0  0  0  0
M  END
$$$$
default_name
  -OEChem-01062215323D

 32 32  0     1  0  0  0  0  0999 V2000
   -3.8405   -3.7518    1.6252 H   0  0  0  0  0  0  0  0  0  0  0  0
   -3.7965   -2.8768    0.9782 C   0  0  0  0  0  0  0  0  0  0  0  0
   -4.5465   -2.1527    1.2902 H   0  0  0  0  0  0  0  0  0  0  0  0
   -3.9745   -3.1748   -0.0538 H   0  0  0  0  0  0  0  0  0  0  0  0
   -2.4245   -2.2537    1.0882 C   0  0  0  0  0  0  0  0  0  0  0  0
   -1.5805   -2.7478    1.8242 O   0  0  0  0  0  0  0  0  0  0  0  0
   -2.2045   -1.1637    0.3562 N   0  0  0  0  0  0  0  0  0  0  0  0
   -2.9595   -0.7907   -0.2008 H   0  0  0  0  0  0  0  0  0  0  0  0
   -0.9485   -0.4087    0.3482 C   0  0  1  0  0  0  0  0  0  0  0  0
   -0.5313   -0.4374   -0.6597 H   0  0  0  0  0  0  0  0  0  0  0  0
   -1.2350    1.0582    0.7120 C   0  0  0  0  0  0  0  0  0  0  0  0
   -1.7827    1.0899    1.6549 H   0  0  0  0  0  0  0  0  0  0  0  0
   -0.2871    1.5760    0.8662 H   0  0  0  0  0  0  0  0  0  0  0  0
   -2.0486    1.8028   -0.3294 C   0  0  0  0  0  0  0  0  0  0  0  0
   -1.4268    2.3303   -1.4770 C   0  0  0  0  0  0  0  0  0  0  0  0
   -0.3593    2.2271   -1.6118 H   0  0  0  0  0  0  0  0  0  0  0  0
   -2.1945    2.9837   -2.4586 C   0  0  0  0  0  0  0  0  0  0  0  0
   -1.7147    3.3902   -3.3378 H   0  0  0  0  0  0  0  0  0  0  0  0
   -3.5846    3.1092   -2.2956 C   0  0  0  0  0  0  0  0  0  0  0  0
   -4.1741    3.6133   -3.0486 H   0  0  0  0  0  0  0  0  0  0  0  0
   -4.2089    2.5846   -1.1493 C   0  0  0  0  0  0  0  0  0  0  0  0
   -5.2767    2.6858   -1.0213 H   0  0  0  0  0  0  0  0  0  0  0  0
   -3.4409    1.9345   -0.1670 C   0  0  0  0  0  0  0  0  0  0  0  0
   -3.9220    1.5343    0.7160 H   0  0  0  0  0  0  0  0  0  0  0  0
    0.0811   -1.0451    1.2992 C   0  0  0  0  0  0  0  0  0  0  0  0
   -0.1670   -1.1481    2.5014 O   0  0  0  0  0  0  0  0  0  0  0  0
    1.2352   -1.4660    0.7665 N   0  0  0  0  0  0  0  0  0  0  0  0
    1.3870   -1.2960   -0.2161 H   0  0  0  0  0  0  0  0  0  0  0  0
    2.3175   -2.0816    1.5308 C   0  0  0  0  0  0  0  0  0  0  0  0
    1.9262   -2.9116    2.1228 H   0  0  0  0  0  0  0  0  0  0  0  0
    3.0904   -2.4533    0.8575 H   0  0  0  0  0  0  0  0  0  0  0  0
    2.7534   -1.3452    2.2086 H   0  0  0  0  0  0  0  0  0  0  0  0
  5  6  2  0  0  0  0
  5  7  1  0  0  0  0
  2  3  1  0  0  0  0
  2  4  1  0  0  0  0
  2  5  1  0  0  0  0
  1  2  1  0  0  0  0
 25 26  2  0  0  0  0
 25 27  1  0  0  0  0
 23 24  1  0  0  0  0
 21 22  1  0  0  0  0
 21 23  2  0  0  0  0
 19 20  1  0  0  0  0
 19 21  1  0  0  0  0
 17 18  1  0  0  0  0
 17 19  2  0  0  0  0
 15 16  1  0  0  0  0
 15 17  1  0  0  0  0
 14 15  2  0  0  0  0
 14 23  1  0  0  0  0
 11 12  1  0  0  0  0
 11 13  1  0  0  0  0
 11 14  1  0  0  0  0
  9 10  1  0  0  0  0
  9 11  1  0  0  0  0
  9 25  1  0  0  0  0
  7  8  1  0  0  0  0
  7  9  1  0  0  0  0
 29 30  1  0  0  0  0
 29 31  1  0  0  0  0
 29 32  1  0  0  0  0
 27 28  1  0  0  0  0
 27 29  1  0  0  0  0
M  END
$$$$
default_name
  -OEChem-01062215323D

 32 32  0     1  0  0  0  0  0999 V2000
   -3.8405   -3.7518    1.6252 H   0  0  0  0  0  0  0  0  0  0  0  0
   -3.7965   -2.8768    0.9782 C   0  0  0  0  0  0  0  0  0  0  0  0
   -4.5465   -2.1527    1.2902 H   0  0  0  0  0  0  0  0  0  0  0  0
   -3.9745   -3.1748   -0.0538 H   0  0  0  0  0  0  0  0  0  0  0  0
   -2.4245   -2.2537    1.0882 C   0  0  0  0  0  0  0  0  0  0  0  0
   -1.5805   -2.7478    1.8242 O   0  0  0  0  0  0  0  0  0  0  0  0
   -2.2045   -1.1637    0.3562 N   0  0  0  0  0  0  0  0  0  0  0  0
   -2.9595   -0.7907   -0.2008 H   0  0  0  0  0  0  0  0  0  0  0  0
   -0.9485   -0.4087    0.3482 C   0  0  1  0  0  0  0  0  0  0  0  0
   -0.5313   -0.4374   -0.6597 H   0  0  0  0  0  0  0  0  0  0  0  0
   -1.2350    1.0582    0.7120 C   0  0  0  0  0  0  0  0  0  0  0  0
   -1.7827    1.0899    1.6549 H   0  0  0  0  0  0  0  0  0  0  0  0
   -0.2871    1.5760    0.8662 H   0  0  0  0  0  0  0  0  0  0  0  0
   -2.0486    1.8028   -0.3294 C   0  0  0  0  0  0  0  0  0  0  0  0
   -1.4268    2.3303   -1.4770 C   0  0  0  0  0  0  0  0  0  0  0  0
   -0.3593    2.2271   -1.6118 H   0  0  0  0  0  0  0  0  0  0  0  0
   -2.1945    2.9837   -2.4586 C   0  0  0  0  0  0  0  0  0  0  0  0
   -1.7147    3.3902   -3.3378 H   0  0  0  0  0  0  0  0  0  0  0  0
   -3.5846    3.1092   -2.2956 C   0  0  0  0  0  0  0  0  0  0  0  0
   -4.1741    3.6133   -3.0486 H   0  0  0  0  0  0  0  0  0  0  0  0
   -4.2089    2.5846   -1.1493 C   0  0  0  0  0  0  0  0  0  0  0  0
   -5.2767    2.6858   -1.0213 H   0  0  0  0  0  0  0  0  0  0  0  0
   -3.4409    1.9345   -0.1670 C   0  0  0  0  0  0  0  0  0  0  0  0
   -3.9220    1.5343    0.7160 H   0  0  0  0  0  0  0  0  0  0  0  0
    0.0811   -1.0451    1.2992 C   0  0  0  0  0  0  0  0  0  0  0  0
   -0.2566   -1.4011    2.4291 O   0  0  0  0  0  0  0  0  0  0  0  0
    1.3343   -1.1836    0.8482 N   0  0  0  0  0  0  0  0  0  0  0  0
    1.5457   -0.8169   -0.0673 H   0  0  0  0  0  0  0  0  0  0  0  0
    2.4293   -1.7579    1.6263 C   0  0  0  0  0  0  0  0  0  0  0  0
    2.1310   -2.7310    2.0220 H   0  0  0  0  0  0  0  0  0  0  0  0
    3.3132   -1.8803    0.9997 H   0  0  0  0  0  0  0  0  0  0  0  0
    2.6694   -1.0999    2.4637 H   0  0  0  0  0  0  0  0  0  0  0  0
  5  6  2  0  0  0  0
  5  7  1  0  0  0  0
  2  3  1  0  0  0  0
  2  4  1  0  0  0  0
  2  5  1  0  0  0  0
  1  2  1  0  0  0  0
 25 26  2  0  0  0  0
 25 27  1  0  0  0  0
 23 24  1  0  0  0  0
 21 22  1  0  0  0  0
 21 23  2  0  0  0  0
 19 20  1  0  0  0  0
 19 21  1  0  0  0  0
 17 18  1  0  0  0  0
 17 19  2  0  0  0  0
 15 16  1  0  0  0  0
 15 17  1  0  0  0  0
 14 15  2  0  0  0  0
 14 23  1  0  0  0  0
 11 12  1  0  0  0  0
 11 13  1  0  0  0  0
 11 14  1  0  0  0  0
  9 10  1  0  0  0  0
  9 11  1  0  0  0  0
  9 25  1  0  0  0  0
  7  8  1  0  0  0  0
  7  9  1  0  0  0  0
 29 30  1  0  0  0  0
 29 31  1  0  0  0  0
 29 32  1  0  0  0  0
 27 28  1  0  0  0  0
 27 29  1  0  0  0  0
M  END
$$$$
default_name
  -OEChem-01062215323D

 32 32  0     1  0  0  0  0  0999 V2000
   -3.8405   -3.7518    1.6252 H   0  0  0  0  0  0  0  0  0  0  0  0
   -3.7965   -2.8768    0.9782 C   0  0  0  0  0  0  0  0  0  0  0  0
   -4.5465   -2.1527    1.2902 H   0  0  0  0  0  0  0  0  0  0  0  0
   -3.9745   -3.1748   -0.0538 H   0  0  0  0  0  0  0  0  0  0  0  0
   -2.4245   -2.2537    1.0882 C   0  0  0  0  0  0  0  0  0  0  0  0
   -1.5805   -2.7478    1.8242 O   0  0  0  0  0  0  0  0  0  0  0  0
   -2.2045   -1.1637    0.3562 N   0  0  0  0  0  0  0  0  0  0  0  0
   -2.9595   -0.7907   -0.2008 H   0  0  0  0  0  0  0  0  0  0  0  0
   -0.9485   -0.4087    0.3482 C   0  0  1  0  0  0  0  0  0  0  0  0
   -0.5313   -0.4374   -0.6597 H   0  0  0  0  0  0  0  0  0  0  0  0
   -1.2350    1.0582    0.7120 C   0  0  0  0  0  0  0  0  0  0  0  0
   -1.7827    1.0899    1.6549 H   0  0  0  0  0  0  0  0  0  0  0  0
   -0.2871    1.5760    0.8662 H   0  0  0  0  0  0  0  0  0  0  0  0
   -2.0486    1.8028   -0.3294 C   0  0  0  0  0  0  0  0  0  0  0  0
   -1.4268    2.3303   -1.4770 C   0  0  0  0  0  0  0  0  0  0  0  0
   -0.3593    2.2271   -1.6118 H   0  0  0  0  0  0  0  0  0  0  0  0
   -2.1945    2.9837   -2.4586 C   0  0  0  0  0  0  0  0  0  0  0  0
   -1.7147    3.3902   -3.3378 H   0  0  0  0  0  0  0  0  0  0  0  0
   -3.5846    3.1092   -2.2956 C   0  0  0  0  0  0  0  0  0  0  0  0
   -4.1741    3.6133   -3.0486 H   0  0  0  0  0  0  0  0  0  0  0  0
   -4.2089    2.5846   -1.1493 C   0  0  0  0  0  0  0  0  0  0  0  0
   -5.2767    2.6858   -1.0213 H   0  0  0  0  0  0  0  0  0  0  0  0
   -3.4409    1.9345   -0.1670 C   0  0  0  0  0  0  0  0  0  0  0  0
   -3.9220    1.5343    0.7160 H   0  0  0  0  0  0  0  0  0  0  0  0
    0.0811   -1.0451    1.2992 C   0  0  0  0  0  0  0  0  0  0  0  0
   -0.2950   -1.6473    2.3059 O   0  0  0  0  0  0  0  0  0  0  0  0
    1.3760   -0.9091    0.9867 N   0  0  0  0  0  0  0  0  0  0  0  0
    1.6064   -0.3545    0.1764 H   0  0  0  0  0  0  0  0  0  0  0  0
    2.4754   -1.4439    1.7865 C   0  0  0  0  0  0  0  0  0  0  0  0
    2.3107   -2.5063    1.9778 H   0  0  0  0  0  0  0  0  0  0  0  0
    3.4216   -1.3159    1.2600 H   0  0  0  0  0  0  0  0  0  0  0  0
    2.5217   -0.9206    2.7436 H   0  0  0  0  0  0  0  0  0  0  0  0
  5  6  2  0  0  0  0
  5  7  1  0  0  0  0
  2  3  1  0  0  0  0
  2  4  1  0  0  0  0
  2  5  1  0  0  0  0
  1  2  1  0  0  0  0
 25 26  2  0  0  0  0
 25 27  1  0  0  0  0
 23 24  1  0  0  0  0
 21 22  1  0  0  0  0
 21 23  2  0  0  0  0
 19 20  1  0  0  0  0
 19 21  1  0  0  0  0
 17 18  1  0  0  0  0
 17 19  2  0  0  0  0
 15 16  1  0  0  0  0
 15 17  1  0  0  0  0
 14 15  2  0  0  0  0
 14 23  1  0  0  0  0
 11 12  1  0  0  0  0
 11 13  1  0  0  0  0
 11 14  1  0  0  0  0
  9 10  1  0  0  0  0
  9 11  1  0  0  0  0
  9 25  1  0  0  0  0
  7  8  1  0  0  0  0
  7  9  1  0  0  0  0
 29 30  1  0  0  0  0
 29 31  1  0  0  0  0
 29 32  1  0  0  0  0
 27 28  1  0  0  0  0
 27 29  1  0  0  0  0
M  END
$$$$
default_name
  -OEChem-01062215323D

 32 32  0     1  0  0  0  0  0999 V2000
   -3.8405   -3.7518    1.6252 H   0  0  0  0  0  0  0  0  0  0  0  0
   -3.7965   -2.8768    0.9782 C   0  0  0  0  0  0  0  0  0  0  0  0
   -4.5465   -2.1527    1.2902 H   0  0  0  0  0  0  0  0  0  0  0  0
   -3.9745   -3.1748   -0.0538 H   0  0  0  0  0  0  0  0  0  0  0  0
   -2.4245   -2.2537    1.0882 C   0  0  0  0  0  0  0  0  0  0  0  0
   -1.5805   -2.7478    1.8242 O   0  0  0  0  0  0  0  0  0  0  0  0
   -2.2045   -1.1637    0.3562 N   0  0  0  0  0  0  0  0  0  0  0  0
   -2.9595   -0.7907   -0.2008 H   0  0  0  0  0  0  0  0  0  0  0  0
   -0.9485   -0.4087    0.3482 C   0  0  1  0  0  0  0  0  0  0  0  0
   -0.5313   -0.4374   -0.6597 H   0  0  0  0  0  0  0  0  0  0  0  0
   -1.2350    1.0582    0.7120 C   0  0  0  0  0  0  0  0  0  0  0  0
   -1.7827    1.0899    1.6549 H   0  0  0  0  0  0  0  0  0  0  0  0
   -0.2871    1.5760    0.8662 H   0  0  0  0  0  0  0  0  0  0  0  0
   -2.0486    1.8028   -0.3294 C   0  0  0  0  0  0  0  0  0  0  0  0
   -1.4268    2.3303   -1.4770 C   0  0  0  0  0  0  0  0  0  0  0  0
   -0.3593    2.2271   -1.6118 H   0  0  0  0  0  0  0  0  0  0  0  0
   -2.1945    2.9837   -2.4586 C   0  0  0  0  0  0  0  0  0  0  0  0
   -1.7147    3.3902   -3.3378 H   0  0  0  0  0  0  0  0  0  0  0  0
   -3.5846    3.1092   -2.2956 C   0  0  0  0  0  0  0  0  0  0  0  0
   -4.1741    3.6133   -3.0486 H   0  0  0  0  0  0  0  0  0  0  0  0
   -4.2089    2.5846   -1.1493 C   0  0  0  0  0  0  0  0  0  0  0  0
   -5.2767    2.6858   -1.0213 H   0  0  0  0  0  0  0  0  0  0  0  0
   -3.4409    1.9345   -0.1670 C   0  0  0  0  0  0  0  0  0  0  0  0
   -3.9220    1.5343    0.7160 H   0  0  0  0  0  0  0  0  0  0  0  0
    0.0811   -1.0451    1.2992 C   0  0  0  0  0  0  0  0  0  0  0  0
   -0.2795   -1.8699    2.1401 O   0  0  0  0  0  0  0  0  0  0  0  0
    1.3577   -0.6613    1.1725 N   0  0  0  0  0  0  0  0  0  0  0  0
    1.5651    0.0597    0.4983 H   0  0  0  0  0  0  0  0  0  0  0  0
    2.4526   -1.1609    2.0006 C   0  0  0  0  0  0  0  0  0  0  0  0
    2.4531   -2.2529    1.9933 H   0  0  0  0  0  0  0  0  0  0  0  0
    3.4082   -0.7984    1.6208 H   0  0  0  0  0  0  0  0  0  0  0  0
    2.3204   -0.8195    3.0291 H   0  0  0  0  0  0  0  0  0  0  0  0
  5  6  2  0  0  0  0
  5  7  1  0  0  0  0
  2  3  1  0  0  0  0
  2  4  1  0  0  0  0
  2  5  1  0  0  0  0
  1  2  1  0  0  0  0
 25 26  2  0  0  0  0
 25 27  1  0  0  0  0
 23 24  1  0  0  0  0
 21 22  1  0  0  0  0
 21 23  2  0  0  0  0
 19 20  1  0  0  0  0
 19 21  1  0  0  0  0
 17 18  1  0  0  0  0
 17 19  2  0  0  0  0
 15 16  1  0  0  0  0
 15 17  1  0  0  0  0
 14 15  2  0  0  0  0
 14 23  1  0  0  0  0
 11 12  1  0  0  0  0
 11 13  1  0  0  0  0
 11 14  1  0  0  0  0
  9 10  1  0  0  0  0
  9 11  1  0  0  0  0
  9 25  1  0  0  0  0
  7  8  1  0  0  0  0
  7  9  1  0  0  0  0
 29 30  1  0  0  0  0
 29 31  1  0  0  0  0
 29 32  1  0  0  0  0
 27 28  1  0  0  0  0
 27 29  1  0  0  0  0
M  END
$$$$
default_name
  -OEChem-01062215323D

 32 32  0     1  0  0  0  0  0999 V2000
   -3.8405   -3.7518    1.6252 H   0  0  0  0  0  0  0  0  0  0  0  0
   -3.7965   -2.8768    0.9782 C   0  0  0  0  0  0  0  0  0  0  0  0
   -4.5465   -2.1527    1.2902 H   0  0  0  0  0  0  0  0  0  0  0  0
   -3.9745   -3.1748   -0.0538 H   0  0  0  0  0  0  0  0  0  0  0  0
   -2.4245   -2.2537    1.0882 C   0  0  0  0  0  0  0  0  0  0  0  0
   -1.5805   -2.7478    1.8242 O   0  0  0  0  0  0  0  0  0  0  0  0
   -2.2045   -1.1637    0.3562 N   0  0  0  0  0  0  0  0  0  0  0  0
   -2.9595   -0.7907   -0.2008 H   0  0  0  0  0  0  0  0  0  0  0  0
   -0.9485   -0.4087    0.3482 C   0  0  1  0  0  0  0  0  0  0  0  0
   -0.6698   -0.2073   -0.6874 H   0  0  0  0  0  0  0  0  0  0  0  0
   -1.1598    0.9368    1.0631 C   0  0  0  0  0  0  0  0  0  0  0  0
   -1.5764    0.7510    2.0541 H   0  0  0  0  0  0  0  0  0  0  0  0
   -0.1915    1.4204    1.2003 H   0  0  0  0  0  0  0  0  0  0  0  0
   -2.0925    1.8828    0.3309 C   0  0  0  0  0  0  0  0  0  0  0  0
   -1.6204    2.6602   -0.7437 C   0  0  0  0  0  0  0  0  0  0  0  0
   -0.5823    2.6041   -1.0392 H   0  0  0  0  0  0  0  0  0  0  0  0
   -2.5012    3.5047   -1.4444 C   0  0  0  0  0  0  0  0  0  0  0  0
   -2.1361    4.1027   -2.2675 H   0  0  0  0  0  0  0  0  0  0  0  0
   -3.8550    3.5719   -1.0736 C   0  0  0  0  0  0  0  0  0  0  0  0
   -4.5311    4.2225   -1.6104 H   0  0  0  0  0  0  0  0  0  0  0  0
   -4.3296    2.7975    0.0007 C   0  0  0  0  0  0  0  0  0  0  0  0
   -5.3690    2.8532    0.2893 H   0  0  0  0  0  0  0  0  0  0  0  0
   -3.4484    1.9562    0.7029 C   0  0  0  0  0  0  0  0  0  0  0  0
   -3.8141    1.3635    1.5313 H   0  0  0  0  0  0  0  0  0  0  0  0
    0.1879   -1.2262    0.9882 C   0  0  0  0  0  0  0  0  0  0  0  0
   -0.0325   -2.3565    1.4256 O   0  0  0  0  0  0  0  0  0  0  0  0
    1.3986   -0.6572    1.0490 N   0  0  0  0  0  0  0  0  0  0  0  0
    1.4867    0.2923    0.7204 H   0  0  0  0  0  0  0  0  0  0  0  0
    2.5776   -1.2931    1.6318 C   0  0  0  0  0  0  0  0  0  0  0  0
    2.7197   -2.2823    1.1917 H   0  0  0  0  0  0  0  0  0  0  0  0
    3.4641   -0.6861    1.4456 H   0  0  0  0  0  0  0  0  0  0  0  0
    2.4387   -1.4075    2.7086 H   0  0  0  0  0  0  0  0  0  0  0  0
  5  6  2  0  0  0  0
  5  7  1  0  0  0  0
  2  3  1  0  0  0  0
  2  4  1  0  0  0  0
  2  5  1  0  0  0  0
  1  2  1  0  0  0  0
 25 26  2  0  0  0  0
 25 27  1  0  0  0  0
 23 24  1  0  0  0  0
 21 22  1  0  0  0  0
 21 23  2  0  0  0  0
 19 20  1  0  0  0  0
 19 21  1  0  0  0  0
 17 18  1  0  0  0  0
 17 19  2  0  0  0  0
 15 16  1  0  0  0  0
 15 17  1  0  0  0  0
 14 15  2  0  0  0  0
 14 23  1  0  0  0  0
 11 12  1  0  0  0  0
 11 13  1  0  0  0  0
 11 14  1  0  0  0  0
  9 10  1  0  0  0  0
  9 11  1  0  0  0  0
  9 25  1  0  0  0  0
  7  8  1  0  0  0  0
  7  9  1  0  0  0  0
 29 30  1  0  0  0  0
 29 31  1  0  0  0  0
 29 32  1  0  0  0  0
 27 28  1  0  0  0  0
 27 29  1  0  0  0  0
M  END
$$$$
default_name
  -OEChem-01062215323D

 32 32  0     1  0  0  0  0  0999 V2000
   -3.8405   -3.7518    1.6252 H   0  0  0  0  0  0  0  0  0  0  0  0
   -3.7965   -2.8768    0.9782 C   0  0  0  0  0  0  0  0  0  0  0  0
   -4.5465   -2.1527    1.2902 H   0  0  0  0  0  0  0  0  0  0  0  0
   -3.9745   -3.1748   -0.0538 H   0  0  0  0  0  0  0  0  0  0  0  0
   -2.4245   -2.2537    1.0882 C   0  0  0  0  0  0  0  0  0  0  0  0
   -1.5805   -2.7478    1.8242 O   0  0  0  0  0  0  0  0  0  0  0  0
   -2.2045   -1.1637    0.3562 N   0  0  0  0  0  0  0  0  0  0  0  0
   -2.9595   -0.7907   -0.2008 H   0  0  0  0  0  0  0  0  0  0  0  0
   -0.9485   -0.4087    0.3482 C   0  0  1  0  0  0  0  0  0  0  0  0
   -0.6698   -0.2073   -0.6874 H   0  0  0  0  0  0  0  0  0  0  0  0
   -1.1598    0.9368    1.0631 C   0  0  0  0  0  0  0  0  0  0  0  0
   -1.5764    0.7510    2.0541 H   0  0  0  0  0  0  0  0  0  0  0  0
   -0.1915    1.4204    1.2003 H   0  0  0  0  0  0  0  0  0  0  0  0
   -2.0925    1.8828    0.3309 C   0  0  0  0  0  0  0  0  0  0  0  0
   -1.6204    2.6602   -0.7437 C   0  0  0  0  0  0  0  0  0  0  0  0
   -0.5823    2.6041   -1.0392 H   0  0  0  0  0  0  0  0  0  0  0  0
   -2.5012    3.5047   -1.4444 C   0  0  0  0  0  0  0  0  0  0  0  0
   -2.1361    4.1027   -2.2675 H   0  0  0  0  0  0  0  0  0  0  0  0
   -3.8550    3.5719   -1.0736 C   0  0  0  0  0  0  0  0  0  0  0  0
   -4.5311    4.2225   -1.6104 H   0  0  0  0  0  0  0  0  0  0  0  0
   -4.3296    2.7975    0.0007 C   0  0  0  0  0  0  0  0  0  0  0  0
   -5.3690    2.8532    0.2893 H   0  0  0  0  0  0  0  0  0  0  0  0
   -3.4484    1.9562    0.7029 C   0  0  0  0  0  0  0  0  0  0  0  0
   -3.8141    1.3635    1.5313 H   0  0  0  0  0  0  0  0  0  0  0  0
    0.1879   -1.2262    0.9882 C   0  0  0  0  0  0  0  0  0  0  0  0
    0.0521   -2.4365    1.1732 O   0  0  0  0  0  0  0  0  0  0  0  0
    1.3032   -0.5691    1.3308 N   0  0  0  0  0  0  0  0  0  0  0  0
    1.3168    0.4308    1.1988 H   0  0  0  0  0  0  0  0  0  0  0  0
    2.4669   -1.1940    1.9549 C   0  0  0  0  0  0  0  0  0  0  0  0
    2.7824   -2.0583    1.3666 H   0  0  0  0  0  0  0  0  0  0  0  0
    3.2899   -0.4814    2.0165 H   0  0  0  0  0  0  0  0  0  0  0  0
    2.2072   -1.5326    2.9598 H   0  0  0  0  0  0  0  0  0  0  0  0
  5  6  2  0  0  0  0
  5  7  1  0  0  0  0
  2  3  1  0  0  0  0
  2  4  1  0  0  0  0
  2  5  1  0  0  0  0
  1  2  1  0  0  0  0
 25 26  2  0  0  0  0
 25 27  1  0  0  0  0
 23 24  1  0  0  0  0
 21 22  1  0  0  0  0
 21 23  2  0  0  0  0
 19 20  1  0  0  0  0
 19 21  1  0  0  0  0
 17 18  1  0  0  0  0
 17 19  2  0  0  0  0
 15 16  1  0  0  0  0
 15 17  1  0  0  0  0
 14 15  2  0  0  0  0
 14 23  1  0  0  0  0
 11 12  1  0  0  0  0
 11 13  1  0  0  0  0
 11 14  1  0  0  0  0
  9 10  1  0  0  0  0
  9 11  1  0  0  0  0
  9 25  1  0  0  0  0
  7  8  1  0  0  0  0
  7  9  1  0  0  0  0
 29 30  1  0  0  0  0
 29 31  1  0  0  0  0
 29 32  1  0  0  0  0
 27 28  1  0  0  0  0
 27 29  1  0  0  0  0
M  END
$$$$
default_name
  -OEChem-01062215323D

 32 32  0     1  0  0  0  0  0999 V2000
   -3.8405   -3.7518    1.6252 H   0  0  0  0  0  0  0  0  0  0  0  0
   -3.7965   -2.8768    0.9782 C   0  0  0  0  0  0  0  0  0  0  0  0
   -4.5465   -2.1527    1.2902 H   0  0  0  0  0  0  0  0  0  0  0  0
   -3.9745   -3.1748   -0.0538 H   0  0  0  0  0  0  0  0  0  0  0  0
   -2.4245   -2.2537    1.0882 C   0  0  0  0  0  0  0  0  0  0  0  0
   -1.5805   -2.7478    1.8242 O   0  0  0  0  0  0  0  0  0  0  0  0
   -2.2045   -1.1637    0.3562 N   0  0  0  0  0  0  0  0  0  0  0  0
   -2.9595   -0.7907   -0.2008 H   0  0  0  0  0  0  0  0  0  0  0  0
   -0.9485   -0.4087    0.3482 C   0  0  1  0  0  0  0  0  0  0  0  0
   -0.6698   -0.2073   -0.6874 H   0  0  0  0  0  0  0  0  0  0  0  0
   -1.1598    0.9368    1.0631 C   0  0  0  0  0  0  0  0  0  0  0  0
   -1.5764    0.7510    2.0541 H   0  0  0  0  0  0  0  0  0  0  0  0
   -0.1915    1.4204    1.2003 H   0  0  0  0  0  0  0  0  0  0  0  0
   -2.0925    1.8828    0.3309 C   0  0  0  0  0  0  0  0  0  0  0  0
   -1.6204    2.6602   -0.7437 C   0  0  0  0  0  0  0  0  0  0  0  0
   -0.5823    2.6041   -1.0392 H   0  0  0  0  0  0  0  0  0  0  0  0
   -2.5012    3.5047   -1.4444 C   0  0  0  0  0  0  0  0  0  0  0  0
   -2.1361    4.1027   -2.2675 H   0  0  0  0  0  0  0  0  0  0  0  0
   -3.8550    3.5719   -1.0736 C   0  0  0  0  0  0  0  0  0  0  0  0
   -4.5311    4.2225   -1.6104 H   0  0  0  0  0  0  0  0  0  0  0  0
   -4.3296    2.7975    0.0007 C   0  0  0  0  0  0  0  0  0  0  0  0
   -5.3690    2.8532    0.2893 H   0  0  0  0  0  0  0  0  0  0  0  0
   -3.4484    1.9562    0.7029 C   0  0  0  0  0  0  0  0  0  0  0  0
   -3.8141    1.3635    1.5313 H   0  0  0  0  0  0  0  0  0  0  0  0
    0.1879   -1.2262    0.9882 C   0  0  0  0  0  0  0  0  0  0  0  0
    0.1772   -2.4564    0.9258 O   0  0  0  0  0  0  0  0  0  0  0  0
    1.1630   -0.5481    1.6067 N   0  0  0  0  0  0  0  0  0  0  0  0
    1.0721    0.4548    1.6640 H   0  0  0  0  0  0  0  0  0  0  0  0
    2.3050   -1.1720    2.2707 C   0  0  0  0  0  0  0  0  0  0  0  0
    2.7948   -1.8685    1.5870 H   0  0  0  0  0  0  0  0  0  0  0  0
    3.0211   -0.4114    2.5830 H   0  0  0  0  0  0  0  0  0  0  0  0
    1.9626   -1.7263    3.1466 H   0  0  0  0  0  0  0  0  0  0  0  0
  5  6  2  0  0  0  0
  5  7  1  0  0  0  0
  2  3  1  0  0  0  0
  2  4  1  0  0  0  0
  2  5  1  0  0  0  0
  1  2  1  0  0  0  0
 25 26  2  0  0  0  0
 25 27  1  0  0  0  0
 23 24  1  0  0  0  0
 21 22  1  0  0  0  0
 21 23  2  0  0  0  0
 19 20  1  0  0  0  0
 19 21  1  0  0  0  0
 17 18  1  0  0  0  0
 17 19  2  0  0  0  0
 15 16  1  0  0  0  0
 15 17  1  0  0  0  0
 14 15  2  0  0  0  0
 14 23  1  0  0  0  0
 11 12  1  0  0  0  0
 11 13  1  0  0  0  0
 11 14  1  0  0  0  0
  9 10  1  0  0  0  0
  9 11  1  0  0  0  0
  9 25  1  0  0  0  0
  7  8  1  0  0  0  0
  7  9  1  0  0  0  0
 29 30  1  0  0  0  0
 29 31  1  0  0  0  0
 29 32  1  0  0  0  0
 27 28  1  0  0  0  0
 27 29  1  0  0  0  0
M  END
$$$$
default_name
  -OEChem-01062215323D

 32 32  0     1  0  0  0  0  0999 V2000
   -3.8405   -3.7518    1.6252 H   0  0  0  0  0  0  0  0  0  0  0  0
   -3.7965   -2.8768    0.9782 C   0  0  0  0  0  0  0  0  0  0  0  0
   -4.5465   -2.1527    1.2902 H   0  0  0  0  0  0  0  0  0  0  0  0
   -3.9745   -3.1748   -0.0538 H   0  0  0  0  0  0  0  0  0  0  0  0
   -2.4245   -2.2537    1.0882 C   0  0  0  0  0  0  0  0  0  0  0  0
   -1.5805   -2.7478    1.8242 O   0  0  0  0  0  0  0  0  0  0  0  0
   -2.2045   -1.1637    0.3562 N   0  0  0  0  0  0  0  0  0  0  0  0
   -2.9595   -0.7907   -0.2008 H   0  0  0  0  0  0  0  0  0  0  0  0
   -0.9485   -0.4087    0.3482 C   0  0  1  0  0  0  0  0  0  0  0  0
   -0.6698   -0.2073   -0.6874 H   0  0  0  0  0  0  0  0  0  0  0  0
   -1.1598    0.9368    1.0631 C   0  0  0  0  0  0  0  0  0  0  0  0
   -1.5764    0.7510    2.0541 H   0  0  0  0  0  0  0  0  0  0  0  0
   -0.1915    1.4204    1.2003 H   0  0  0  0  0  0  0  0  0  0  0  0
   -2.0925    1.8828    0.3309 C   0  0  0  0  0  0  0  0  0  0  0  0
   -1.6204    2.6602   -0.7437 C   0  0  0  0  0  0  0  0  0  0  0  0
   -0.5823    2.6041   -1.0392 H   0  0  0  0  0  0  0  0  0  0  0  0
   -2.5012    3.5047   -1.4444 C   0  0  0  0  0  0  0  0  0  0  0  0
   -2.1361    4.1027   -2.2675 H   0  0  0  0  0  0  0  0  0  0  0  0
   -3.8550    3.5719   -1.0736 C   0  0  0  0  0  0  0  0  0  0  0  0
   -4.5311    4.2225   -1.6104 H   0  0  0  0  0  0  0  0  0  0  0  0
   -4.3296    2.7975    0.0007 C   0  0  0  0  0  0  0  0  0  0  0  0
   -5.3690    2.8532    0.2893 H   0  0  0  0  0  0  0  0  0  0  0  0
   -3.4484    1.9562    0.7029 C   0  0  0  0  0  0  0  0  0  0  0  0
   -3.8141    1.3635    1.5313 H   0  0  0  0  0  0  0  0  0  0  0  0
    0.1879   -1.2262    0.9882 C   0  0  0  0  0  0  0  0  0  0  0  0
    0.3341   -2.4149    0.7001 O   0  0  0  0  0  0  0  0  0  0  0  0
    0.9873   -0.5956    1.8580 N   0  0  0  0  0  0  0  0  0  0  0  0
    0.7692    0.3628    2.0843 H   0  0  0  0  0  0  0  0  0  0  0  0
    2.1027   -1.2285    2.5576 C   0  0  0  0  0  0  0  0  0  0  0  0
    2.7561   -1.7260    1.8378 H   0  0  0  0  0  0  0  0  0  0  0  0
    2.6761   -0.4811    3.1067 H   0  0  0  0  0  0  0  0  0  0  0  0
    1.7215   -1.9755    3.2565 H   0  0  0  0  0  0  0  0  0  0  0  0
  5  6  2  0  0  0  0
  5  7  1  0  0  0  0
  2  3  1  0  0  0  0
  2  4  1  0  0  0  0
  2  5  1  0  0  0  0
  1  2  1  0  0  0  0
 25 26  2  0  0  0  0
 25 27  1  0  0  0  0
 23 24  1  0  0  0  0
 21 22  1  0  0  0  0
 21 23  2  0  0  0  0
 19 20  1  0  0  0  0
 19 21  1  0  0  0  0
 17 18  1  0  0  0  0
 17 19  2  0  0  0  0
 15 16  1  0  0  0  0
 15 17  1  0  0  0  0
 14 15  2  0  0  0  0
 14 23  1  0  0  0  0
 11 12  1  0  0  0  0
 11 13  1  0  0  0  0
 11 14  1  0  0  0  0
  9 10  1  0  0  0  0
  9 11  1  0  0  0  0
  9 25  1  0  0  0  0
  7  8  1  0  0  0  0
  7  9  1  0  0  0  0
 29 30  1  0  0  0  0
 29 31  1  0  0  0  0
 29 32  1  0  0  0  0
 27 28  1  0  0  0  0
 27 29  1  0  0  0  0
M  END
$$$$
default_name
  -OEChem-01062215323D

 32 32  0     1  0  0  0  0  0999 V2000
   -3.8405   -3.7518    1.6252 H   0  0  0  0  0  0  0  0  0  0  0  0
   -3.7965   -2.8768    0.9782 C   0  0  0  0  0  0  0  0  0  0  0  0
   -4.5465   -2.1527    1.2902 H   0  0  0  0  0  0  0  0  0  0  0  0
   -3.9745   -3.1748   -0.0538 H   0  0  0  0  0  0  0  0  0  0  0  0
   -2.4245   -2.2537    1.0882 C   0  0  0  0  0  0  0  0  0  0  0  0
   -1.5805   -2.7478    1.8242 O   0  0  0  0  0  0  0  0  0  0  0  0
   -2.2045   -1.1637    0.3562 N   0  0  0  0  0  0  0  0  0  0  0  0
   -2.9595   -0.7907   -0.2008 H   0  0  0  0  0  0  0  0  0  0  0  0
   -0.9485   -0.4087    0.3482 C   0  0  1  0  0  0  0  0  0  0  0  0
   -0.6698   -0.2073   -0.6874 H   0  0  0  0  0  0  0  0  0  0  0  0
   -1.1598    0.9368    1.0631 C   0  0  0  0  0  0  0  0  0  0  0  0
   -1.5764    0.7510    2.0541 H   0  0  0  0  0  0  0  0  0  0  0  0
   -0.1915    1.4204    1.2003 H   0  0  0  0  0  0  0  0  0  0  0  0
   -2.0925    1.8828    0.3309 C   0  0  0  0  0  0  0  0  0  0  0  0
   -1.6204    2.6602   -0.7437 C   0  0  0  0  0  0  0  0  0  0  0  0
   -0.5823    2.6041   -1.0392 H   0  0  0  0  0  0  0  0  0  0  0  0
   -2.5012    3.5047   -1.4444 C   0  0  0  0  0  0  0  0  0  0  0  0
   -2.1361    4.1027   -2.2675 H   0  0  0  0  0  0  0  0  0  0  0  0
   -3.8550    3.5719   -1.0736 C   0  0  0  0  0  0  0  0  0  0  0  0
   -4.5311    4.2225   -1.6104 H   0  0  0  0  0  0  0  0  0  0  0  0
   -4.3296    2.7975    0.0007 C   0  0  0  0  0  0  0  0  0  0  0  0
   -5.3690    2.8532    0.2893 H   0  0  0  0  0  0  0  0  0  0  0  0
   -3.4484    1.9562    0.7029 C   0  0  0  0  0  0  0  0  0  0  0  0
   -3.8141    1.3635    1.5313 H   0  0  0  0  0  0  0  0  0  0  0  0
    0.1879   -1.2262    0.9882 C   0  0  0  0  0  0  0  0  0  0  0  0
    0.5122   -2.3149    0.5116 O   0  0  0  0  0  0  0  0  0  0  0  0
    0.7881   -0.7084    2.0675 N   0  0  0  0  0  0  0  0  0  0  0  0
    0.4288    0.1611    2.4311 H   0  0  0  0  0  0  0  0  0  0  0  0
    1.8740   -1.3596    2.7962 C   0  0  0  0  0  0  0  0  0  0  0  0
    2.6688   -1.6404    2.1020 H   0  0  0  0  0  0  0  0  0  0  0  0
    2.2783   -0.6855    3.5518 H   0  0  0  0  0  0  0  0  0  0  0  0
    1.5004   -2.2631    3.2819 H   0  0  0  0  0  0  0  0  0  0  0  0
  5  6  2  0  0  0  0
  5  7  1  0  0  0  0
  2  3  1  0  0  0  0
  2  4  1  0  0  0  0
  2  5  1  0  0  0  0
  1  2  1  0  0  0  0
 25 26  2  0  0  0  0
 25 27  1  0  0  0  0
 23 24  1  0  0  0  0
 21 22  1  0  0  0  0
 21 23  2  0  0  0  0
 19 20  1  0  0  0  0
 19 21  1  0  0  0  0
 17 18  1  0  0  0  0
 17 19  2  0  0  0  0
 15 16  1  0  0  0  0
 15 17  1  0  0  0  0
 14 15  2  0  0  0  0
 14 23  1  0  0  0  0
 11 12  1  0  0  0  0
 11 13  1  0  0  0  0
 11 14  1  0  0  0  0
  9 10  1  0  0  0  0
  9 11  1  0  0  0  0
  9 25  1  0  0  0  0
  7  8  1  0  0  0  0
  7  9  1  0  0  0  0
 29 30  1  0  0  0  0
 29 31  1  0  0  0  0
 29 32  1  0  0  0  0
 27 28  1  0  0  0  0
 27 29  1  0  0  0  0
M  END
$$$$
default_name
  -OEChem-01062215323D

 32 32  0     1  0  0  0  0  0999 V2000
   -3.8405   -3.7518    1.6252 H   0  0  0  0  0  0  0  0  0  0  0  0
   -3.7965   -2.8768    0.9782 C   0  0  0  0  0  0  0  0  0  0  0  0
   -4.5465   -2.1527    1.2902 H   0  0  0  0  0  0  0  0  0  0  0  0
   -3.9745   -3.1748   -0.0538 H   0  0  0  0  0  0  0  0  0  0  0  0
   -2.4245   -2.2537    1.0882 C   0  0  0  0  0  0  0  0  0  0  0  0
   -1.5805   -2.7478    1.8242 O   0  0  0  0  0  0  0  0  0  0  0  0
   -2.2045   -1.1637    0.3562 N   0  0  0  0  0  0  0  0  0  0  0  0
   -2.9595   -0.7907   -0.2008 H   0  0  0  0  0  0  0  0  0  0  0  0
   -0.9485   -0.4087    0.3482 C   0  0  1  0  0  0  0  0  0  0  0  0
   -0.6698   -0.2073   -0.6874 H   0  0  0  0  0  0  0  0  0  0  0  0
   -1.1598    0.9368    1.0631 C   0  0  0  0  0  0  0  0  0  0  0  0
   -1.5764    0.7510    2.0541 H   0  0  0  0  0  0  0  0  0  0  0  0
   -0.1915    1.4204    1.2003 H   0  0  0  0  0  0  0  0  0  0  0  0
   -2.0925    1.8828    0.3309 C   0  0  0  0  0  0  0  0  0  0  0  0
   -1.6204    2.6602   -0.7437 C   0  0  0  0  0  0  0  0  0  0  0  0
   -0.5823    2.6041   -1.0392 H   0  0  0  0  0  0  0  0  0  0  0  0
   -2.5012    3.5047   -1.4444 C   0  0  0  0  0  0  0  0  0  0  0  0
   -2.1361    4.1027   -2.2675 H   0  0  0  0  0  0  0  0  0  0  0  0
   -3.8550    3.5719   -1.0736 C   0  0  0  0  0  0  0  0  0  0  0  0
   -4.5311    4.2225   -1.6104 H   0  0  0  0  0  0  0  0  0  0  0  0
   -4.3296    2.7975    0.0007 C   0  0  0  0  0  0  0  0  0  0  0  0
   -5.3690    2.8532    0.2893 H   0  0  0  0  0  0  0  0  0  0  0  0
   -3.4484    1.9562    0.7029 C   0  0  0  0  0  0  0  0  0  0  0  0
   -3.8141    1.3635    1.5313 H   0  0  0  0  0  0  0  0  0  0  0  0
    0.1879   -1.2262    0.9882 C   0  0  0  0  0  0  0  0  0  0  0  0
    0.6994   -2.1630    0.3732 O   0  0  0  0  0  0  0  0  0  0  0  0
    0.5791   -0.8789    2.2209 N   0  0  0  0  0  0  0  0  0  0  0  0
    0.0740   -0.1367    2.6807 H   0  0  0  0  0  0  0  0  0  0  0  0
    1.6344   -1.5565    2.9701 C   0  0  0  0  0  0  0  0  0  0  0  0
    2.5391   -1.6176    2.3615 H   0  0  0  0  0  0  0  0  0  0  0  0
    1.8550   -1.0108    3.8880 H   0  0  0  0  0  0  0  0  0  0  0  0
    1.3142   -2.5696    3.2210 H   0  0  0  0  0  0  0  0  0  0  0  0
  5  6  2  0  0  0  0
  5  7  1  0  0  0  0
  2  3  1  0  0  0  0
  2  4  1  0  0  0  0
  2  5  1  0  0  0  0
  1  2  1  0  0  0  0
 25 26  2  0  0  0  0
 25 27  1  0  0  0  0
 23 24  1  0  0  0  0
 21 22  1  0  0  0  0
 21 23  2  0  0  0  0
 19 20  1  0  0  0  0
 19 21  1  0  0  0  0
 17 18  1  0  0  0  0
 17 19  2  0  0  0  0
 15 16  1  0  0  0  0
 15 17  1  0  0  0  0
 14 15  2  0  0  0  0
 14 23  1  0  0  0  0
 11 12  1  0  0  0  0
 11 13  1  0  0  0  0
 11 14  1  0  0  0  0
  9 10  1  0  0  0  0
  9 11  1  0  0  0  0
  9 25  1  0  0  0  0
  7  8  1  0  0  0  0
  7  9  1  0  0  0  0
 29 30  1  0  0  0  0
 29 31  1  0  0  0  0
 29 32  1  0  0  0  0
 27 28  1  0  0  0  0
 27 29  1  0  0  0  0
M  END
$$$$
default_name
  -OEChem-01062215323D

 32 32  0     1  0  0  0  0  0999 V2000
   -3.8405   -3.7518    1.6252 H   0  0  0  0  0  0  0  0  0  0  0  0
   -3.7965   -2.8768    0.9782 C   0  0  0  0  0  0  0  0  0  0  0  0
   -4.5465   -2.1527    1.2902 H   0  0  0  0  0  0  0  0  0  0  0  0
   -3.9745   -3.1748   -0.0538 H   0  0  0  0  0  0  0  0  0  0  0  0
   -2.4245   -2.2537    1.0882 C   0  0  0  0  0  0  0  0  0  0  0  0
   -1.5805   -2.7478    1.8242 O   0  0  0  0  0  0  0  0  0  0  0  0
   -2.2045   -1.1637    0.3562 N   0  0  0  0  0  0  0  0  0  0  0  0
   -2.9595   -0.7907   -0.2008 H   0  0  0  0  0  0  0  0  0  0  0  0
   -0.9485   -0.4087    0.3482 C   0  0  1  0  0  0  0  0  0  0  0  0
   -0.6698   -0.2073   -0.6874 H   0  0  0  0  0  0  0  0  0  0  0  0
   -1.1598    0.9368    1.0631 C   0  0  0  0  0  0  0  0  0  0  0  0
   -1.5764    0.7510    2.0541 H   0  0  0  0  0  0  0  0  0  0  0  0
   -0.1915    1.4204    1.2003 H   0  0  0  0  0  0  0  0  0  0  0  0
   -2.0925    1.8828    0.3309 C   0  0  0  0  0  0  0  0  0  0  0  0
   -1.6204    2.6602   -0.7437 C   0  0  0  0  0  0  0  0  0  0  0  0
   -0.5823    2.6041   -1.0392 H   0  0  0  0  0  0  0  0  0  0  0  0
   -2.5012    3.5047   -1.4444 C   0  0  0  0  0  0  0  0  0  0  0  0
   -2.1361    4.1027   -2.2675 H   0  0  0  0  0  0  0  0  0  0  0  0
   -3.8550    3.5719   -1.0736 C   0  0  0  0  0  0  0  0  0  0  0  0
   -4.5311    4.2225   -1.6104 H   0  0  0  0  0  0  0  0  0  0  0  0
   -4.3296    2.7975    0.0007 C   0  0  0  0  0  0  0  0  0  0  0  0
   -5.3690    2.8532    0.2893 H   0  0  0  0  0  0  0  0  0  0  0  0
   -3.4484    1.9562    0.7029 C   0  0  0  0  0  0  0  0  0  0  0  0
   -3.8141    1.3635    1.5313 H   0  0  0  0  0  0  0  0  0  0  0  0
    0.1879   -1.2262    0.9882 C   0  0  0  0  0  0  0  0  0  0  0  0
    0.8829   -1.9697    0.2942 O   0  0  0  0  0  0  0  0  0  0  0  0
    0.3745   -1.0953    2.3078 N   0  0  0  0  0  0  0  0  0  0  0  0
   -0.2710   -0.5103    2.8161 H   0  0  0  0  0  0  0  0  0  0  0  0
    1.4003   -1.8057    3.0676 C   0  0  0  0  0  0  0  0  0  0  0  0
    2.3756   -1.6592    2.5987 H   0  0  0  0  0  0  0  0  0  0  0  0
    1.4348   -1.4349    4.0924 H   0  0  0  0  0  0  0  0  0  0  0  0
    1.1757   -2.8740    3.0781 H   0  0  0  0  0  0  0  0  0  0  0  0
  5  6  2  0  0  0  0
  5  7  1  0  0  0  0
  2  3  1  0  0  0  0
  2  4  1  0  0  0  0
  2  5  1  0  0  0  0
  1  2  1  0  0  0  0
 25 26  2  0  0  0  0
 25 27  1  0  0  0  0
 23 24  1  0  0  0  0
 21 22  1  0  0  0  0
 21 23  2  0  0  0  0
 19 20  1  0  0  0  0
 19 21  1  0  0  0  0
 17 18  1  0  0  0  0
 17 19  2  0  0  0  0
 15 16  1  0  0  0  0
 15 17  1  0  0  0  0
 14 15  2  0  0  0  0
 14 23  1  0  0  0  0
 11 12  1  0  0  0  0
 11 13  1  0  0  0  0
 11 14  1  0  0  0  0
  9 10  1  0  0  0  0
  9 11  1  0  0  0  0
  9 25  1  0  0  0  0
  7  8  1  0  0  0  0
  7  9  1  0  0  0  0
 29 30  1  0  0  0  0
 29 31  1  0  0  0  0
 29 32  1  0  0  0  0
 27 28  1  0  0  0  0
 27 29  1  0  0  0  0
M  END
$$$$
default_name
  -OEChem-01062215323D

 32 32  0     1  0  0  0  0  0999 V2000
   -3.8405   -3.7518    1.6252 H   0  0  0  0  0  0  0  0  0  0  0  0
   -3.7965   -2.8768    0.9782 C   0  0  0  0  0  0  0  0  0  0  0  0
   -4.5465   -2.1527    1.2902 H   0  0  0  0  0  0  0  0  0  0  0  0
   -3.9745   -3.1748   -0.0538 H   0  0  0  0  0  0  0  0  0  0  0  0
   -2.4245   -2.2537    1.0882 C   0  0  0  0  0  0  0  0  0  0  0  0
   -1.5805   -2.7478    1.8242 O   0  0  0  0  0  0  0  0  0  0  0  0
   -2.2045   -1.1637    0.3562 N   0  0  0  0  0  0  0  0  0  0  0  0
   -2.9595   -0.7907   -0.2008 H   0  0  0  0  0  0  0  0  0  0  0  0
   -0.9485   -0.4087    0.3482 C   0  0  1  0  0  0  0  0  0  0  0  0
   -0.6698   -0.2073   -0.6874 H   0  0  0  0  0  0  0  0  0  0  0  0
   -1.1598    0.9368    1.0631 C   0  0  0  0  0  0  0  0  0  0  0  0
   -1.5764    0.7510    2.0541 H   0  0  0  0  0  0  0  0  0  0  0  0
   -0.1915    1.4204    1.2003 H   0  0  0  0  0  0  0  0  0  0  0  0
   -2.0925    1.8828    0.3309 C   0  0  0  0  0  0  0  0  0  0  0  0
   -1.6204    2.6602   -0.7437 C   0  0  0  0  0  0  0  0  0  0  0  0
   -0.5823    2.6041   -1.0392 H   0  0  0  0  0  0  0  0  0  0  0  0
   -2.5012    3.5047   -1.4444 C   0  0  0  0  0  0  0  0  0  0  0  0
   -2.1361    4.1027   -2.2675 H   0  0  0  0  0  0  0  0  0  0  0  0
   -3.8550    3.5719   -1.0736 C   0  0  0  0  0  0  0  0  0  0  0  0
   -4.5311    4.2225   -1.6104 H   0  0  0  0  0  0  0  0  0  0  0  0
   -4.3296    2.7975    0.0007 C   0  0  0  0  0  0  0  0  0  0  0  0
   -5.3690    2.8532    0.2893 H   0  0  0  0  0  0  0  0  0  0  0  0
   -3.4484    1.9562    0.7029 C   0  0  0  0  0  0  0  0  0  0  0  0
   -3.8141    1.3635    1.5313 H   0  0  0  0  0  0  0  0  0  0  0  0
    0.1879   -1.2262    0.9882 C   0  0  0  0  0  0  0  0  0  0  0  0
    1.0502   -1.7482    0.2801 O   0  0  0  0  0  0  0  0  0  0  0  0
    0.1882   -1.3430    2.3222 N   0  0  0  0  0  0  0  0  0  0  0  0
   -0.5826   -0.9341    2.8282 H   0  0  0  0  0  0  0  0  0  0  0  0
    1.1875   -2.0902    3.0820 C   0  0  0  0  0  0  0  0  0  0  0  0
    2.1895   -1.7622    2.7974 H   0  0  0  0  0  0  0  0  0  0  0  0
    1.0465   -1.9288    4.1510 H   0  0  0  0  0  0  0  0  0  0  0  0
    1.0943   -3.1557    2.8629 H   0  0  0  0  0  0  0  0  0  0  0  0
  5  6  2  0  0  0  0
  5  7  1  0  0  0  0
  2  3  1  0  0  0  0
  2  4  1  0  0  0  0
  2  5  1  0  0  0  0
  1  2  1  0  0  0  0
 25 26  2  0  0  0  0
 25 27  1  0  0  0  0
 23 24  1  0  0  0  0
 21 22  1  0  0  0  0
 21 23  2  0  0  0  0
 19 20  1  0  0  0  0
 19 21  1  0  0  0  0
 17 18  1  0  0  0  0
 17 19  2  0  0  0  0
 15 16  1  0  0  0  0
 15 17  1  0  0  0  0
 14 15  2  0  0  0  0
 14 23  1  0  0  0  0
 11 12  1  0  0  0  0
 11 13  1  0  0  0  0
 11 14  1  0  0  0  0
  9 10  1  0  0  0  0
  9 11  1  0  0  0  0
  9 25  1  0  0  0  0
  7  8  1  0  0  0  0
  7  9  1  0  0  0  0
 29 30  1  0  0  0  0
 29 31  1  0  0  0  0
 29 32  1  0  0  0  0
 27 28  1  0  0  0  0
 27 29  1  0  0  0  0
M  END
$$$$
default_name
  -OEChem-01062215323D

 32 32  0     1  0  0  0  0  0999 V2000
   -3.8405   -3.7518    1.6252 H   0  0  0  0  0  0  0  0  0  0  0  0
   -3.7965   -2.8768    0.9782 C   0  0  0  0  0  0  0  0  0  0  0  0
   -4.5465   -2.1527    1.2902 H   0  0  0  0  0  0  0  0  0  0  0  0
   -3.9745   -3.1748   -0.0538 H   0  0  0  0  0  0  0  0  0  0  0  0
   -2.4245   -2.2537    1.0882 C   0  0  0  0  0  0  0  0  0  0  0  0
   -1.5805   -2.7478    1.8242 O   0  0  0  0  0  0  0  0  0  0  0  0
   -2.2045   -1.1637    0.3562 N   0  0  0  0  0  0  0  0  0  0  0  0
   -2.9595   -0.7907   -0.2008 H   0  0  0  0  0  0  0  0  0  0  0  0
   -0.9485   -0.4087    0.3482 C   0  0  1  0  0  0  0  0  0  0  0  0
   -0.6698   -0.2073   -0.6874 H   0  0  0  0  0  0  0  0  0  0  0  0
   -1.1598    0.9368    1.0631 C   0  0  0  0  0  0  0  0  0  0  0  0
   -1.5764    0.7510    2.0541 H   0  0  0  0  0  0  0  0  0  0  0  0
   -0.1915    1.4204    1.2003 H   0  0  0  0  0  0  0  0  0  0  0  0
   -2.0925    1.8828    0.3309 C   0  0  0  0  0  0  0  0  0  0  0  0
   -1.6204    2.6602   -0.7437 C   0  0  0  0  0  0  0  0  0  0  0  0
   -0.5823    2.6041   -1.0392 H   0  0  0  0  0  0  0  0  0  0  0  0
   -2.5012    3.5047   -1.4444 C   0  0  0  0  0  0  0  0  0  0  0  0
   -2.1361    4.1027   -2.2675 H   0  0  0  0  0  0  0  0  0  0  0  0
   -3.8550    3.5719   -1.0736 C   0  0  0  0  0  0  0  0  0  0  0  0
   -4.5311    4.2225   -1.6104 H   0  0  0  0  0  0  0  0  0  0  0  0
   -4.3296    2.7975    0.0007 C   0  0  0  0  0  0  0  0  0  0  0  0
   -5.3690    2.8532    0.2893 H   0  0  0  0  0  0  0  0  0  0  0  0
   -3.4484    1.9562    0.7029 C   0  0  0  0  0  0  0  0  0  0  0  0
   -3.8141    1.3635    1.5313 H   0  0  0  0  0  0  0  0  0  0  0  0
    0.1879   -1.2262    0.9882 C   0  0  0  0  0  0  0  0  0  0  0  0
    1.1899   -1.5135    0.3318 O   0  0  0  0  0  0  0  0  0  0  0  0
    0.0329   -1.6050    2.2632 N   0  0  0  0  0  0  0  0  0  0  0  0
   -0.8396   -1.3793    2.7160 H   0  0  0  0  0  0  0  0  0  0  0  0
    1.0107   -2.3907    3.0122 C   0  0  0  0  0  0  0  0  0  0  0  0
    1.9936   -1.9198    2.9441 H   0  0  0  0  0  0  0  0  0  0  0  0
    0.7166   -2.4588    4.0599 H   0  0  0  0  0  0  0  0  0  0  0  0
    1.0756   -3.3953    2.5899 H   0  0  0  0  0  0  0  0  0  0  0  0
  5  6  2  0  0  0  0
  5  7  1  0  0  0  0
  2  3  1  0  0  0  0
  2  4  1  0  0  0  0
  2  5  1  0  0  0  0
  1  2  1  0  0  0  0
 25 26  2  0  0  0  0
 25 27  1  0  0  0  0
 23 24  1  0  0  0  0
 21 22  1  0  0  0  0
 21 23  2  0  0  0  0
 19 20  1  0  0  0  0
 19 21  1  0  0  0  0
 17 18  1  0  0  0  0
 17 19  2  0  0  0  0
 15 16  1  0  0  0  0
 15 17  1  0  0  0  0
 14 15  2  0  0  0  0
 14 23  1  0  0  0  0
 11 12  1  0  0  0  0
 11 13  1  0  0  0  0
 11 14  1  0  0  0  0
  9 10  1  0  0  0  0
  9 11  1  0  0  0  0
  9 25  1  0  0  0  0
  7  8  1  0  0  0  0
  7  9  1  0  0  0  0
 29 30  1  0  0  0  0
 29 31  1  0  0  0  0
 29 32  1  0  0  0  0
 27 28  1  0  0  0  0
 27 29  1  0  0  0  0
M  END
$$$$
default_name
  -OEChem-01062215323D

 32 32  0     1  0  0  0  0  0999 V2000
   -3.8405   -3.7518    1.6252 H   0  0  0  0  0  0  0  0  0  0  0  0
   -3.7965   -2.8768    0.9782 C   0  0  0  0  0  0  0  0  0  0  0  0
   -4.5465   -2.1527    1.2902 H   0  0  0  0  0  0  0  0  0  0  0  0
   -3.9745   -3.1748   -0.0538 H   0  0  0  0  0  0  0  0  0  0  0  0
   -2.4245   -2.2537    1.0882 C   0  0  0  0  0  0  0  0  0  0  0  0
   -1.5805   -2.7478    1.8242 O   0  0  0  0  0  0  0  0  0  0  0  0
   -2.2045   -1.1637    0.3562 N   0  0  0  0  0  0  0  0  0  0  0  0
   -2.9595   -0.7907   -0.2008 H   0  0  0  0  0  0  0  0  0  0  0  0
   -0.9485   -0.4087    0.3482 C   0  0  1  0  0  0  0  0  0  0  0  0
   -0.6698   -0.2073   -0.6874 H   0  0  0  0  0  0  0  0  0  0  0  0
   -1.1598    0.9368    1.0631 C   0  0  0  0  0  0  0  0  0  0  0  0
   -1.5764    0.7510    2.0541 H   0  0  0  0  0  0  0  0  0  0  0  0
   -0.1915    1.4204    1.2003 H   0  0  0  0  0  0  0  0  0  0  0  0
   -2.0925    1.8828    0.3309 C   0  0  0  0  0  0  0  0  0  0  0  0
   -1.6204    2.6602   -0.7437 C   0  0  0  0  0  0  0  0  0  0  0  0
   -0.5823    2.6041   -1.0392 H   0  0  0  0  0  0  0  0  0  0  0  0
   -2.5012    3.5047   -1.4444 C   0  0  0  0  0  0  0  0  0  0  0  0
   -2.1361    4.1027   -2.2675 H   0  0  0  0  0  0  0  0  0  0  0  0
   -3.8550    3.5719   -1.0736 C   0  0  0  0  0  0  0  0  0  0  0  0
   -4.5311    4.2225   -1.6104 H   0  0  0  0  0  0  0  0  0  0  0  0
   -4.3296    2.7975    0.0007 C   0  0  0  0  0  0  0  0  0  0  0  0
   -5.3690    2.8532    0.2893 H   0  0  0  0  0  0  0  0  0  0  0  0
   -3.4484    1.9562    0.7029 C   0  0  0  0  0  0  0  0  0  0  0  0
   -3.8141    1.3635    1.5313 H   0  0  0  0  0  0  0  0  0  0  0  0
    0.1879   -1.2262    0.9882 C   0  0  0  0  0  0  0  0  0  0  0  0
    1.2925   -1.2817    0.4458 O   0  0  0  0  0  0  0  0  0  0  0  0
   -0.0808   -1.8636    2.1348 N   0  0  0  0  0  0  0  0  0  0  0  0
   -1.0246   -1.8155    2.4872 H   0  0  0  0  0  0  0  0  0  0  0  0
    0.8818   -2.6866    2.8631 C   0  0  0  0  0  0  0  0  0  0  0  0
    1.8011   -2.1211    3.0288 H   0  0  0  0  0  0  0  0  0  0  0  0
    0.4674   -2.9889    3.8253 H   0  0  0  0  0  0  0  0  0  0  0  0
    1.1209   -3.5767    2.2779 H   0  0  0  0  0  0  0  0  0  0  0  0
  5  6  2  0  0  0  0
  5  7  1  0  0  0  0
  2  3  1  0  0  0  0
  2  4  1  0  0  0  0
  2  5  1  0  0  0  0
  1  2  1  0  0  0  0
 25 26  2  0  0  0  0
 25 27  1  0  0  0  0
 23 24  1  0  0  0  0
 21 22  1  0  0  0  0
 21 23  2  0  0  0  0
 19 20  1  0  0  0  0
 19 21  1  0  0  0  0
 17 18  1  0  0  0  0
 17 19  2  0  0  0  0
 15 16  1  0  0  0  0
 15 17  1  0  0  0  0
 14 15  2  0  0  0  0
 14 23  1  0  0  0  0
 11 12  1  0  0  0  0
 11 13  1  0  0  0  0
 11 14  1  0  0  0  0
  9 10  1  0  0  0  0
  9 11  1  0  0  0  0
  9 25  1  0  0  0  0
  7  8  1  0  0  0  0
  7  9  1  0  0  0  0
 29 30  1  0  0  0  0
 29 31  1  0  0  0  0
 29 32  1  0  0  0  0
 27 28  1  0  0  0  0
 27 29  1  0  0  0  0
M  END
$$$$
default_name
  -OEChem-01062215323D

 32 32  0     1  0  0  0  0  0999 V2000
   -3.8405   -3.7518    1.6252 H   0  0  0  0  0  0  0  0  0  0  0  0
   -3.7965   -2.8768    0.9782 C   0  0  0  0  0  0  0  0  0  0  0  0
   -4.5465   -2.1527    1.2902 H   0  0  0  0  0  0  0  0  0  0  0  0
   -3.9745   -3.1748   -0.0538 H   0  0  0  0  0  0  0  0  0  0  0  0
   -2.4245   -2.2537    1.0882 C   0  0  0  0  0  0  0  0  0  0  0  0
   -1.5805   -2.7478    1.8242 O   0  0  0  0  0  0  0  0  0  0  0  0
   -2.2045   -1.1637    0.3562 N   0  0  0  0  0  0  0  0  0  0  0  0
   -2.9595   -0.7907   -0.2008 H   0  0  0  0  0  0  0  0  0  0  0  0
   -0.9485   -0.4087    0.3482 C   0  0  1  0  0  0  0  0  0  0  0  0
   -0.6698   -0.2073   -0.6874 H   0  0  0  0  0  0  0  0  0  0  0  0
   -1.1598    0.9368    1.0631 C   0  0  0  0  0  0  0  0  0  0  0  0
   -1.5764    0.7510    2.0541 H   0  0  0  0  0  0  0  0  0  0  0  0
   -0.1915    1.4204    1.2003 H   0  0  0  0  0  0  0  0  0  0  0  0
   -2.0925    1.8828    0.3309 C   0  0  0  0  0  0  0  0  0  0  0  0
   -1.6204    2.6602   -0.7437 C   0  0  0  0  0  0  0  0  0  0  0  0
   -0.5823    2.6041   -1.0392 H   0  0  0  0  0  0  0  0  0  0  0  0
   -2.5012    3.5047   -1.4444 C   0  0  0  0  0  0  0  0  0  0  0  0
   -2.1361    4.1027   -2.2675 H   0  0  0  0  0  0  0  0  0  0  0  0
   -3.8550    3.5719   -1.0736 C   0  0  0  0  0  0  0  0  0  0  0  0
   -4.5311    4.2225   -1.6104 H   0  0  0  0  0  0  0  0  0  0  0  0
   -4.3296    2.7975    0.0007 C   0  0  0  0  0  0  0  0  0  0  0  0
   -5.3690    2.8532    0.2893 H   0  0  0  0  0  0  0  0  0  0  0  0
   -3.4484    1.9562    0.7029 C   0  0  0  0  0  0  0  0  0  0  0  0
   -3.8141    1.3635    1.5313 H   0  0  0  0  0  0  0  0  0  0  0  0
    0.1879   -1.2262    0.9882 C   0  0  0  0  0  0  0  0  0  0  0  0
    1.3510   -1.0685    0.6143 O   0  0  0  0  0  0  0  0  0  0  0  0
   -0.1451   -2.1010    1.9458 N   0  0  0  0  0  0  0  0  0  0  0  0
   -1.1249   -2.2131    2.1574 H   0  0  0  0  0  0  0  0  0  0  0  0
    0.8096   -2.9579    2.6448 C   0  0  0  0  0  0  0  0  0  0  0  0
    1.6252   -2.3524    3.0456 H   0  0  0  0  0  0  0  0  0  0  0  0
    0.3160   -3.4829    3.4631 H   0  0  0  0  0  0  0  0  0  0  0  0
    1.2270   -3.6874    1.9481 H   0  0  0  0  0  0  0  0  0  0  0  0
  5  6  2  0  0  0  0
  5  7  1  0  0  0  0
  2  3  1  0  0  0  0
  2  4  1  0  0  0  0
  2  5  1  0  0  0  0
  1  2  1  0  0  0  0
 25 26  2  0  0  0  0
 25 27  1  0  0  0  0
 23 24  1  0  0  0  0
 21 22  1  0  0  0  0
 21 23  2  0  0  0  0
 19 20  1  0  0  0  0
 19 21  1  0  0  0  0
 17 18  1  0  0  0  0
 17 19  2  0  0  0  0
 15 16  1  0  0  0  0
 15 17  1  0  0  0  0
 14 15  2  0  0  0  0
 14 23  1  0  0  0  0
 11 12  1  0  0  0  0
 11 13  1  0  0  0  0
 11 14  1  0  0  0  0
  9 10  1  0  0  0  0
  9 11  1  0  0  0  0
  9 25  1  0  0  0  0
  7  8  1  0  0  0  0
  7  9  1  0  0  0  0
 29 30  1  0  0  0  0
 29 31  1  0  0  0  0
 29 32  1  0  0  0  0
 27 28  1  0  0  0  0
 27 29  1  0  0  0  0
M  END
$$$$
default_name
  -OEChem-01062215323D

 32 32  0     1  0  0  0  0  0999 V2000
   -3.8405   -3.7518    1.6252 H   0  0  0  0  0  0  0  0  0  0  0  0
   -3.7965   -2.8768    0.9782 C   0  0  0  0  0  0  0  0  0  0  0  0
   -4.5465   -2.1527    1.2902 H   0  0  0  0  0  0  0  0  0  0  0  0
   -3.9745   -3.1748   -0.0538 H   0  0  0  0  0  0  0  0  0  0  0  0
   -2.4245   -2.2537    1.0882 C   0  0  0  0  0  0  0  0  0  0  0  0
   -1.5805   -2.7478    1.8242 O   0  0  0  0  0  0  0  0  0  0  0  0
   -2.2045   -1.1637    0.3562 N   0  0  0  0  0  0  0  0  0  0  0  0
   -2.9595   -0.7907   -0.2008 H   0  0  0  0  0  0  0  0  0  0  0  0
   -0.9485   -0.4087    0.3482 C   0  0  1  0  0  0  0  0  0  0  0  0
   -0.6698   -0.2073   -0.6874 H   0  0  0  0  0  0  0  0  0  0  0  0
   -1.1598    0.9368    1.0631 C   0  0  0  0  0  0  0  0  0  0  0  0
   -1.5764    0.7510    2.0541 H   0  0  0  0  0  0  0  0  0  0  0  0
   -0.1915    1.4204    1.2003 H   0  0  0  0  0  0  0  0  0  0  0  0
   -2.0925    1.8828    0.3309 C   0  0  0  0  0  0  0  0  0  0  0  0
   -1.6204    2.6602   -0.7437 C   0  0  0  0  0  0  0  0  0  0  0  0
   -0.5823    2.6041   -1.0392 H   0  0  0  0  0  0  0  0  0  0  0  0
   -2.5012    3.5047   -1.4444 C   0  0  0  0  0  0  0  0  0  0  0  0
   -2.1361    4.1027   -2.2675 H   0  0  0  0  0  0  0  0  0  0  0  0
   -3.8550    3.5719   -1.0736 C   0  0  0  0  0  0  0  0  0  0  0  0
   -4.5311    4.2225   -1.6104 H   0  0  0  0  0  0  0  0  0  0  0  0
   -4.3296    2.7975    0.0007 C   0  0  0  0  0  0  0  0  0  0  0  0
   -5.3690    2.8532    0.2893 H   0  0  0  0  0  0  0  0  0  0  0  0
   -3.4484    1.9562    0.7029 C   0  0  0  0  0  0  0  0  0  0  0  0
   -3.8141    1.3635    1.5313 H   0  0  0  0  0  0  0  0  0  0  0  0
    0.1879   -1.2262    0.9882 C   0  0  0  0  0  0  0  0  0  0  0  0
    1.3614   -0.8884    0.8258 O   0  0  0  0  0  0  0  0  0  0  0  0
   -0.1557   -2.3012    1.7089 N   0  0  0  0  0  0  0  0  0  0  0  0
   -1.1336   -2.5449    1.7491 H   0  0  0  0  0  0  0  0  0  0  0  0
    0.7991   -3.1859    2.3722 C   0  0  0  0  0  0  0  0  0  0  0  0
    1.4779   -2.5980    2.9935 H   0  0  0  0  0  0  0  0  0  0  0  0
    0.2728   -3.9071    2.9981 H   0  0  0  0  0  0  0  0  0  0  0  0
    1.3867   -3.7199    1.6230 H   0  0  0  0  0  0  0  0  0  0  0  0
  5  6  2  0  0  0  0
  5  7  1  0  0  0  0
  2  3  1  0  0  0  0
  2  4  1  0  0  0  0
  2  5  1  0  0  0  0
  1  2  1  0  0  0  0
 25 26  2  0  0  0  0
 25 27  1  0  0  0  0
 23 24  1  0  0  0  0
 21 22  1  0  0  0  0
 21 23  2  0  0  0  0
 19 20  1  0  0  0  0
 19 21  1  0  0  0  0
 17 18  1  0  0  0  0
 17 19  2  0  0  0  0
 15 16  1  0  0  0  0
 15 17  1  0  0  0  0
 14 15  2  0  0  0  0
 14 23  1  0  0  0  0
 11 12  1  0  0  0  0
 11 13  1  0  0  0  0
 11 14  1  0  0  0  0
  9 10  1  0  0  0  0
  9 11  1  0  0  0  0
  9 25  1  0  0  0  0
  7  8  1  0  0  0  0
  7  9  1  0  0  0  0
 29 30  1  0  0  0  0
 29 31  1  0  0  0  0
 29 32  1  0  0  0  0
 27 28  1  0  0  0  0
 27 29  1  0  0  0  0
M  END
$$$$
default_name
  -OEChem-01062215323D

 32 32  0     1  0  0  0  0  0999 V2000
   -3.8405   -3.7518    1.6252 H   0  0  0  0  0  0  0  0  0  0  0  0
   -3.7965   -2.8768    0.9782 C   0  0  0  0  0  0  0  0  0  0  0  0
   -4.5465   -2.1527    1.2902 H   0  0  0  0  0  0  0  0  0  0  0  0
   -3.9745   -3.1748   -0.0538 H   0  0  0  0  0  0  0  0  0  0  0  0
   -2.4245   -2.2537    1.0882 C   0  0  0  0  0  0  0  0  0  0  0  0
   -1.5805   -2.7478    1.8242 O   0  0  0  0  0  0  0  0  0  0  0  0
   -2.2045   -1.1637    0.3562 N   0  0  0  0  0  0  0  0  0  0  0  0
   -2.9595   -0.7907   -0.2008 H   0  0  0  0  0  0  0  0  0  0  0  0
   -0.9485   -0.4087    0.3482 C   0  0  1  0  0  0  0  0  0  0  0  0
   -0.6698   -0.2073   -0.6874 H   0  0  0  0  0  0  0  0  0  0  0  0
   -1.1598    0.9368    1.0631 C   0  0  0  0  0  0  0  0  0  0  0  0
   -1.5764    0.7510    2.0541 H   0  0  0  0  0  0  0  0  0  0  0  0
   -0.1915    1.4204    1.2003 H   0  0  0  0  0  0  0  0  0  0  0  0
   -2.0925    1.8828    0.3309 C   0  0  0  0  0  0  0  0  0  0  0  0
   -1.6204    2.6602   -0.7437 C   0  0  0  0  0  0  0  0  0  0  0  0
   -0.5823    2.6041   -1.0392 H   0  0  0  0  0  0  0  0  0  0  0  0
   -2.5012    3.5047   -1.4444 C   0  0  0  0  0  0  0  0  0  0  0  0
   -2.1361    4.1027   -2.2675 H   0  0  0  0  0  0  0  0  0  0  0  0
   -3.8550    3.5719   -1.0736 C   0  0  0  0  0  0  0  0  0  0  0  0
   -4.5311    4.2225   -1.6104 H   0  0  0  0  0  0  0  0  0  0  0  0
   -4.3296    2.7975    0.0007 C   0  0  0  0  0  0  0  0  0  0  0  0
   -5.3690    2.8532    0.2893 H   0  0  0  0  0  0  0  0  0  0  0  0
   -3.4484    1.9562    0.7029 C   0  0  0  0  0  0  0  0  0  0  0  0
   -3.8141    1.3635    1.5313 H   0  0  0  0  0  0  0  0  0  0  0  0
    0.1879   -1.2262    0.9882 C   0  0  0  0  0  0  0  0  0  0  0  0
    1.3229   -0.7538    1.0659 O   0  0  0  0  0  0  0  0  0  0  0  0
   -0.1118   -2.4504    1.4405 N   0  0  0  0  0  0  0  0  0  0  0  0
   -1.0502   -2.7884    1.2902 H   0  0  0  0  0  0  0  0  0  0  0  0
    0.8509   -3.3552    2.0639 C   0  0  0  0  0  0  0  0  0  0  0  0
    1.3692   -2.8411    2.8760 H   0  0  0  0  0  0  0  0  0  0  0  0
    0.3405   -4.2327    2.4619 H   0  0  0  0  0  0  0  0  0  0  0  0
    1.5892   -3.6720    1.3247 H   0  0  0  0  0  0  0  0  0  0  0  0
  5  6  2  0  0  0  0
  5  7  1  0  0  0  0
  2  3  1  0  0  0  0
  2  4  1  0  0  0  0
  2  5  1  0  0  0  0
  1  2  1  0  0  0  0
 25 26  2  0  0  0  0
 25 27  1  0  0  0  0
 23 24  1  0  0  0  0
 21 22  1  0  0  0  0
 21 23  2  0  0  0  0
 19 20  1  0  0  0  0
 19 21  1  0  0  0  0
 17 18  1  0  0  0  0
 17 19  2  0  0  0  0
 15 16  1  0  0  0  0
 15 17  1  0  0  0  0
 14 15  2  0  0  0  0
 14 23  1  0  0  0  0
 11 12  1  0  0  0  0
 11 13  1  0  0  0  0
 11 14  1  0  0  0  0
  9 10  1  0  0  0  0
  9 11  1  0  0  0  0
  9 25  1  0  0  0  0
  7  8  1  0  0  0  0
  7  9  1  0  0  0  0
 29 30  1  0  0  0  0
 29 31  1  0  0  0  0
 29 32  1  0  0  0  0
 27 28  1  0  0  0  0
 27 29  1  0  0  0  0
M  END
$$$$
default_name
  -OEChem-01062215323D

 32 32  0     1  0  0  0  0  0999 V2000
   -3.8405   -3.7518    1.6252 H   0  0  0  0  0  0  0  0  0  0  0  0
   -3.7965   -2.8768    0.9782 C   0  0  0  0  0  0  0  0  0  0  0  0
   -4.5465   -2.1527    1.2902 H   0  0  0  0  0  0  0  0  0  0  0  0
   -3.9745   -3.1748   -0.0538 H   0  0  0  0  0  0  0  0  0  0  0  0
   -2.4245   -2.2537    1.0882 C   0  0  0  0  0  0  0  0  0  0  0  0
   -1.5805   -2.7478    1.8242 O   0  0  0  0  0  0  0  0  0  0  0  0
   -2.2045   -1.1637    0.3562 N   0  0  0  0  0  0  0  0  0  0  0  0
   -2.9595   -0.7907   -0.2008 H   0  0  0  0  0  0  0  0  0  0  0  0
   -0.9485   -0.4087    0.3482 C   0  0  1  0  0  0  0  0  0  0  0  0
   -0.6698   -0.2073   -0.6874 H   0  0  0  0  0  0  0  0  0  0  0  0
   -1.1598    0.9368    1.0631 C   0  0  0  0  0  0  0  0  0  0  0  0
   -1.5764    0.7510    2.0541 H   0  0  0  0  0  0  0  0  0  0  0  0
   -0.1915    1.4204    1.2003 H   0  0  0  0  0  0  0  0  0  0  0  0
   -2.0925    1.8828    0.3309 C   0  0  0  0  0  0  0  0  0  0  0  0
   -1.6204    2.6602   -0.7437 C   0  0  0  0  0  0  0  0  0  0  0  0
   -0.5823    2.6041   -1.0392 H   0  0  0  0  0  0  0  0  0  0  0  0
   -2.5012    3.5047   -1.4444 C   0  0  0  0  0  0  0  0  0  0  0  0
   -2.1361    4.1027   -2.2675 H   0  0  0  0  0  0  0  0  0  0  0  0
   -3.8550    3.5719   -1.0736 C   0  0  0  0  0  0  0  0  0  0  0  0
   -4.5311    4.2225   -1.6104 H   0  0  0  0  0  0  0  0  0  0  0  0
   -4.3296    2.7975    0.0007 C   0  0  0  0  0  0  0  0  0  0  0  0
   -5.3690    2.8532    0.2893 H   0  0  0  0  0  0  0  0  0  0  0  0
   -3.4484    1.9562    0.7029 C   0  0  0  0  0  0  0  0  0  0  0  0
   -3.8141    1.3635    1.5313 H   0  0  0  0  0  0  0  0  0  0  0  0
    0.1879   -1.2262    0.9882 C   0  0  0  0  0  0  0  0  0  0  0  0
    1.2383   -0.6738    1.3183 O   0  0  0  0  0  0  0  0  0  0  0  0
   -0.0165   -2.5386    1.1587 N   0  0  0  0  0  0  0  0  0  0  0  0
   -0.8804   -2.9268    0.8118 H   0  0  0  0  0  0  0  0  0  0  0  0
    0.9616   -3.4543    1.7409 C   0  0  0  0  0  0  0  0  0  0  0  0
    1.3066   -3.0651    2.7011 H   0  0  0  0  0  0  0  0  0  0  0  0
    0.5147   -4.4375    1.8911 H   0  0  0  0  0  0  0  0  0  0  0  0
    1.8207   -3.5469    1.0735 H   0  0  0  0  0  0  0  0  0  0  0  0
  5  6  2  0  0  0  0
  5  7  1  0  0  0  0
  2  3  1  0  0  0  0
  2  4  1  0  0  0  0
  2  5  1  0  0  0  0
  1  2  1  0  0  0  0
 25 26  2  0  0  0  0
 25 27  1  0  0  0  0
 23 24  1  0  0  0  0
 21 22  1  0  0  0  0
 21 23  2  0  0  0  0
 19 20  1  0  0  0  0
 19 21  1  0  0  0  0
 17 18  1  0  0  0  0
 17 19  2  0  0  0  0
 15 16  1  0  0  0  0
 15 17  1  0  0  0  0
 14 15  2  0  0  0  0
 14 23  1  0  0  0  0
 11 12  1  0  0  0  0
 11 13  1  0  0  0  0
 11 14  1  0  0  0  0
  9 10  1  0  0  0  0
  9 11  1  0  0  0  0
  9 25  1  0  0  0  0
  7  8  1  0  0  0  0
  7  9  1  0  0  0  0
 29 30  1  0  0  0  0
 29 31  1  0  0  0  0
 29 32  1  0  0  0  0
 27 28  1  0  0  0  0
 27 29  1  0  0  0  0
M  END
$$$$
default_name
  -OEChem-01062215323D

 32 32  0     1  0  0  0  0  0999 V2000
   -3.8405   -3.7518    1.6252 H   0  0  0  0  0  0  0  0  0  0  0  0
   -3.7965   -2.8768    0.9782 C   0  0  0  0  0  0  0  0  0  0  0  0
   -4.5465   -2.1527    1.2902 H   0  0  0  0  0  0  0  0  0  0  0  0
   -3.9745   -3.1748   -0.0538 H   0  0  0  0  0  0  0  0  0  0  0  0
   -2.4245   -2.2537    1.0882 C   0  0  0  0  0  0  0  0  0  0  0  0
   -1.5805   -2.7478    1.8242 O   0  0  0  0  0  0  0  0  0  0  0  0
   -2.2045   -1.1637    0.3562 N   0  0  0  0  0  0  0  0  0  0  0  0
   -2.9595   -0.7907   -0.2008 H   0  0  0  0  0  0  0  0  0  0  0  0
   -0.9485   -0.4087    0.3482 C   0  0  1  0  0  0  0  0  0  0  0  0
   -0.6698   -0.2073   -0.6874 H   0  0  0  0  0  0  0  0  0  0  0  0
   -1.1598    0.9368    1.0631 C   0  0  0  0  0  0  0  0  0  0  0  0
   -1.5764    0.7510    2.0541 H   0  0  0  0  0  0  0  0  0  0  0  0
   -0.1915    1.4204    1.2003 H   0  0  0  0  0  0  0  0  0  0  0  0
   -2.0925    1.8828    0.3309 C   0  0  0  0  0  0  0  0  0  0  0  0
   -1.6204    2.6602   -0.7437 C   0  0  0  0  0  0  0  0  0  0  0  0
   -0.5823    2.6041   -1.0392 H   0  0  0  0  0  0  0  0  0  0  0  0
   -2.5012    3.5047   -1.4444 C   0  0  0  0  0  0  0  0  0  0  0  0
   -2.1361    4.1027   -2.2675 H   0  0  0  0  0  0  0  0  0  0  0  0
   -3.8550    3.5719   -1.0736 C   0  0  0  0  0  0  0  0  0  0  0  0
   -4.5311    4.2225   -1.6104 H   0  0  0  0  0  0  0  0  0  0  0  0
   -4.3296    2.7975    0.0007 C   0  0  0  0  0  0  0  0  0  0  0  0
   -5.3690    2.8532    0.2893 H   0  0  0  0  0  0  0  0  0  0  0  0
   -3.4484    1.9562    0.7029 C   0  0  0  0  0  0  0  0  0  0  0  0
   -3.8141    1.3635    1.5313 H   0  0  0  0  0  0  0  0  0  0  0  0
    0.1879   -1.2262    0.9882 C   0  0  0  0  0  0  0  0  0  0  0  0
    1.1133   -0.6539    1.5658 O   0  0  0  0  0  0  0  0  0  0  0  0
    0.1238   -2.5596    0.8827 N   0  0  0  0  0  0  0  0  0  0  0  0
   -0.6357   -2.9509    0.3466 H   0  0  0  0  0  0  0  0  0  0  0  0
    1.1236   -3.4764    1.4251 C   0  0  0  0  0  0  0  0  0  0  0  0
    1.2942   -3.2549    2.4807 H   0  0  0  0  0  0  0  0  0  0  0  0
    0.7835   -4.5074    1.3245 H   0  0  0  0  0  0  0  0  0  0  0  0
    2.0653   -3.3531    0.8867 H   0  0  0  0  0  0  0  0  0  0  0  0
  5  6  2  0  0  0  0
  5  7  1  0  0  0  0
  2  3  1  0  0  0  0
  2  4  1  0  0  0  0
  2  5  1  0  0  0  0
  1  2  1  0  0  0  0
 25 26  2  0  0  0  0
 25 27  1  0  0  0  0
 23 24  1  0  0  0  0
 21 22  1  0  0  0  0
 21 23  2  0  0  0  0
 19 20  1  0  0  0  0
 19 21  1  0  0  0  0
 17 18  1  0  0  0  0
 17 19  2  0  0  0  0
 15 16  1  0  0  0  0
 15 17  1  0  0  0  0
 14 15  2  0  0  0  0
 14 23  1  0  0  0  0
 11 12  1  0  0  0  0
 11 13  1  0  0  0  0
 11 14  1  0  0  0  0
  9 10  1  0  0  0  0
  9 11  1  0  0  0  0
  9 25  1  0  0  0  0
  7  8  1  0  0  0  0
  7  9  1  0  0  0  0
 29 30  1  0  0  0  0
 29 31  1  0  0  0  0
 29 32  1  0  0  0  0
 27 28  1  0  0  0  0
 27 29  1  0  0  0  0
M  END
$$$$
default_name
  -OEChem-01062215323D

 32 32  0     1  0  0  0  0  0999 V2000
   -3.8405   -3.7518    1.6252 H   0  0  0  0  0  0  0  0  0  0  0  0
   -3.7965   -2.8768    0.9782 C   0  0  0  0  0  0  0  0  0  0  0  0
   -4.5465   -2.1527    1.2902 H   0  0  0  0  0  0  0  0  0  0  0  0
   -3.9745   -3.1748   -0.0538 H   0  0  0  0  0  0  0  0  0  0  0  0
   -2.4245   -2.2537    1.0882 C   0  0  0  0  0  0  0  0  0  0  0  0
   -1.5805   -2.7478    1.8242 O   0  0  0  0  0  0  0  0  0  0  0  0
   -2.2045   -1.1637    0.3562 N   0  0  0  0  0  0  0  0  0  0  0  0
   -2.9595   -0.7907   -0.2008 H   0  0  0  0  0  0  0  0  0  0  0  0
   -0.9485   -0.4087    0.3482 C   0  0  1  0  0  0  0  0  0  0  0  0
   -0.6698   -0.2073   -0.6874 H   0  0  0  0  0  0  0  0  0  0  0  0
   -1.1598    0.9368    1.0631 C   0  0  0  0  0  0  0  0  0  0  0  0
   -1.5764    0.7510    2.0541 H   0  0  0  0  0  0  0  0  0  0  0  0
   -0.1915    1.4204    1.2003 H   0  0  0  0  0  0  0  0  0  0  0  0
   -2.0925    1.8828    0.3309 C   0  0  0  0  0  0  0  0  0  0  0  0
   -1.6204    2.6602   -0.7437 C   0  0  0  0  0  0  0  0  0  0  0  0
   -0.5823    2.6041   -1.0392 H   0  0  0  0  0  0  0  0  0  0  0  0
   -2.5012    3.5047   -1.4444 C   0  0  0  0  0  0  0  0  0  0  0  0
   -2.1361    4.1027   -2.2675 H   0  0  0  0  0  0  0  0  0  0  0  0
   -3.8550    3.5719   -1.0736 C   0  0  0  0  0  0  0  0  0  0  0  0
   -4.5311    4.2225   -1.6104 H   0  0  0  0  0  0  0  0  0  0  0  0
   -4.3296    2.7975    0.0007 C   0  0  0  0  0  0  0  0  0  0  0  0
   -5.3690    2.8532    0.2893 H   0  0  0  0  0  0  0  0  0  0  0  0
   -3.4484    1.9562    0.7029 C   0  0  0  0  0  0  0  0  0  0  0  0
   -3.8141    1.3635    1.5313 H   0  0  0  0  0  0  0  0  0  0  0  0
    0.1879   -1.2262    0.9882 C   0  0  0  0  0  0  0  0  0  0  0  0
    0.9564   -0.6954    1.7915 O   0  0  0  0  0  0  0  0  0  0  0  0
    0.2995   -2.5121    0.6315 N   0  0  0  0  0  0  0  0  0  0  0  0
   -0.3328   -2.8589   -0.0737 H   0  0  0  0  0  0  0  0  0  0  0  0
    1.3258   -3.4199    1.1381 C   0  0  0  0  0  0  0  0  0  0  0  0
    1.3329   -3.3974    2.2299 H   0  0  0  0  0  0  0  0  0  0  0  0
    1.1285   -4.4378    0.8009 H   0  0  0  0  0  0  0  0  0  0  0  0
    2.3064   -3.1040    0.7768 H   0  0  0  0  0  0  0  0  0  0  0  0
  5  6  2  0  0  0  0
  5  7  1  0  0  0  0
  2  3  1  0  0  0  0
  2  4  1  0  0  0  0
  2  5  1  0  0  0  0
  1  2  1  0  0  0  0
 25 26  2  0  0  0  0
 25 27  1  0  0  0  0
 23 24  1  0  0  0  0
 21 22  1  0  0  0  0
 21 23  2  0  0  0  0
 19 20  1  0  0  0  0
 19 21  1  0  0  0  0
 17 18  1  0  0  0  0
 17 19  2  0  0  0  0
 15 16  1  0  0  0  0
 15 17  1  0  0  0  0
 14 15  2  0  0  0  0
 14 23  1  0  0  0  0
 11 12  1  0  0  0  0
 11 13  1  0  0  0  0
 11 14  1  0  0  0  0
  9 10  1  0  0  0  0
  9 11  1  0  0  0  0
  9 25  1  0  0  0  0
  7  8  1  0  0  0  0
  7  9  1  0  0  0  0
 29 30  1  0  0  0  0
 29 31  1  0  0  0  0
 29 32  1  0  0  0  0
 27 28  1  0  0  0  0
 27 29  1  0  0  0  0
M  END
$$$$
default_name
  -OEChem-01062215323D

 32 32  0     1  0  0  0  0  0999 V2000
   -3.8405   -3.7518    1.6252 H   0  0  0  0  0  0  0  0  0  0  0  0
   -3.7965   -2.8768    0.9782 C   0  0  0  0  0  0  0  0  0  0  0  0
   -4.5465   -2.1527    1.2902 H   0  0  0  0  0  0  0  0  0  0  0  0
   -3.9745   -3.1748   -0.0538 H   0  0  0  0  0  0  0  0  0  0  0  0
   -2.4245   -2.2537    1.0882 C   0  0  0  0  0  0  0  0  0  0  0  0
   -1.5805   -2.7478    1.8242 O   0  0  0  0  0  0  0  0  0  0  0  0
   -2.2045   -1.1637    0.3562 N   0  0  0  0  0  0  0  0  0  0  0  0
   -2.9595   -0.7907   -0.2008 H   0  0  0  0  0  0  0  0  0  0  0  0
   -0.9485   -0.4087    0.3482 C   0  0  1  0  0  0  0  0  0  0  0  0
   -0.6698   -0.2073   -0.6874 H   0  0  0  0  0  0  0  0  0  0  0  0
   -1.1598    0.9368    1.0631 C   0  0  0  0  0  0  0  0  0  0  0  0
   -1.5764    0.7510    2.0541 H   0  0  0  0  0  0  0  0  0  0  0  0
   -0.1915    1.4204    1.2003 H   0  0  0  0  0  0  0  0  0  0  0  0
   -2.0925    1.8828    0.3309 C   0  0  0  0  0  0  0  0  0  0  0  0
   -1.6204    2.6602   -0.7437 C   0  0  0  0  0  0  0  0  0  0  0  0
   -0.5823    2.6041   -1.0392 H   0  0  0  0  0  0  0  0  0  0  0  0
   -2.5012    3.5047   -1.4444 C   0  0  0  0  0  0  0  0  0  0  0  0
   -2.1361    4.1027   -2.2675 H   0  0  0  0  0  0  0  0  0  0  0  0
   -3.8550    3.5719   -1.0736 C   0  0  0  0  0  0  0  0  0  0  0  0
   -4.5311    4.2225   -1.6104 H   0  0  0  0  0  0  0  0  0  0  0  0
   -4.3296    2.7975    0.0007 C   0  0  0  0  0  0  0  0  0  0  0  0
   -5.3690    2.8532    0.2893 H   0  0  0  0  0  0  0  0  0  0  0  0
   -3.4484    1.9562    0.7029 C   0  0  0  0  0  0  0  0  0  0  0  0
   -3.8141    1.3635    1.5313 H   0  0  0  0  0  0  0  0  0  0  0  0
    0.1879   -1.2262    0.9882 C   0  0  0  0  0  0  0  0  0  0  0  0
    0.7782   -0.7955    1.9799 O   0  0  0  0  0  0  0  0  0  0  0  0
    0.4986   -2.3992    0.4220 N   0  0  0  0  0  0  0  0  0  0  0  0
    0.0077   -2.6571   -0.4205 H   0  0  0  0  0  0  0  0  0  0  0  0
    1.5545   -3.2887    0.8996 C   0  0  0  0  0  0  0  0  0  0  0  0
    1.4201   -3.4830    1.9657 H   0  0  0  0  0  0  0  0  0  0  0  0
    1.5263   -4.2334    0.3558 H   0  0  0  0  0  0  0  0  0  0  0  0
    2.5276   -2.8164    0.7514 H   0  0  0  0  0  0  0  0  0  0  0  0
  5  6  2  0  0  0  0
  5  7  1  0  0  0  0
  2  3  1  0  0  0  0
  2  4  1  0  0  0  0
  2  5  1  0  0  0  0
  1  2  1  0  0  0  0
 25 26  2  0  0  0  0
 25 27  1  0  0  0  0
 23 24  1  0  0  0  0
 21 22  1  0  0  0  0
 21 23  2  0  0  0  0
 19 20  1  0  0  0  0
 19 21  1  0  0  0  0
 17 18  1  0  0  0  0
 17 19  2  0  0  0  0
 15 16  1  0  0  0  0
 15 17  1  0  0  0  0
 14 15  2  0  0  0  0
 14 23  1  0  0  0  0
 11 12  1  0  0  0  0
 11 13  1  0  0  0  0
 11 14  1  0  0  0  0
  9 10  1  0  0  0  0
  9 11  1  0  0  0  0
  9 25  1  0  0  0  0
  7  8  1  0  0  0  0
  7  9  1  0  0  0  0
 29 30  1  0  0  0  0
 29 31  1  0  0  0  0
 29 32  1  0  0  0  0
 27 28  1  0  0  0  0
 27 29  1  0  0  0  0
M  END
$$$$
default_name
  -OEChem-01062215323D

 32 32  0     1  0  0  0  0  0999 V2000
   -3.8405   -3.7518    1.6252 H   0  0  0  0  0  0  0  0  0  0  0  0
   -3.7965   -2.8768    0.9782 C   0  0  0  0  0  0  0  0  0  0  0  0
   -4.5465   -2.1527    1.2902 H   0  0  0  0  0  0  0  0  0  0  0  0
   -3.9745   -3.1748   -0.0538 H   0  0  0  0  0  0  0  0  0  0  0  0
   -2.4245   -2.2537    1.0882 C   0  0  0  0  0  0  0  0  0  0  0  0
   -1.5805   -2.7478    1.8242 O   0  0  0  0  0  0  0  0  0  0  0  0
   -2.2045   -1.1637    0.3562 N   0  0  0  0  0  0  0  0  0  0  0  0
   -2.9595   -0.7907   -0.2008 H   0  0  0  0  0  0  0  0  0  0  0  0
   -0.9485   -0.4087    0.3482 C   0  0  1  0  0  0  0  0  0  0  0  0
   -0.6698   -0.2073   -0.6874 H   0  0  0  0  0  0  0  0  0  0  0  0
   -1.1598    0.9368    1.0631 C   0  0  0  0  0  0  0  0  0  0  0  0
   -1.5764    0.7510    2.0541 H   0  0  0  0  0  0  0  0  0  0  0  0
   -0.1915    1.4204    1.2003 H   0  0  0  0  0  0  0  0  0  0  0  0
   -2.0925    1.8828    0.3309 C   0  0  0  0  0  0  0  0  0  0  0  0
   -1.6204    2.6602   -0.7437 C   0  0  0  0  0  0  0  0  0  0  0  0
   -0.5823    2.6041   -1.0392 H   0  0  0  0  0  0  0  0  0  0  0  0
   -2.5012    3.5047   -1.4444 C   0  0  0  0  0  0  0  0  0  0  0  0
   -2.1361    4.1027   -2.2675 H   0  0  0  0  0  0  0  0  0  0  0  0
   -3.8550    3.5719   -1.0736 C   0  0  0  0  0  0  0  0  0  0  0  0
   -4.5311    4.2225   -1.6104 H   0  0  0  0  0  0  0  0  0  0  0  0
   -4.3296    2.7975    0.0007 C   0  0  0  0  0  0  0  0  0  0  0  0
   -5.3690    2.8532    0.2893 H   0  0  0  0  0  0  0  0  0  0  0  0
   -3.4484    1.9562    0.7029 C   0  0  0  0  0  0  0  0  0  0  0  0
   -3.8141    1.3635    1.5313 H   0  0  0  0  0  0  0  0  0  0  0  0
    0.1879   -1.2262    0.9882 C   0  0  0  0  0  0  0  0  0  0  0  0
    0.5910   -0.9473    2.1183 O   0  0  0  0  0  0  0  0  0  0  0  0
    0.7076   -2.2288    0.2686 N   0  0  0  0  0  0  0  0  0  0  0  0
    0.3625   -2.3593   -0.6701 H   0  0  0  0  0  0  0  0  0  0  0  0
    1.7941   -3.0918    0.7256 C   0  0  0  0  0  0  0  0  0  0  0  0
    1.5499   -3.5058    1.7062 H   0  0  0  0  0  0  0  0  0  0  0  0
    1.9497   -3.9080    0.0195 H   0  0  0  0  0  0  0  0  0  0  0  0
    2.7137   -2.5099    0.8123 H   0  0  0  0  0  0  0  0  0  0  0  0
  5  6  2  0  0  0  0
  5  7  1  0  0  0  0
  2  3  1  0  0  0  0
  2  4  1  0  0  0  0
  2  5  1  0  0  0  0
  1  2  1  0  0  0  0
 25 26  2  0  0  0  0
 25 27  1  0  0  0  0
 23 24  1  0  0  0  0
 21 22  1  0  0  0  0
 21 23  2  0  0  0  0
 19 20  1  0  0  0  0
 19 21  1  0  0  0  0
 17 18  1  0  0  0  0
 17 19  2  0  0  0  0
 15 16  1  0  0  0  0
 15 17  1  0  0  0  0
 14 15  2  0  0  0  0
 14 23  1  0  0  0  0
 11 12  1  0  0  0  0
 11 13  1  0  0  0  0
 11 14  1  0  0  0  0
  9 10  1  0  0  0  0
  9 11  1  0  0  0  0
  9 25  1  0  0  0  0
  7  8  1  0  0  0  0
  7  9  1  0  0  0  0
 29 30  1  0  0  0  0
 29 31  1  0  0  0  0
 29 32  1  0  0  0  0
 27 28  1  0  0  0  0
 27 29  1  0  0  0  0
M  END
$$$$
default_name
  -OEChem-01062215323D

 32 32  0     1  0  0  0  0  0999 V2000
   -3.8405   -3.7518    1.6252 H   0  0  0  0  0  0  0  0  0  0  0  0
   -3.7965   -2.8768    0.9782 C   0  0  0  0  0  0  0  0  0  0  0  0
   -4.5465   -2.1527    1.2902 H   0  0  0  0  0  0  0  0  0  0  0  0
   -3.9745   -3.1748   -0.0538 H   0  0  0  0  0  0  0  0  0  0  0  0
   -2.4245   -2.2537    1.0882 C   0  0  0  0  0  0  0  0  0  0  0  0
   -1.5805   -2.7478    1.8242 O   0  0  0  0  0  0  0  0  0  0  0  0
   -2.2045   -1.1637    0.3562 N   0  0  0  0  0  0  0  0  0  0  0  0
   -2.9595   -0.7907   -0.2008 H   0  0  0  0  0  0  0  0  0  0  0  0
   -0.9485   -0.4087    0.3482 C   0  0  1  0  0  0  0  0  0  0  0  0
   -0.6698   -0.2073   -0.6874 H   0  0  0  0  0  0  0  0  0  0  0  0
   -1.1598    0.9368    1.0631 C   0  0  0  0  0  0  0  0  0  0  0  0
   -1.5764    0.7510    2.0541 H   0  0  0  0  0  0  0  0  0  0  0  0
   -0.1915    1.4204    1.2003 H   0  0  0  0  0  0  0  0  0  0  0  0
   -2.0925    1.8828    0.3309 C   0  0  0  0  0  0  0  0  0  0  0  0
   -1.6204    2.6602   -0.7437 C   0  0  0  0  0  0  0  0  0  0  0  0
   -0.5823    2.6041   -1.0392 H   0  0  0  0  0  0  0  0  0  0  0  0
   -2.5012    3.5047   -1.4444 C   0  0  0  0  0  0  0  0  0  0  0  0
   -2.1361    4.1027   -2.2675 H   0  0  0  0  0  0  0  0  0  0  0  0
   -3.8550    3.5719   -1.0736 C   0  0  0  0  0  0  0  0  0  0  0  0
   -4.5311    4.2225   -1.6104 H   0  0  0  0  0  0  0  0  0  0  0  0
   -4.3296    2.7975    0.0007 C   0  0  0  0  0  0  0  0  0  0  0  0
   -5.3690    2.8532    0.2893 H   0  0  0  0  0  0  0  0  0  0  0  0
   -3.4484    1.9562    0.7029 C   0  0  0  0  0  0  0  0  0  0  0  0
   -3.8141    1.3635    1.5313 H   0  0  0  0  0  0  0  0  0  0  0  0
    0.1879   -1.2262    0.9882 C   0  0  0  0  0  0  0  0  0  0  0  0
    0.4075   -1.1406    2.1973 O   0  0  0  0  0  0  0  0  0  0  0  0
    0.9122   -2.0124    0.1817 N   0  0  0  0  0  0  0  0  0  0  0  0
    0.7074   -1.9858   -0.8056 H   0  0  0  0  0  0  0  0  0  0  0  0
    2.0283   -2.8427    0.6281 C   0  0  0  0  0  0  0  0  0  0  0  0
    1.7134   -3.4642    1.4690 H   0  0  0  0  0  0  0  0  0  0  0  0
    2.3698   -3.4840   -0.1848 H   0  0  0  0  0  0  0  0  0  0  0  0
    2.8522   -2.2055    0.9552 H   0  0  0  0  0  0  0  0  0  0  0  0
  5  6  2  0  0  0  0
  5  7  1  0  0  0  0
  2  3  1  0  0  0  0
  2  4  1  0  0  0  0
  2  5  1  0  0  0  0
  1  2  1  0  0  0  0
 25 26  2  0  0  0  0
 25 27  1  0  0  0  0
 23 24  1  0  0  0  0
 21 22  1  0  0  0  0
 21 23  2  0  0  0  0
 19 20  1  0  0  0  0
 19 21  1  0  0  0  0
 17 18  1  0  0  0  0
 17 19  2  0  0  0  0
 15 16  1  0  0  0  0
 15 17  1  0  0  0  0
 14 15  2  0  0  0  0
 14 23  1  0  0  0  0
 11 12  1  0  0  0  0
 11 13  1  0  0  0  0
 11 14  1  0  0  0  0
  9 10  1  0  0  0  0
  9 11  1  0  0  0  0
  9 25  1  0  0  0  0
  7  8  1  0  0  0  0
  7  9  1  0  0  0  0
 29 30  1  0  0  0  0
 29 31  1  0  0  0  0
 29 32  1  0  0  0  0
 27 28  1  0  0  0  0
 27 29  1  0  0  0  0
M  END
$$$$
default_name
  -OEChem-01062215323D

 32 32  0     1  0  0  0  0  0999 V2000
   -3.8405   -3.7518    1.6252 H   0  0  0  0  0  0  0  0  0  0  0  0
   -3.7965   -2.8768    0.9782 C   0  0  0  0  0  0  0  0  0  0  0  0
   -4.5465   -2.1527    1.2902 H   0  0  0  0  0  0  0  0  0  0  0  0
   -3.9745   -3.1748   -0.0538 H   0  0  0  0  0  0  0  0  0  0  0  0
   -2.4245   -2.2537    1.0882 C   0  0  0  0  0  0  0  0  0  0  0  0
   -1.5805   -2.7478    1.8242 O   0  0  0  0  0  0  0  0  0  0  0  0
   -2.2045   -1.1637    0.3562 N   0  0  0  0  0  0  0  0  0  0  0  0
   -2.9595   -0.7907   -0.2008 H   0  0  0  0  0  0  0  0  0  0  0  0
   -0.9485   -0.4087    0.3482 C   0  0  1  0  0  0  0  0  0  0  0  0
   -0.6698   -0.2073   -0.6874 H   0  0  0  0  0  0  0  0  0  0  0  0
   -1.1598    0.9368    1.0631 C   0  0  0  0  0  0  0  0  0  0  0  0
   -1.5764    0.7510    2.0541 H   0  0  0  0  0  0  0  0  0  0  0  0
   -0.1915    1.4204    1.2003 H   0  0  0  0  0  0  0  0  0  0  0  0
   -2.0925    1.8828    0.3309 C   0  0  0  0  0  0  0  0  0  0  0  0
   -1.6204    2.6602   -0.7437 C   0  0  0  0  0  0  0  0  0  0  0  0
   -0.5823    2.6041   -1.0392 H   0  0  0  0  0  0  0  0  0  0  0  0
   -2.5012    3.5047   -1.4444 C   0  0  0  0  0  0  0  0  0  0  0  0
   -2.1361    4.1027   -2.2675 H   0  0  0  0  0  0  0  0  0  0  0  0
   -3.8550    3.5719   -1.0736 C   0  0  0  0  0  0  0  0  0  0  0  0
   -4.5311    4.2225   -1.6104 H   0  0  0  0  0  0  0  0  0  0  0  0
   -4.3296    2.7975    0.0007 C   0  0  0  0  0  0  0  0  0  0  0  0
   -5.3690    2.8532    0.2893 H   0  0  0  0  0  0  0  0  0  0  0  0
   -3.4484    1.9562    0.7029 C   0  0  0  0  0  0  0  0  0  0  0  0
   -3.8141    1.3635    1.5313 H   0  0  0  0  0  0  0  0  0  0  0  0
    0.1879   -1.2262    0.9882 C   0  0  0  0  0  0  0  0  0  0  0  0
    0.2402   -1.3621    2.2114 O   0  0  0  0  0  0  0  0  0  0  0  0
    1.0985   -1.7647    0.1673 N   0  0  0  0  0  0  0  0  0  0  0  0
    1.0191   -1.5620   -0.8176 H   0  0  0  0  0  0  0  0  0  0  0  0
    2.2410   -2.5581    0.6138 C   0  0  0  0  0  0  0  0  0  0  0  0
    1.8995   -3.3612    1.2703 H   0  0  0  0  0  0  0  0  0  0  0  0
    2.7581   -2.9901   -0.2435 H   0  0  0  0  0  0  0  0  0  0  0  0
    2.9336   -1.9238    1.1705 H   0  0  0  0  0  0  0  0  0  0  0  0
  5  6  2  0  0  0  0
  5  7  1  0  0  0  0
  2  3  1  0  0  0  0
  2  4  1  0  0  0  0
  2  5  1  0  0  0  0
  1  2  1  0  0  0  0
 25 26  2  0  0  0  0
 25 27  1  0  0  0  0
 23 24  1  0  0  0  0
 21 22  1  0  0  0  0
 21 23  2  0  0  0  0
 19 20  1  0  0  0  0
 19 21  1  0  0  0  0
 17 18  1  0  0  0  0
 17 19  2  0  0  0  0
 15 16  1  0  0  0  0
 15 17  1  0  0  0  0
 14 15  2  0  0  0  0
 14 23  1  0  0  0  0
 11 12  1  0  0  0  0
 11 13  1  0  0  0  0
 11 14  1  0  0  0  0
  9 10  1  0  0  0  0
  9 11  1  0  0  0  0
  9 25  1  0  0  0  0
  7  8  1  0  0  0  0
  7  9  1  0  0  0  0
 29 30  1  0  0  0  0
 29 31  1  0  0  0  0
 29 32  1  0  0  0  0
 27 28  1  0  0  0  0
 27 29  1  0  0  0  0
M  END
$$$$
default_name
  -OEChem-01062215323D

 32 32  0     1  0  0  0  0  0999 V2000
   -3.8405   -3.7518    1.6252 H   0  0  0  0  0  0  0  0  0  0  0  0
   -3.7965   -2.8768    0.9782 C   0  0  0  0  0  0  0  0  0  0  0  0
   -4.5465   -2.1527    1.2902 H   0  0  0  0  0  0  0  0  0  0  0  0
   -3.9745   -3.1748   -0.0538 H   0  0  0  0  0  0  0  0  0  0  0  0
   -2.4245   -2.2537    1.0882 C   0  0  0  0  0  0  0  0  0  0  0  0
   -1.5805   -2.7478    1.8242 O   0  0  0  0  0  0  0  0  0  0  0  0
   -2.2045   -1.1637    0.3562 N   0  0  0  0  0  0  0  0  0  0  0  0
   -2.9595   -0.7907   -0.2008 H   0  0  0  0  0  0  0  0  0  0  0  0
   -0.9485   -0.4087    0.3482 C   0  0  1  0  0  0  0  0  0  0  0  0
   -0.6698   -0.2073   -0.6874 H   0  0  0  0  0  0  0  0  0  0  0  0
   -1.1598    0.9368    1.0631 C   0  0  0  0  0  0  0  0  0  0  0  0
   -1.5764    0.7510    2.0541 H   0  0  0  0  0  0  0  0  0  0  0  0
   -0.1915    1.4204    1.2003 H   0  0  0  0  0  0  0  0  0  0  0  0
   -2.0925    1.8828    0.3309 C   0  0  0  0  0  0  0  0  0  0  0  0
   -1.6204    2.6602   -0.7437 C   0  0  0  0  0  0  0  0  0  0  0  0
   -0.5823    2.6041   -1.0392 H   0  0  0  0  0  0  0  0  0  0  0  0
   -2.5012    3.5047   -1.4444 C   0  0  0  0  0  0  0  0  0  0  0  0
   -2.1361    4.1027   -2.2675 H   0  0  0  0  0  0  0  0  0  0  0  0
   -3.8550    3.5719   -1.0736 C   0  0  0  0  0  0  0  0  0  0  0  0
   -4.5311    4.2225   -1.6104 H   0  0  0  0  0  0  0  0  0  0  0  0
   -4.3296    2.7975    0.0007 C   0  0  0  0  0  0  0  0  0  0  0  0
   -5.3690    2.8532    0.2893 H   0  0  0  0  0  0  0  0  0  0  0  0
   -3.4484    1.9562    0.7029 C   0  0  0  0  0  0  0  0  0  0  0  0
   -3.8141    1.3635    1.5313 H   0  0  0  0  0  0  0  0  0  0  0  0
    0.1879   -1.2262    0.9882 C   0  0  0  0  0  0  0  0  0  0  0  0
    0.1005   -1.5968    2.1598 O   0  0  0  0  0  0  0  0  0  0  0  0
    1.2538   -1.5026    0.2262 N   0  0  0  0  0  0  0  0  0  0  0  0
    1.2761   -1.1168   -0.7054 H   0  0  0  0  0  0  0  0  0  0  0  0
    2.4179   -2.2576    0.6835 C   0  0  0  0  0  0  0  0  0  0  0  0
    2.0954   -3.2036    1.1236 H   0  0  0  0  0  0  0  0  0  0  0  0
    3.0880   -2.4601   -0.1524 H   0  0  0  0  0  0  0  0  0  0  0  0
    2.9523   -1.6841    1.4434 H   0  0  0  0  0  0  0  0  0  0  0  0
  5  6  2  0  0  0  0
  5  7  1  0  0  0  0
  2  3  1  0  0  0  0
  2  4  1  0  0  0  0
  2  5  1  0  0  0  0
  1  2  1  0  0  0  0
 25 26  2  0  0  0  0
 25 27  1  0  0  0  0
 23 24  1  0  0  0  0
 21 22  1  0  0  0  0
 21 23  2  0  0  0  0
 19 20  1  0  0  0  0
 19 21  1  0  0  0  0
 17 18  1  0  0  0  0
 17 19  2  0  0  0  0
 15 16  1  0  0  0  0
 15 17  1  0  0  0  0
 14 15  2  0  0  0  0
 14 23  1  0  0  0  0
 11 12  1  0  0  0  0
 11 13  1  0  0  0  0
 11 14  1  0  0  0  0
  9 10  1  0  0  0  0
  9 11  1  0  0  0  0
  9 25  1  0  0  0  0
  7  8  1  0  0  0  0
  7  9  1  0  0  0  0
 29 30  1  0  0  0  0
 29 31  1  0  0  0  0
 29 32  1  0  0  0  0
 27 28  1  0  0  0  0
 27 29  1  0  0  0  0
M  END
$$$$
default_name
  -OEChem-01062215323D

 32 32  0     1  0  0  0  0  0999 V2000
   -3.8405   -3.7518    1.6252 H   0  0  0  0  0  0  0  0  0  0  0  0
   -3.7965   -2.8768    0.9782 C   0  0  0  0  0  0  0  0  0  0  0  0
   -4.5465   -2.1527    1.2902 H   0  0  0  0  0  0  0  0  0  0  0  0
   -3.9745   -3.1748   -0.0538 H   0  0  0  0  0  0  0  0  0  0  0  0
   -2.4245   -2.2537    1.0882 C   0  0  0  0  0  0  0  0  0  0  0  0
   -1.5805   -2.7478    1.8242 O   0  0  0  0  0  0  0  0  0  0  0  0
   -2.2045   -1.1637    0.3562 N   0  0  0  0  0  0  0  0  0  0  0  0
   -2.9595   -0.7907   -0.2008 H   0  0  0  0  0  0  0  0  0  0  0  0
   -0.9485   -0.4087    0.3482 C   0  0  1  0  0  0  0  0  0  0  0  0
   -0.6698   -0.2073   -0.6874 H   0  0  0  0  0  0  0  0  0  0  0  0
   -1.1598    0.9368    1.0631 C   0  0  0  0  0  0  0  0  0  0  0  0
   -1.5764    0.7510    2.0541 H   0  0  0  0  0  0  0  0  0  0  0  0
   -0.1915    1.4204    1.2003 H   0  0  0  0  0  0  0  0  0  0  0  0
   -2.0925    1.8828    0.3309 C   0  0  0  0  0  0  0  0  0  0  0  0
   -1.6204    2.6602   -0.7437 C   0  0  0  0  0  0  0  0  0  0  0  0
   -0.5823    2.6041   -1.0392 H   0  0  0  0  0  0  0  0  0  0  0  0
   -2.5012    3.5047   -1.4444 C   0  0  0  0  0  0  0  0  0  0  0  0
   -2.1361    4.1027   -2.2675 H   0  0  0  0  0  0  0  0  0  0  0  0
   -3.8550    3.5719   -1.0736 C   0  0  0  0  0  0  0  0  0  0  0  0
   -4.5311    4.2225   -1.6104 H   0  0  0  0  0  0  0  0  0  0  0  0
   -4.3296    2.7975    0.0007 C   0  0  0  0  0  0  0  0  0  0  0  0
   -5.3690    2.8532    0.2893 H   0  0  0  0  0  0  0  0  0  0  0  0
   -3.4484    1.9562    0.7029 C   0  0  0  0  0  0  0  0  0  0  0  0
   -3.8141    1.3635    1.5313 H   0  0  0  0  0  0  0  0  0  0  0  0
    0.1879   -1.2262    0.9882 C   0  0  0  0  0  0  0  0  0  0  0  0
   -0.0021   -1.8287    2.0458 O   0  0  0  0  0  0  0  0  0  0  0  0
    1.3675   -1.2441    0.3546 N   0  0  0  0  0  0  0  0  0  0  0  0
    1.4611   -0.6805   -0.4766 H   0  0  0  0  0  0  0  0  0  0  0  0
    2.5468   -1.9617    0.8326 C   0  0  0  0  0  0  0  0  0  0  0  0
    2.2879   -3.0023    1.0390 H   0  0  0  0  0  0  0  0  0  0  0  0
    3.3372   -1.9300    0.0822 H   0  0  0  0  0  0  0  0  0  0  0  0
    2.9070   -1.5028    1.7554 H   0  0  0  0  0  0  0  0  0  0  0  0
  5  6  2  0  0  0  0
  5  7  1  0  0  0  0
  2  3  1  0  0  0  0
  2  4  1  0  0  0  0
  2  5  1  0  0  0  0
  1  2  1  0  0  0  0
 25 26  2  0  0  0  0
 25 27  1  0  0  0  0
 23 24  1  0  0  0  0
 21 22  1  0  0  0  0
 21 23  2  0  0  0  0
 19 20  1  0  0  0  0
 19 21  1  0  0  0  0
 17 18  1  0  0  0  0
 17 19  2  0  0  0  0
 15 16  1  0  0  0  0
 15 17  1  0  0  0  0
 14 15  2  0  0  0  0
 14 23  1  0  0  0  0
 11 12  1  0  0  0  0
 11 13  1  0  0  0  0
 11 14  1  0  0  0  0
  9 10  1  0  0  0  0
  9 11  1  0  0  0  0
  9 25  1  0  0  0  0
  7  8  1  0  0  0  0
  7  9  1  0  0  0  0
 29 30  1  0  0  0  0
 29 31  1  0  0  0  0
 29 32  1  0  0  0  0
 27 28  1  0  0  0  0
 27 29  1  0  0  0  0
M  END
$$$$
default_name
  -OEChem-01062215323D

 32 32  0     1  0  0  0  0  0999 V2000
   -3.8405   -3.7518    1.6252 H   0  0  0  0  0  0  0  0  0  0  0  0
   -3.7965   -2.8768    0.9782 C   0  0  0  0  0  0  0  0  0  0  0  0
   -4.5465   -2.1527    1.2902 H   0  0  0  0  0  0  0  0  0  0  0  0
   -3.9745   -3.1748   -0.0538 H   0  0  0  0  0  0  0  0  0  0  0  0
   -2.4245   -2.2537    1.0882 C   0  0  0  0  0  0  0  0  0  0  0  0
   -1.5805   -2.7478    1.8242 O   0  0  0  0  0  0  0  0  0  0  0  0
   -2.2045   -1.1637    0.3562 N   0  0  0  0  0  0  0  0  0  0  0  0
   -2.9595   -0.7907   -0.2008 H   0  0  0  0  0  0  0  0  0  0  0  0
   -0.9485   -0.4087    0.3482 C   0  0  1  0  0  0  0  0  0  0  0  0
   -0.6698   -0.2073   -0.6874 H   0  0  0  0  0  0  0  0  0  0  0  0
   -1.1598    0.9368    1.0631 C   0  0  0  0  0  0  0  0  0  0  0  0
   -1.5764    0.7510    2.0541 H   0  0  0  0  0  0  0  0  0  0  0  0
   -0.1915    1.4204    1.2003 H   0  0  0  0  0  0  0  0  0  0  0  0
   -2.0925    1.8828    0.3309 C   0  0  0  0  0  0  0  0  0  0  0  0
   -1.6204    2.6602   -0.7437 C   0  0  0  0  0  0  0  0  0  0  0  0
   -0.5823    2.6041   -1.0392 H   0  0  0  0  0  0  0  0  0  0  0  0
   -2.5012    3.5047   -1.4444 C   0  0  0  0  0  0  0  0  0  0  0  0
   -2.1361    4.1027   -2.2675 H   0  0  0  0  0  0  0  0  0  0  0  0
   -3.8550    3.5719   -1.0736 C   0  0  0  0  0  0  0  0  0  0  0  0
   -4.5311    4.2225   -1.6104 H   0  0  0  0  0  0  0  0  0  0  0  0
   -4.3296    2.7975    0.0007 C   0  0  0  0  0  0  0  0  0  0  0  0
   -5.3690    2.8532    0.2893 H   0  0  0  0  0  0  0  0  0  0  0  0
   -3.4484    1.9562    0.7029 C   0  0  0  0  0  0  0  0  0  0  0  0
   -3.8141    1.3635    1.5313 H   0  0  0  0  0  0  0  0  0  0  0  0
    0.1879   -1.2262    0.9882 C   0  0  0  0  0  0  0  0  0  0  0  0
   -0.0605   -2.0419    1.8773 O   0  0  0  0  0  0  0  0  0  0  0  0
    1.4318   -1.0066    0.5437 N   0  0  0  0  0  0  0  0  0  0  0  0
    1.5613   -0.2829   -0.1468 H   0  0  0  0  0  0  0  0  0  0  0  0
    2.6190   -1.6905    1.0509 C   0  0  0  0  0  0  0  0  0  0  0  0
    2.4637   -2.7710    1.0221 H   0  0  0  0  0  0  0  0  0  0  0  0
    3.4886   -1.4360    0.4444 H   0  0  0  0  0  0  0  0  0  0  0  0
    2.8009   -1.3921    2.0852 H   0  0  0  0  0  0  0  0  0  0  0  0
  5  6  2  0  0  0  0
  5  7  1  0  0  0  0
  2  3  1  0  0  0  0
  2  4  1  0  0  0  0
  2  5  1  0  0  0  0
  1  2  1  0  0  0  0
 25 26  2  0  0  0  0
 25 27  1  0  0  0  0
 23 24  1  0  0  0  0
 21 22  1  0  0  0  0
 21 23  2  0  0  0  0
 19 20  1  0  0  0  0
 19 21  1  0  0  0  0
 17 18  1  0  0  0  0
 17 19  2  0  0  0  0
 15 16  1  0  0  0  0
 15 17  1  0  0  0  0
 14 15  2  0  0  0  0
 14 23  1  0  0  0  0
 11 12  1  0  0  0  0
 11 13  1  0  0  0  0
 11 14  1  0  0  0  0
  9 10  1  0  0  0  0
  9 11  1  0  0  0  0
  9 25  1  0  0  0  0
  7  8  1  0  0  0  0
  7  9  1  0  0  0  0
 29 30  1  0  0  0  0
 29 31  1  0  0  0  0
 29 32  1  0  0  0  0
 27 28  1  0  0  0  0
 27 29  1  0  0  0  0
M  END
$$$$
default_name
  -OEChem-01062215323D

 32 32  0     1  0  0  0  0  0999 V2000
   -3.8405   -3.7518    1.6252 H   0  0  0  0  0  0  0  0  0  0  0  0
   -3.7965   -2.8768    0.9782 C   0  0  0  0  0  0  0  0  0  0  0  0
   -4.5465   -2.1527    1.2902 H   0  0  0  0  0  0  0  0  0  0  0  0
   -3.9745   -3.1748   -0.0538 H   0  0  0  0  0  0  0  0  0  0  0  0
   -2.4245   -2.2537    1.0882 C   0  0  0  0  0  0  0  0  0  0  0  0
   -1.5805   -2.7478    1.8242 O   0  0  0  0  0  0  0  0  0  0  0  0
   -2.2045   -1.1637    0.3562 N   0  0  0  0  0  0  0  0  0  0  0  0
   -2.9595   -0.7907   -0.2008 H   0  0  0  0  0  0  0  0  0  0  0  0
   -0.9485   -0.4087    0.3482 C   0  0  1  0  0  0  0  0  0  0  0  0
   -0.6698   -0.2073   -0.6874 H   0  0  0  0  0  0  0  0  0  0  0  0
   -1.1598    0.9368    1.0631 C   0  0  0  0  0  0  0  0  0  0  0  0
   -1.5764    0.7510    2.0541 H   0  0  0  0  0  0  0  0  0  0  0  0
   -0.1915    1.4204    1.2003 H   0  0  0  0  0  0  0  0  0  0  0  0
   -2.0925    1.8828    0.3309 C   0  0  0  0  0  0  0  0  0  0  0  0
   -1.6204    2.6602   -0.7437 C   0  0  0  0  0  0  0  0  0  0  0  0
   -0.5823    2.6041   -1.0392 H   0  0  0  0  0  0  0  0  0  0  0  0
   -2.5012    3.5047   -1.4444 C   0  0  0  0  0  0  0  0  0  0  0  0
   -2.1361    4.1027   -2.2675 H   0  0  0  0  0  0  0  0  0  0  0  0
   -3.8550    3.5719   -1.0736 C   0  0  0  0  0  0  0  0  0  0  0  0
   -4.5311    4.2225   -1.6104 H   0  0  0  0  0  0  0  0  0  0  0  0
   -4.3296    2.7975    0.0007 C   0  0  0  0  0  0  0  0  0  0  0  0
   -5.3690    2.8532    0.2893 H   0  0  0  0  0  0  0  0  0  0  0  0
   -3.4484    1.9562    0.7029 C   0  0  0  0  0  0  0  0  0  0  0  0
   -3.8141    1.3635    1.5313 H   0  0  0  0  0  0  0  0  0  0  0  0
    0.1879   -1.2262    0.9882 C   0  0  0  0  0  0  0  0  0  0  0  0
   -0.0709   -2.2219    1.6658 O   0  0  0  0  0  0  0  0  0  0  0  0
    1.4424   -0.8064    0.7805 N   0  0  0  0  0  0  0  0  0  0  0  0
    1.5701    0.0489    0.2615 H   0  0  0  0  0  0  0  0  0  0  0  0
    2.6295   -1.4624    1.3235 C   0  0  0  0  0  0  0  0  0  0  0  0
    2.6111   -2.5254    1.0742 H   0  0  0  0  0  0  0  0  0  0  0  0
    3.5319   -1.0117    0.9094 H   0  0  0  0  0  0  0  0  0  0  0  0
    2.6412   -1.3596    2.4103 H   0  0  0  0  0  0  0  0  0  0  0  0
  5  6  2  0  0  0  0
  5  7  1  0  0  0  0
  2  3  1  0  0  0  0
  2  4  1  0  0  0  0
  2  5  1  0  0  0  0
  1  2  1  0  0  0  0
 25 26  2  0  0  0  0
 25 27  1  0  0  0  0
 23 24  1  0  0  0  0
 21 22  1  0  0  0  0
 21 23  2  0  0  0  0
 19 20  1  0  0  0  0
 19 21  1  0  0  0  0
 17 18  1  0  0  0  0
 17 19  2  0  0  0  0
 15 16  1  0  0  0  0
 15 17  1  0  0  0  0
 14 15  2  0  0  0  0
 14 23  1  0  0  0  0
 11 12  1  0  0  0  0
 11 13  1  0  0  0  0
 11 14  1  0  0  0  0
  9 10  1  0  0  0  0
  9 11  1  0  0  0  0
  9 25  1  0  0  0  0
  7  8  1  0  0  0  0
  7  9  1  0  0  0  0
 29 30  1  0  0  0  0
 29 31  1  0  0  0  0
 29 32  1  0  0  0  0
 27 28  1  0  0  0  0
 27 29  1  0  0  0  0
M  END
$$$$
default_name
  -OEChem-01062215323D

 32 32  0     1  0  0  0  0  0999 V2000
   -3.8405   -3.7518    1.6252 H   0  0  0  0  0  0  0  0  0  0  0  0
   -3.7965   -2.8768    0.9782 C   0  0  0  0  0  0  0  0  0  0  0  0
   -4.5465   -2.1527    1.2902 H   0  0  0  0  0  0  0  0  0  0  0  0
   -3.9745   -3.1748   -0.0538 H   0  0  0  0  0  0  0  0  0  0  0  0
   -2.4245   -2.2537    1.0882 C   0  0  0  0  0  0  0  0  0  0  0  0
   -1.5805   -2.7478    1.8242 O   0  0  0  0  0  0  0  0  0  0  0  0
   -2.2045   -1.1637    0.3562 N   0  0  0  0  0  0  0  0  0  0  0  0
   -2.9595   -0.7907   -0.2008 H   0  0  0  0  0  0  0  0  0  0  0  0
   -0.9485   -0.4087    0.3482 C   0  0  1  0  0  0  0  0  0  0  0  0
   -0.8069    0.0213   -0.6446 H   0  0  0  0  0  0  0  0  0  0  0  0
   -1.0405    0.7416    1.3653 C   0  0  0  0  0  0  0  0  0  0  0  0
   -1.3245    0.3348    2.3369 H   0  0  0  0  0  0  0  0  0  0  0  0
   -0.0547    1.1958    1.4758 H   0  0  0  0  0  0  0  0  0  0  0  0
   -2.0467    1.8137    0.9923 C   0  0  0  0  0  0  0  0  0  0  0  0
   -1.7093    2.8166    0.0637 C   0  0  0  0  0  0  0  0  0  0  0  0
   -0.7208    2.8416   -0.3728 H   0  0  0  0  0  0  0  0  0  0  0  0
   -2.6615    3.7834   -0.3083 C   0  0  0  0  0  0  0  0  0  0  0  0
   -2.3995    4.5541   -1.0196 H   0  0  0  0  0  0  0  0  0  0  0  0
   -3.9525    3.7482    0.2455 C   0  0  0  0  0  0  0  0  0  0  0  0
   -4.6833    4.4924   -0.0386 H   0  0  0  0  0  0  0  0  0  0  0  0
   -4.2925    2.7483    1.1748 C   0  0  0  0  0  0  0  0  0  0  0  0
   -5.2831    2.7244    1.6048 H   0  0  0  0  0  0  0  0  0  0  0  0
   -3.3396    1.7842    1.5489 C   0  0  0  0  0  0  0  0  0  0  0  0
   -3.6014    1.0175    2.2665 H   0  0  0  0  0  0  0  0  0  0  0  0
    0.2494   -1.3323    0.6335 C   0  0  0  0  0  0  0  0  0  0  0  0
    0.0707   -2.5344    0.8347 O   0  0  0  0  0  0  0  0  0  0  0  0
    1.4666   -0.7745    0.6567 N   0  0  0  0  0  0  0  0  0  0  0  0
    1.5258    0.2254    0.5381 H   0  0  0  0  0  0  0  0  0  0  0  0
    2.7021   -1.5077    0.9213 C   0  0  0  0  0  0  0  0  0  0  0  0
    2.7681   -2.3726    0.2578 H   0  0  0  0  0  0  0  0  0  0  0  0
    3.5658   -0.8626    0.7577 H   0  0  0  0  0  0  0  0  0  0  0  0
    2.7060   -1.8602    1.9545 H   0  0  0  0  0  0  0  0  0  0  0  0
  5  6  2  0  0  0  0
  5  7  1  0  0  0  0
  2  3  1  0  0  0  0
  2  4  1  0  0  0  0
  2  5  1  0  0  0  0
  1  2  1  0  0  0  0
 25 26  2  0  0  0  0
 25 27  1  0  0  0  0
 23 24  1  0  0  0  0
 21 22  1  0  0  0  0
 21 23  2  0  0  0  0
 19 20  1  0  0  0  0
 19 21  1  0  0  0  0
 17 18  1  0  0  0  0
 17 19  2  0  0  0  0
 15 16  1  0  0  0  0
 15 17  1  0  0  0  0
 14 15  2  0  0  0  0
 14 23  1  0  0  0  0
 11 12  1  0  0  0  0
 11 13  1  0  0  0  0
 11 14  1  0  0  0  0
  9 10  1  0  0  0  0
  9 11  1  0  0  0  0
  9 25  1  0  0  0  0
  7  8  1  0  0  0  0
  7  9  1  0  0  0  0
 29 30  1  0  0  0  0
 29 31  1  0  0  0  0
 29 32  1  0  0  0  0
 27 28  1  0  0  0  0
 27 29  1  0  0  0  0
M  END
$$$$
default_name
  -OEChem-01062215323D

 32 32  0     1  0  0  0  0  0999 V2000
   -3.8405   -3.7518    1.6252 H   0  0  0  0  0  0  0  0  0  0  0  0
   -3.7965   -2.8768    0.9782 C   0  0  0  0  0  0  0  0  0  0  0  0
   -4.5465   -2.1527    1.2902 H   0  0  0  0  0  0  0  0  0  0  0  0
   -3.9745   -3.1748   -0.0538 H   0  0  0  0  0  0  0  0  0  0  0  0
   -2.4245   -2.2537    1.0882 C   0  0  0  0  0  0  0  0  0  0  0  0
   -1.5805   -2.7478    1.8242 O   0  0  0  0  0  0  0  0  0  0  0  0
   -2.2045   -1.1637    0.3562 N   0  0  0  0  0  0  0  0  0  0  0  0
   -2.9595   -0.7907   -0.2008 H   0  0  0  0  0  0  0  0  0  0  0  0
   -0.9485   -0.4087    0.3482 C   0  0  1  0  0  0  0  0  0  0  0  0
   -0.8069    0.0213   -0.6446 H   0  0  0  0  0  0  0  0  0  0  0  0
   -1.0405    0.7416    1.3653 C   0  0  0  0  0  0  0  0  0  0  0  0
   -1.3245    0.3348    2.3369 H   0  0  0  0  0  0  0  0  0  0  0  0
   -0.0547    1.1958    1.4758 H   0  0  0  0  0  0  0  0  0  0  0  0
   -2.0467    1.8137    0.9923 C   0  0  0  0  0  0  0  0  0  0  0  0
   -1.7093    2.8166    0.0637 C   0  0  0  0  0  0  0  0  0  0  0  0
   -0.7208    2.8416   -0.3728 H   0  0  0  0  0  0  0  0  0  0  0  0
   -2.6615    3.7834   -0.3083 C   0  0  0  0  0  0  0  0  0  0  0  0
   -2.3995    4.5541   -1.0196 H   0  0  0  0  0  0  0  0  0  0  0  0
   -3.9525    3.7482    0.2455 C   0  0  0  0  0  0  0  0  0  0  0  0
   -4.6833    4.4924   -0.0386 H   0  0  0  0  0  0  0  0  0  0  0  0
   -4.2925    2.7483    1.1748 C   0  0  0  0  0  0  0  0  0  0  0  0
   -5.2831    2.7244    1.6048 H   0  0  0  0  0  0  0  0  0  0  0  0
   -3.3396    1.7842    1.5489 C   0  0  0  0  0  0  0  0  0  0  0  0
   -3.6014    1.0175    2.2665 H   0  0  0  0  0  0  0  0  0  0  0  0
    0.2494   -1.3323    0.6335 C   0  0  0  0  0  0  0  0  0  0  0  0
    0.1196   -2.5552    0.5619 O   0  0  0  0  0  0  0  0  0  0  0  0
    1.4111   -0.7524    0.9611 N   0  0  0  0  0  0  0  0  0  0  0  0
    1.4235    0.2519    1.0536 H   0  0  0  0  0  0  0  0  0  0  0  0
    2.6371   -1.4844    1.2701 C   0  0  0  0  0  0  0  0  0  0  0  0
    2.8572   -2.1921    0.4681 H   0  0  0  0  0  0  0  0  0  0  0  0
    3.4725   -0.7920    1.3777 H   0  0  0  0  0  0  0  0  0  0  0  0
    2.5080   -2.0410    2.2003 H   0  0  0  0  0  0  0  0  0  0  0  0
  5  6  2  0  0  0  0
  5  7  1  0  0  0  0
  2  3  1  0  0  0  0
  2  4  1  0  0  0  0
  2  5  1  0  0  0  0
  1  2  1  0  0  0  0
 25 26  2  0  0  0  0
 25 27  1  0  0  0  0
 23 24  1  0  0  0  0
 21 22  1  0  0  0  0
 21 23  2  0  0  0  0
 19 20  1  0  0  0  0
 19 21  1  0  0  0  0
 17 18  1  0  0  0  0
 17 19  2  0  0  0  0
 15 16  1  0  0  0  0
 15 17  1  0  0  0  0
 14 15  2  0  0  0  0
 14 23  1  0  0  0  0
 11 12  1  0  0  0  0
 11 13  1  0  0  0  0
 11 14  1  0  0  0  0
  9 10  1  0  0  0  0
  9 11  1  0  0  0  0
  9 25  1  0  0  0  0
  7  8  1  0  0  0  0
  7  9  1  0  0  0  0
 29 30  1  0  0  0  0
 29 31  1  0  0  0  0
 29 32  1  0  0  0  0
 27 28  1  0  0  0  0
 27 29  1  0  0  0  0
M  END
$$$$
default_name
  -OEChem-01062215323D

 32 32  0     1  0  0  0  0  0999 V2000
   -3.8405   -3.7518    1.6252 H   0  0  0  0  0  0  0  0  0  0  0  0
   -3.7965   -2.8768    0.9782 C   0  0  0  0  0  0  0  0  0  0  0  0
   -4.5465   -2.1527    1.2902 H   0  0  0  0  0  0  0  0  0  0  0  0
   -3.9745   -3.1748   -0.0538 H   0  0  0  0  0  0  0  0  0  0  0  0
   -2.4245   -2.2537    1.0882 C   0  0  0  0  0  0  0  0  0  0  0  0
   -1.5805   -2.7478    1.8242 O   0  0  0  0  0  0  0  0  0  0  0  0
   -2.2045   -1.1637    0.3562 N   0  0  0  0  0  0  0  0  0  0  0  0
   -2.9595   -0.7907   -0.2008 H   0  0  0  0  0  0  0  0  0  0  0  0
   -0.9485   -0.4087    0.3482 C   0  0  1  0  0  0  0  0  0  0  0  0
   -0.8069    0.0213   -0.6446 H   0  0  0  0  0  0  0  0  0  0  0  0
   -1.0405    0.7416    1.3653 C   0  0  0  0  0  0  0  0  0  0  0  0
   -1.3245    0.3348    2.3369 H   0  0  0  0  0  0  0  0  0  0  0  0
   -0.0547    1.1958    1.4758 H   0  0  0  0  0  0  0  0  0  0  0  0
   -2.0467    1.8137    0.9923 C   0  0  0  0  0  0  0  0  0  0  0  0
   -1.7093    2.8166    0.0637 C   0  0  0  0  0  0  0  0  0  0  0  0
   -0.7208    2.8416   -0.3728 H   0  0  0  0  0  0  0  0  0  0  0  0
   -2.6615    3.7834   -0.3083 C   0  0  0  0  0  0  0  0  0  0  0  0
   -2.3995    4.5541   -1.0196 H   0  0  0  0  0  0  0  0  0  0  0  0
   -3.9525    3.7482    0.2455 C   0  0  0  0  0  0  0  0  0  0  0  0
   -4.6833    4.4924   -0.0386 H   0  0  0  0  0  0  0  0  0  0  0  0
   -4.2925    2.7483    1.1748 C   0  0  0  0  0  0  0  0  0  0  0  0
   -5.2831    2.7244    1.6048 H   0  0  0  0  0  0  0  0  0  0  0  0
   -3.3396    1.7842    1.5489 C   0  0  0  0  0  0  0  0  0  0  0  0
   -3.6014    1.0175    2.2665 H   0  0  0  0  0  0  0  0  0  0  0  0
    0.2494   -1.3323    0.6335 C   0  0  0  0  0  0  0  0  0  0  0  0
    0.2102   -2.5180    0.3018 O   0  0  0  0  0  0  0  0  0  0  0  0
    1.3092   -0.7951    1.2511 N   0  0  0  0  0  0  0  0  0  0  0  0
    1.2433    0.1687    1.5409 H   0  0  0  0  0  0  0  0  0  0  0  0
    2.5190   -1.5352    1.6016 C   0  0  0  0  0  0  0  0  0  0  0  0
    2.9019   -2.0558    0.7214 H   0  0  0  0  0  0  0  0  0  0  0  0
    3.2828   -0.8532    1.9763 H   0  0  0  0  0  0  0  0  0  0  0  0
    2.2873   -2.2747    2.3705 H   0  0  0  0  0  0  0  0  0  0  0  0
  5  6  2  0  0  0  0
  5  7  1  0  0  0  0
  2  3  1  0  0  0  0
  2  4  1  0  0  0  0
  2  5  1  0  0  0  0
  1  2  1  0  0  0  0
 25 26  2  0  0  0  0
 25 27  1  0  0  0  0
 23 24  1  0  0  0  0
 21 22  1  0  0  0  0
 21 23  2  0  0  0  0
 19 20  1  0  0  0  0
 19 21  1  0  0  0  0
 17 18  1  0  0  0  0
 17 19  2  0  0  0  0
 15 16  1  0  0  0  0
 15 17  1  0  0  0  0
 14 15  2  0  0  0  0
 14 23  1  0  0  0  0
 11 12  1  0  0  0  0
 11 13  1  0  0  0  0
 11 14  1  0  0  0  0
  9 10  1  0  0  0  0
  9 11  1  0  0  0  0
  9 25  1  0  0  0  0
  7  8  1  0  0  0  0
  7  9  1  0  0  0  0
 29 30  1  0  0  0  0
 29 31  1  0  0  0  0
 29 32  1  0  0  0  0
 27 28  1  0  0  0  0
 27 29  1  0  0  0  0
M  END
$$$$
default_name
  -OEChem-01062215323D

 32 32  0     1  0  0  0  0  0999 V2000
   -3.8405   -3.7518    1.6252 H   0  0  0  0  0  0  0  0  0  0  0  0
   -3.7965   -2.8768    0.9782 C   0  0  0  0  0  0  0  0  0  0  0  0
   -4.5465   -2.1527    1.2902 H   0  0  0  0  0  0  0  0  0  0  0  0
   -3.9745   -3.1748   -0.0538 H   0  0  0  0  0  0  0  0  0  0  0  0
   -2.4245   -2.2537    1.0882 C   0  0  0  0  0  0  0  0  0  0  0  0
   -1.5805   -2.7478    1.8242 O   0  0  0  0  0  0  0  0  0  0  0  0
   -2.2045   -1.1637    0.3562 N   0  0  0  0  0  0  0  0  0  0  0  0
   -2.9595   -0.7907   -0.2008 H   0  0  0  0  0  0  0  0  0  0  0  0
   -0.9485   -0.4087    0.3482 C   0  0  1  0  0  0  0  0  0  0  0  0
   -0.8069    0.0213   -0.6446 H   0  0  0  0  0  0  0  0  0  0  0  0
   -1.0405    0.7416    1.3653 C   0  0  0  0  0  0  0  0  0  0  0  0
   -1.3245    0.3348    2.3369 H   0  0  0  0  0  0  0  0  0  0  0  0
   -0.0547    1.1958    1.4758 H   0  0  0  0  0  0  0  0  0  0  0  0
   -2.0467    1.8137    0.9923 C   0  0  0  0  0  0  0  0  0  0  0  0
   -1.7093    2.8166    0.0637 C   0  0  0  0  0  0  0  0  0  0  0  0
   -0.7208    2.8416   -0.3728 H   0  0  0  0  0  0  0  0  0  0  0  0
   -2.6615    3.7834   -0.3083 C   0  0  0  0  0  0  0  0  0  0  0  0
   -2.3995    4.5541   -1.0196 H   0  0  0  0  0  0  0  0  0  0  0  0
   -3.9525    3.7482    0.2455 C   0  0  0  0  0  0  0  0  0  0  0  0
   -4.6833    4.4924   -0.0386 H   0  0  0  0  0  0  0  0  0  0  0  0
   -4.2925    2.7483    1.1748 C   0  0  0  0  0  0  0  0  0  0  0  0
   -5.2831    2.7244    1.6048 H   0  0  0  0  0  0  0  0  0  0  0  0
   -3.3396    1.7842    1.5489 C   0  0  0  0  0  0  0  0  0  0  0  0
   -3.6014    1.0175    2.2665 H   0  0  0  0  0  0  0  0  0  0  0  0
    0.2494   -1.3323    0.6335 C   0  0  0  0  0  0  0  0  0  0  0  0
    0.3363   -2.4253    0.0721 O   0  0  0  0  0  0  0  0  0  0  0  0
    1.1677   -0.8996    1.5067 N   0  0  0  0  0  0  0  0  0  0  0  0
    0.9976   -0.0183    1.9669 H   0  0  0  0  0  0  0  0  0  0  0  0
    2.3559   -1.6567    1.8932 C   0  0  0  0  0  0  0  0  0  0  0  0
    2.8993   -1.9731    1.0004 H   0  0  0  0  0  0  0  0  0  0  0  0
    3.0095   -1.0420    2.5128 H   0  0  0  0  0  0  0  0  0  0  0  0
    2.0589   -2.5453    2.4536 H   0  0  0  0  0  0  0  0  0  0  0  0
  5  6  2  0  0  0  0
  5  7  1  0  0  0  0
  2  3  1  0  0  0  0
  2  4  1  0  0  0  0
  2  5  1  0  0  0  0
  1  2  1  0  0  0  0
 25 26  2  0  0  0  0
 25 27  1  0  0  0  0
 23 24  1  0  0  0  0
 21 22  1  0  0  0  0
 21 23  2  0  0  0  0
 19 20  1  0  0  0  0
 19 21  1  0  0  0  0
 17 18  1  0  0  0  0
 17 19  2  0  0  0  0
 15 16  1  0  0  0  0
 15 17  1  0  0  0  0
 14 15  2  0  0  0  0
 14 23  1  0  0  0  0
 11 12  1  0  0  0  0
 11 13  1  0  0  0  0
 11 14  1  0  0  0  0
  9 10  1  0  0  0  0
  9 11  1  0  0  0  0
  9 25  1  0  0  0  0
  7  8  1  0  0  0  0
  7  9  1  0  0  0  0
 29 30  1  0  0  0  0
 29 31  1  0  0  0  0
 29 32  1  0  0  0  0
 27 28  1  0  0  0  0
 27 29  1  0  0  0  0
M  END
$$$$
default_name
  -OEChem-01062215323D

 32 32  0     1  0  0  0  0  0999 V2000
   -3.8405   -3.7518    1.6252 H   0  0  0  0  0  0  0  0  0  0  0  0
   -3.7965   -2.8768    0.9782 C   0  0  0  0  0  0  0  0  0  0  0  0
   -4.5465   -2.1527    1.2902 H   0  0  0  0  0  0  0  0  0  0  0  0
   -3.9745   -3.1748   -0.0538 H   0  0  0  0  0  0  0  0  0  0  0  0
   -2.4245   -2.2537    1.0882 C   0  0  0  0  0  0  0  0  0  0  0  0
   -1.5805   -2.7478    1.8242 O   0  0  0  0  0  0  0  0  0  0  0  0
   -2.2045   -1.1637    0.3562 N   0  0  0  0  0  0  0  0  0  0  0  0
   -2.9595   -0.7907   -0.2008 H   0  0  0  0  0  0  0  0  0  0  0  0
   -0.9485   -0.4087    0.3482 C   0  0  1  0  0  0  0  0  0  0  0  0
   -0.8069    0.0213   -0.6446 H   0  0  0  0  0  0  0  0  0  0  0  0
   -1.0405    0.7416    1.3653 C   0  0  0  0  0  0  0  0  0  0  0  0
   -1.3245    0.3348    2.3369 H   0  0  0  0  0  0  0  0  0  0  0  0
   -0.0547    1.1958    1.4758 H   0  0  0  0  0  0  0  0  0  0  0  0
   -2.0467    1.8137    0.9923 C   0  0  0  0  0  0  0  0  0  0  0  0
   -1.7093    2.8166    0.0637 C   0  0  0  0  0  0  0  0  0  0  0  0
   -0.7208    2.8416   -0.3728 H   0  0  0  0  0  0  0  0  0  0  0  0
   -2.6615    3.7834   -0.3083 C   0  0  0  0  0  0  0  0  0  0  0  0
   -2.3995    4.5541   -1.0196 H   0  0  0  0  0  0  0  0  0  0  0  0
   -3.9525    3.7482    0.2455 C   0  0  0  0  0  0  0  0  0  0  0  0
   -4.6833    4.4924   -0.0386 H   0  0  0  0  0  0  0  0  0  0  0  0
   -4.2925    2.7483    1.1748 C   0  0  0  0  0  0  0  0  0  0  0  0
   -5.2831    2.7244    1.6048 H   0  0  0  0  0  0  0  0  0  0  0  0
   -3.3396    1.7842    1.5489 C   0  0  0  0  0  0  0  0  0  0  0  0
   -3.6014    1.0175    2.2665 H   0  0  0  0  0  0  0  0  0  0  0  0
    0.2494   -1.3323    0.6335 C   0  0  0  0  0  0  0  0  0  0  0  0
    0.4894   -2.2835   -0.1116 O   0  0  0  0  0  0  0  0  0  0  0  0
    0.9965   -1.0588    1.7106 N   0  0  0  0  0  0  0  0  0  0  0  0
    0.7031   -0.2967    2.3026 H   0  0  0  0  0  0  0  0  0  0  0  0
    2.1589   -1.8406    2.1251 C   0  0  0  0  0  0  0  0  0  0  0  0
    2.8494   -1.9495    1.2862 H   0  0  0  0  0  0  0  0  0  0  0  0
    2.6713   -1.3455    2.9505 H   0  0  0  0  0  0  0  0  0  0  0  0
    1.8384   -2.8344    2.4438 H   0  0  0  0  0  0  0  0  0  0  0  0
  5  6  2  0  0  0  0
  5  7  1  0  0  0  0
  2  3  1  0  0  0  0
  2  4  1  0  0  0  0
  2  5  1  0  0  0  0
  1  2  1  0  0  0  0
 25 26  2  0  0  0  0
 25 27  1  0  0  0  0
 23 24  1  0  0  0  0
 21 22  1  0  0  0  0
 21 23  2  0  0  0  0
 19 20  1  0  0  0  0
 19 21  1  0  0  0  0
 17 18  1  0  0  0  0
 17 19  2  0  0  0  0
 15 16  1  0  0  0  0
 15 17  1  0  0  0  0
 14 15  2  0  0  0  0
 14 23  1  0  0  0  0
 11 12  1  0  0  0  0
 11 13  1  0  0  0  0
 11 14  1  0  0  0  0
  9 10  1  0  0  0  0
  9 11  1  0  0  0  0
  9 25  1  0  0  0  0
  7  8  1  0  0  0  0
  7  9  1  0  0  0  0
 29 30  1  0  0  0  0
 29 31  1  0  0  0  0
 29 32  1  0  0  0  0
 27 28  1  0  0  0  0
 27 29  1  0  0  0  0
M  END
$$$$
default_name
  -OEChem-01062215323D

 32 32  0     1  0  0  0  0  0999 V2000
   -3.8405   -3.7518    1.6252 H   0  0  0  0  0  0  0  0  0  0  0  0
   -3.7965   -2.8768    0.9782 C   0  0  0  0  0  0  0  0  0  0  0  0
   -4.5465   -2.1527    1.2902 H   0  0  0  0  0  0  0  0  0  0  0  0
   -3.9745   -3.1748   -0.0538 H   0  0  0  0  0  0  0  0  0  0  0  0
   -2.4245   -2.2537    1.0882 C   0  0  0  0  0  0  0  0  0  0  0  0
   -1.5805   -2.7478    1.8242 O   0  0  0  0  0  0  0  0  0  0  0  0
   -2.2045   -1.1637    0.3562 N   0  0  0  0  0  0  0  0  0  0  0  0
   -2.9595   -0.7907   -0.2008 H   0  0  0  0  0  0  0  0  0  0  0  0
   -0.9485   -0.4087    0.3482 C   0  0  1  0  0  0  0  0  0  0  0  0
   -0.8069    0.0213   -0.6446 H   0  0  0  0  0  0  0  0  0  0  0  0
   -1.0405    0.7416    1.3653 C   0  0  0  0  0  0  0  0  0  0  0  0
   -1.3245    0.3348    2.3369 H   0  0  0  0  0  0  0  0  0  0  0  0
   -0.0547    1.1958    1.4758 H   0  0  0  0  0  0  0  0  0  0  0  0
   -2.0467    1.8137    0.9923 C   0  0  0  0  0  0  0  0  0  0  0  0
   -1.7093    2.8166    0.0637 C   0  0  0  0  0  0  0  0  0  0  0  0
   -0.7208    2.8416   -0.3728 H   0  0  0  0  0  0  0  0  0  0  0  0
   -2.6615    3.7834   -0.3083 C   0  0  0  0  0  0  0  0  0  0  0  0
   -2.3995    4.5541   -1.0196 H   0  0  0  0  0  0  0  0  0  0  0  0
   -3.9525    3.7482    0.2455 C   0  0  0  0  0  0  0  0  0  0  0  0
   -4.6833    4.4924   -0.0386 H   0  0  0  0  0  0  0  0  0  0  0  0
   -4.2925    2.7483    1.1748 C   0  0  0  0  0  0  0  0  0  0  0  0
   -5.2831    2.7244    1.6048 H   0  0  0  0  0  0  0  0  0  0  0  0
   -3.3396    1.7842    1.5489 C   0  0  0  0  0  0  0  0  0  0  0  0
   -3.6014    1.0175    2.2665 H   0  0  0  0  0  0  0  0  0  0  0  0
    0.2494   -1.3323    0.6335 C   0  0  0  0  0  0  0  0  0  0  0  0
    0.6590   -2.1022   -0.2366 O   0  0  0  0  0  0  0  0  0  0  0  0
    0.8070   -1.2618    1.8489 N   0  0  0  0  0  0  0  0  0  0  0  0
    0.3799   -0.6472    2.5250 H   0  0  0  0  0  0  0  0  0  0  0  0
    1.9414   -2.0744    2.2815 C   0  0  0  0  0  0  0  0  0  0  0  0
    2.7558   -1.9866    1.5593 H   0  0  0  0  0  0  0  0  0  0  0  0
    2.2911   -1.7431    3.2596 H   0  0  0  0  0  0  0  0  0  0  0  0
    1.6408   -3.1222    2.3420 H   0  0  0  0  0  0  0  0  0  0  0  0
  5  6  2  0  0  0  0
  5  7  1  0  0  0  0
  2  3  1  0  0  0  0
  2  4  1  0  0  0  0
  2  5  1  0  0  0  0
  1  2  1  0  0  0  0
 25 26  2  0  0  0  0
 25 27  1  0  0  0  0
 23 24  1  0  0  0  0
 21 22  1  0  0  0  0
 21 23  2  0  0  0  0
 19 20  1  0  0  0  0
 19 21  1  0  0  0  0
 17 18  1  0  0  0  0
 17 19  2  0  0  0  0
 15 16  1  0  0  0  0
 15 17  1  0  0  0  0
 14 15  2  0  0  0  0
 14 23  1  0  0  0  0
 11 12  1  0  0  0  0
 11 13  1  0  0  0  0
 11 14  1  0  0  0  0
  9 10  1  0  0  0  0
  9 11  1  0  0  0  0
  9 25  1  0  0  0  0
  7  8  1  0  0  0  0
  7  9  1  0  0  0  0
 29 30  1  0  0  0  0
 29 31  1  0  0  0  0
 29 32  1  0  0  0  0
 27 28  1  0  0  0  0
 27 29  1  0  0  0  0
M  END
$$$$
default_name
  -OEChem-01062215323D

 32 32  0     1  0  0  0  0  0999 V2000
   -3.8405   -3.7518    1.6252 H   0  0  0  0  0  0  0  0  0  0  0  0
   -3.7965   -2.8768    0.9782 C   0  0  0  0  0  0  0  0  0  0  0  0
   -4.5465   -2.1527    1.2902 H   0  0  0  0  0  0  0  0  0  0  0  0
   -3.9745   -3.1748   -0.0538 H   0  0  0  0  0  0  0  0  0  0  0  0
   -2.4245   -2.2537    1.0882 C   0  0  0  0  0  0  0  0  0  0  0  0
   -1.5805   -2.7478    1.8242 O   0  0  0  0  0  0  0  0  0  0  0  0
   -2.2045   -1.1637    0.3562 N   0  0  0  0  0  0  0  0  0  0  0  0
   -2.9595   -0.7907   -0.2008 H   0  0  0  0  0  0  0  0  0  0  0  0
   -0.9485   -0.4087    0.3482 C   0  0  1  0  0  0  0  0  0  0  0  0
   -0.8069    0.0213   -0.6446 H   0  0  0  0  0  0  0  0  0  0  0  0
   -1.0405    0.7416    1.3653 C   0  0  0  0  0  0  0  0  0  0  0  0
   -1.3245    0.3348    2.3369 H   0  0  0  0  0  0  0  0  0  0  0  0
   -0.0547    1.1958    1.4758 H   0  0  0  0  0  0  0  0  0  0  0  0
   -2.0467    1.8137    0.9923 C   0  0  0  0  0  0  0  0  0  0  0  0
   -1.7093    2.8166    0.0637 C   0  0  0  0  0  0  0  0  0  0  0  0
   -0.7208    2.8416   -0.3728 H   0  0  0  0  0  0  0  0  0  0  0  0
   -2.6615    3.7834   -0.3083 C   0  0  0  0  0  0  0  0  0  0  0  0
   -2.3995    4.5541   -1.0196 H   0  0  0  0  0  0  0  0  0  0  0  0
   -3.9525    3.7482    0.2455 C   0  0  0  0  0  0  0  0  0  0  0  0
   -4.6833    4.4924   -0.0386 H   0  0  0  0  0  0  0  0  0  0  0  0
   -4.2925    2.7483    1.1748 C   0  0  0  0  0  0  0  0  0  0  0  0
   -5.2831    2.7244    1.6048 H   0  0  0  0  0  0  0  0  0  0  0  0
   -3.3396    1.7842    1.5489 C   0  0  0  0  0  0  0  0  0  0  0  0
   -3.6014    1.0175    2.2665 H   0  0  0  0  0  0  0  0  0  0  0  0
    0.2494   -1.3323    0.6335 C   0  0  0  0  0  0  0  0  0  0  0  0
    0.8335   -1.8937   -0.2945 O   0  0  0  0  0  0  0  0  0  0  0  0
    0.6122   -1.4949    1.9121 N   0  0  0  0  0  0  0  0  0  0  0  0
    0.0499   -1.0462    2.6191 H   0  0  0  0  0  0  0  0  0  0  0  0
    1.7182   -2.3422    2.3517 C   0  0  0  0  0  0  0  0  0  0  0  0
    2.6247   -2.0820    1.8010 H   0  0  0  0  0  0  0  0  0  0  0  0
    1.8950   -2.2076    3.4191 H   0  0  0  0  0  0  0  0  0  0  0  0
    1.4795   -3.3892    2.1549 H   0  0  0  0  0  0  0  0  0  0  0  0
  5  6  2  0  0  0  0
  5  7  1  0  0  0  0
  2  3  1  0  0  0  0
  2  4  1  0  0  0  0
  2  5  1  0  0  0  0
  1  2  1  0  0  0  0
 25 26  2  0  0  0  0
 25 27  1  0  0  0  0
 23 24  1  0  0  0  0
 21 22  1  0  0  0  0
 21 23  2  0  0  0  0
 19 20  1  0  0  0  0
 19 21  1  0  0  0  0
 17 18  1  0  0  0  0
 17 19  2  0  0  0  0
 15 16  1  0  0  0  0
 15 17  1  0  0  0  0
 14 15  2  0  0  0  0
 14 23  1  0  0  0  0
 11 12  1  0  0  0  0
 11 13  1  0  0  0  0
 11 14  1  0  0  0  0
  9 10  1  0  0  0  0
  9 11  1  0  0  0  0
  9 25  1  0  0  0  0
  7  8  1  0  0  0  0
  7  9  1  0  0  0  0
 29 30  1  0  0  0  0
 29 31  1  0  0  0  0
 29 32  1  0  0  0  0
 27 28  1  0  0  0  0
 27 29  1  0  0  0  0
M  END
$$$$
default_name
  -OEChem-01062215323D

 32 32  0     1  0  0  0  0  0999 V2000
   -3.8405   -3.7518    1.6252 H   0  0  0  0  0  0  0  0  0  0  0  0
   -3.7965   -2.8768    0.9782 C   0  0  0  0  0  0  0  0  0  0  0  0
   -4.5465   -2.1527    1.2902 H   0  0  0  0  0  0  0  0  0  0  0  0
   -3.9745   -3.1748   -0.0538 H   0  0  0  0  0  0  0  0  0  0  0  0
   -2.4245   -2.2537    1.0882 C   0  0  0  0  0  0  0  0  0  0  0  0
   -1.5805   -2.7478    1.8242 O   0  0  0  0  0  0  0  0  0  0  0  0
   -2.2045   -1.1637    0.3562 N   0  0  0  0  0  0  0  0  0  0  0  0
   -2.9595   -0.7907   -0.2008 H   0  0  0  0  0  0  0  0  0  0  0  0
   -0.9485   -0.4087    0.3482 C   0  0  1  0  0  0  0  0  0  0  0  0
   -0.8069    0.0213   -0.6446 H   0  0  0  0  0  0  0  0  0  0  0  0
   -1.0405    0.7416    1.3653 C   0  0  0  0  0  0  0  0  0  0  0  0
   -1.3245    0.3348    2.3369 H   0  0  0  0  0  0  0  0  0  0  0  0
   -0.0547    1.1958    1.4758 H   0  0  0  0  0  0  0  0  0  0  0  0
   -2.0467    1.8137    0.9923 C   0  0  0  0  0  0  0  0  0  0  0  0
   -1.7093    2.8166    0.0637 C   0  0  0  0  0  0  0  0  0  0  0  0
   -0.7208    2.8416   -0.3728 H   0  0  0  0  0  0  0  0  0  0  0  0
   -2.6615    3.7834   -0.3083 C   0  0  0  0  0  0  0  0  0  0  0  0
   -2.3995    4.5541   -1.0196 H   0  0  0  0  0  0  0  0  0  0  0  0
   -3.9525    3.7482    0.2455 C   0  0  0  0  0  0  0  0  0  0  0  0
   -4.6833    4.4924   -0.0386 H   0  0  0  0  0  0  0  0  0  0  0  0
   -4.2925    2.7483    1.1748 C   0  0  0  0  0  0  0  0  0  0  0  0
   -5.2831    2.7244    1.6048 H   0  0  0  0  0  0  0  0  0  0  0  0
   -3.3396    1.7842    1.5489 C   0  0  0  0  0  0  0  0  0  0  0  0
   -3.6014    1.0175    2.2665 H   0  0  0  0  0  0  0  0  0  0  0  0
    0.2494   -1.3323    0.6335 C   0  0  0  0  0  0  0  0  0  0  0  0
    1.0010   -1.6723   -0.2814 O   0  0  0  0  0  0  0  0  0  0  0  0
    0.4254   -1.7422    1.8960 N   0  0  0  0  0  0  0  0  0  0  0  0
   -0.2643   -1.4663    2.5783 H   0  0  0  0  0  0  0  0  0  0  0  0
    1.5046   -2.6257    2.3308 C   0  0  0  0  0  0  0  0  0  0  0  0
    2.4651   -2.2291    1.9949 H   0  0  0  0  0  0  0  0  0  0  0  0
    1.5099   -2.7074    3.4181 H   0  0  0  0  0  0  0  0  0  0  0  0
    1.3655   -3.6171    1.8954 H   0  0  0  0  0  0  0  0  0  0  0  0
  5  6  2  0  0  0  0
  5  7  1  0  0  0  0
  2  3  1  0  0  0  0
  2  4  1  0  0  0  0
  2  5  1  0  0  0  0
  1  2  1  0  0  0  0
 25 26  2  0  0  0  0
 25 27  1  0  0  0  0
 23 24  1  0  0  0  0
 21 22  1  0  0  0  0
 21 23  2  0  0  0  0
 19 20  1  0  0  0  0
 19 21  1  0  0  0  0
 17 18  1  0  0  0  0
 17 19  2  0  0  0  0
 15 16  1  0  0  0  0
 15 17  1  0  0  0  0
 14 15  2  0  0  0  0
 14 23  1  0  0  0  0
 11 12  1  0  0  0  0
 11 13  1  0  0  0  0
 11 14  1  0  0  0  0
  9 10  1  0  0  0  0
  9 11  1  0  0  0  0
  9 25  1  0  0  0  0
  7  8  1  0  0  0  0
  7  9  1  0  0  0  0
 29 30  1  0  0  0  0
 29 31  1  0  0  0  0
 29 32  1  0  0  0  0
 27 28  1  0  0  0  0
 27 29  1  0  0  0  0
M  END
$$$$
default_name
  -OEChem-01062215323D

 32 32  0     1  0  0  0  0  0999 V2000
   -3.8405   -3.7518    1.6252 H   0  0  0  0  0  0  0  0  0  0  0  0
   -3.7965   -2.8768    0.9782 C   0  0  0  0  0  0  0  0  0  0  0  0
   -4.5465   -2.1527    1.2902 H   0  0  0  0  0  0  0  0  0  0  0  0
   -3.9745   -3.1748   -0.0538 H   0  0  0  0  0  0  0  0  0  0  0  0
   -2.4245   -2.2537    1.0882 C   0  0  0  0  0  0  0  0  0  0  0  0
   -1.5805   -2.7478    1.8242 O   0  0  0  0  0  0  0  0  0  0  0  0
   -2.2045   -1.1637    0.3562 N   0  0  0  0  0  0  0  0  0  0  0  0
   -2.9595   -0.7907   -0.2008 H   0  0  0  0  0  0  0  0  0  0  0  0
   -0.9485   -0.4087    0.3482 C   0  0  1  0  0  0  0  0  0  0  0  0
   -0.8069    0.0213   -0.6446 H   0  0  0  0  0  0  0  0  0  0  0  0
   -1.0405    0.7416    1.3653 C   0  0  0  0  0  0  0  0  0  0  0  0
   -1.3245    0.3348    2.3369 H   0  0  0  0  0  0  0  0  0  0  0  0
   -0.0547    1.1958    1.4758 H   0  0  0  0  0  0  0  0  0  0  0  0
   -2.0467    1.8137    0.9923 C   0  0  0  0  0  0  0  0  0  0  0  0
   -1.7093    2.8166    0.0637 C   0  0  0  0  0  0  0  0  0  0  0  0
   -0.7208    2.8416   -0.3728 H   0  0  0  0  0  0  0  0  0  0  0  0
   -2.6615    3.7834   -0.3083 C   0  0  0  0  0  0  0  0  0  0  0  0
   -2.3995    4.5541   -1.0196 H   0  0  0  0  0  0  0  0  0  0  0  0
   -3.9525    3.7482    0.2455 C   0  0  0  0  0  0  0  0  0  0  0  0
   -4.6833    4.4924   -0.0386 H   0  0  0  0  0  0  0  0  0  0  0  0
   -4.2925    2.7483    1.1748 C   0  0  0  0  0  0  0  0  0  0  0  0
   -5.2831    2.7244    1.6048 H   0  0  0  0  0  0  0  0  0  0  0  0
   -3.3396    1.7842    1.5489 C   0  0  0  0  0  0  0  0  0  0  0  0
   -3.6014    1.0175    2.2665 H   0  0  0  0  0  0  0  0  0  0  0  0
    0.2494   -1.3323    0.6335 C   0  0  0  0  0  0  0  0  0  0  0  0
    1.1502   -1.4531   -0.1981 O   0  0  0  0  0  0  0  0  0  0  0  0
    0.2594   -1.9867    1.8017 N   0  0  0  0  0  0  0  0  0  0  0  0
   -0.5413   -1.8790    2.4056 H   0  0  0  0  0  0  0  0  0  0  0  0
    1.3151   -2.9056    2.2204 C   0  0  0  0  0  0  0  0  0  0  0  0
    2.2878   -2.4179    2.1279 H   0  0  0  0  0  0  0  0  0  0  0  0
    1.1621   -3.2085    3.2566 H   0  0  0  0  0  0  0  0  0  0  0  0
    1.3067   -3.7905    1.5811 H   0  0  0  0  0  0  0  0  0  0  0  0
  5  6  2  0  0  0  0
  5  7  1  0  0  0  0
  2  3  1  0  0  0  0
  2  4  1  0  0  0  0
  2  5  1  0  0  0  0
  1  2  1  0  0  0  0
 25 26  2  0  0  0  0
 25 27  1  0  0  0  0
 23 24  1  0  0  0  0
 21 22  1  0  0  0  0
 21 23  2  0  0  0  0
 19 20  1  0  0  0  0
 19 21  1  0  0  0  0
 17 18  1  0  0  0  0
 17 19  2  0  0  0  0
 15 16  1  0  0  0  0
 15 17  1  0  0  0  0
 14 15  2  0  0  0  0
 14 23  1  0  0  0  0
 11 12  1  0  0  0  0
 11 13  1  0  0  0  0
 11 14  1  0  0  0  0
  9 10  1  0  0  0  0
  9 11  1  0  0  0  0
  9 25  1  0  0  0  0
  7  8  1  0  0  0  0
  7  9  1  0  0  0  0
 29 30  1  0  0  0  0
 29 31  1  0  0  0  0
 29 32  1  0  0  0  0
 27 28  1  0  0  0  0
 27 29  1  0  0  0  0
M  END
$$$$
default_name
  -OEChem-01062215323D

 32 32  0     1  0  0  0  0  0999 V2000
   -3.8405   -3.7518    1.6252 H   0  0  0  0  0  0  0  0  0  0  0  0
   -3.7965   -2.8768    0.9782 C   0  0  0  0  0  0  0  0  0  0  0  0
   -4.5465   -2.1527    1.2902 H   0  0  0  0  0  0  0  0  0  0  0  0
   -3.9745   -3.1748   -0.0538 H   0  0  0  0  0  0  0  0  0  0  0  0
   -2.4245   -2.2537    1.0882 C   0  0  0  0  0  0  0  0  0  0  0  0
   -1.5805   -2.7478    1.8242 O   0  0  0  0  0  0  0  0  0  0  0  0
   -2.2045   -1.1637    0.3562 N   0  0  0  0  0  0  0  0  0  0  0  0
   -2.9595   -0.7907   -0.2008 H   0  0  0  0  0  0  0  0  0  0  0  0
   -0.9485   -0.4087    0.3482 C   0  0  1  0  0  0  0  0  0  0  0  0
   -0.8069    0.0213   -0.6446 H   0  0  0  0  0  0  0  0  0  0  0  0
   -1.0405    0.7416    1.3653 C   0  0  0  0  0  0  0  0  0  0  0  0
   -1.3245    0.3348    2.3369 H   0  0  0  0  0  0  0  0  0  0  0  0
   -0.0547    1.1958    1.4758 H   0  0  0  0  0  0  0  0  0  0  0  0
   -2.0467    1.8137    0.9923 C   0  0  0  0  0  0  0  0  0  0  0  0
   -1.7093    2.8166    0.0637 C   0  0  0  0  0  0  0  0  0  0  0  0
   -0.7208    2.8416   -0.3728 H   0  0  0  0  0  0  0  0  0  0  0  0
   -2.6615    3.7834   -0.3083 C   0  0  0  0  0  0  0  0  0  0  0  0
   -2.3995    4.5541   -1.0196 H   0  0  0  0  0  0  0  0  0  0  0  0
   -3.9525    3.7482    0.2455 C   0  0  0  0  0  0  0  0  0  0  0  0
   -4.6833    4.4924   -0.0386 H   0  0  0  0  0  0  0  0  0  0  0  0
   -4.2925    2.7483    1.1748 C   0  0  0  0  0  0  0  0  0  0  0  0
   -5.2831    2.7244    1.6048 H   0  0  0  0  0  0  0  0  0  0  0  0
   -3.3396    1.7842    1.5489 C   0  0  0  0  0  0  0  0  0  0  0  0
   -3.6014    1.0175    2.2665 H   0  0  0  0  0  0  0  0  0  0  0  0
    0.2494   -1.3323    0.6335 C   0  0  0  0  0  0  0  0  0  0  0  0
    1.2709   -1.2509   -0.0503 O   0  0  0  0  0  0  0  0  0  0  0  0
    0.1254   -2.2118    1.6355 N   0  0  0  0  0  0  0  0  0  0  0  0
   -0.7622   -2.2560    2.1125 H   0  0  0  0  0  0  0  0  0  0  0  0
    1.1627   -3.1628    2.0280 C   0  0  0  0  0  0  0  0  0  0  0  0
    2.1051   -2.6356    2.1907 H   0  0  0  0  0  0  0  0  0  0  0  0
    0.8752   -3.6766    2.9457 H   0  0  0  0  0  0  0  0  0  0  0  0
    1.3070   -3.8974    1.2335 H   0  0  0  0  0  0  0  0  0  0  0  0
  5  6  2  0  0  0  0
  5  7  1  0  0  0  0
  2  3  1  0  0  0  0
  2  4  1  0  0  0  0
  2  5  1  0  0  0  0
  1  2  1  0  0  0  0
 25 26  2  0  0  0  0
 25 27  1  0  0  0  0
 23 24  1  0  0  0  0
 21 22  1  0  0  0  0
 21 23  2  0  0  0  0
 19 20  1  0  0  0  0
 19 21  1  0  0  0  0
 17 18  1  0  0  0  0
 17 19  2  0  0  0  0
 15 16  1  0  0  0  0
 15 17  1  0  0  0  0
 14 15  2  0  0  0  0
 14 23  1  0  0  0  0
 11 12  1  0  0  0  0
 11 13  1  0  0  0  0
 11 14  1  0  0  0  0
  9 10  1  0  0  0  0
  9 11  1  0  0  0  0
  9 25  1  0  0  0  0
  7  8  1  0  0  0  0
  7  9  1  0  0  0  0
 29 30  1  0  0  0  0
 29 31  1  0  0  0  0
 29 32  1  0  0  0  0
 27 28  1  0  0  0  0
 27 29  1  0  0  0  0
M  END
$$$$
default_name
  -OEChem-01062215323D

 32 32  0     1  0  0  0  0  0999 V2000
   -3.8405   -3.7518    1.6252 H   0  0  0  0  0  0  0  0  0  0  0  0
   -3.7965   -2.8768    0.9782 C   0  0  0  0  0  0  0  0  0  0  0  0
   -4.5465   -2.1527    1.2902 H   0  0  0  0  0  0  0  0  0  0  0  0
   -3.9745   -3.1748   -0.0538 H   0  0  0  0  0  0  0  0  0  0  0  0
   -2.4245   -2.2537    1.0882 C   0  0  0  0  0  0  0  0  0  0  0  0
   -1.5805   -2.7478    1.8242 O   0  0  0  0  0  0  0  0  0  0  0  0
   -2.2045   -1.1637    0.3562 N   0  0  0  0  0  0  0  0  0  0  0  0
   -2.9595   -0.7907   -0.2008 H   0  0  0  0  0  0  0  0  0  0  0  0
   -0.9485   -0.4087    0.3482 C   0  0  1  0  0  0  0  0  0  0  0  0
   -0.8069    0.0213   -0.6446 H   0  0  0  0  0  0  0  0  0  0  0  0
   -1.0405    0.7416    1.3653 C   0  0  0  0  0  0  0  0  0  0  0  0
   -1.3245    0.3348    2.3369 H   0  0  0  0  0  0  0  0  0  0  0  0
   -0.0547    1.1958    1.4758 H   0  0  0  0  0  0  0  0  0  0  0  0
   -2.0467    1.8137    0.9923 C   0  0  0  0  0  0  0  0  0  0  0  0
   -1.7093    2.8166    0.0637 C   0  0  0  0  0  0  0  0  0  0  0  0
   -0.7208    2.8416   -0.3728 H   0  0  0  0  0  0  0  0  0  0  0  0
   -2.6615    3.7834   -0.3083 C   0  0  0  0  0  0  0  0  0  0  0  0
   -2.3995    4.5541   -1.0196 H   0  0  0  0  0  0  0  0  0  0  0  0
   -3.9525    3.7482    0.2455 C   0  0  0  0  0  0  0  0  0  0  0  0
   -4.6833    4.4924   -0.0386 H   0  0  0  0  0  0  0  0  0  0  0  0
   -4.2925    2.7483    1.1748 C   0  0  0  0  0  0  0  0  0  0  0  0
   -5.2831    2.7244    1.6048 H   0  0  0  0  0  0  0  0  0  0  0  0
   -3.3396    1.7842    1.5489 C   0  0  0  0  0  0  0  0  0  0  0  0
   -3.6014    1.0175    2.2665 H   0  0  0  0  0  0  0  0  0  0  0  0
    0.2494   -1.3323    0.6335 C   0  0  0  0  0  0  0  0  0  0  0  0
    1.3548   -1.0797    0.1519 O   0  0  0  0  0  0  0  0  0  0  0  0
    0.0325   -2.4023    1.4088 N   0  0  0  0  0  0  0  0  0  0  0  0
   -0.9120   -2.5719    1.7192 H   0  0  0  0  0  0  0  0  0  0  0  0
    1.0576   -3.3798    1.7667 C   0  0  0  0  0  0  0  0  0  0  0  0
    1.9292   -2.8673    2.1791 H   0  0  0  0  0  0  0  0  0  0  0  0
    0.6689   -4.0800    2.5066 H   0  0  0  0  0  0  0  0  0  0  0  0
    1.3664   -3.9307    0.8762 H   0  0  0  0  0  0  0  0  0  0  0  0
  5  6  2  0  0  0  0
  5  7  1  0  0  0  0
  2  3  1  0  0  0  0
  2  4  1  0  0  0  0
  2  5  1  0  0  0  0
  1  2  1  0  0  0  0
 25 26  2  0  0  0  0
 25 27  1  0  0  0  0
 23 24  1  0  0  0  0
 21 22  1  0  0  0  0
 21 23  2  0  0  0  0
 19 20  1  0  0  0  0
 19 21  1  0  0  0  0
 17 18  1  0  0  0  0
 17 19  2  0  0  0  0
 15 16  1  0  0  0  0
 15 17  1  0  0  0  0
 14 15  2  0  0  0  0
 14 23  1  0  0  0  0
 11 12  1  0  0  0  0
 11 13  1  0  0  0  0
 11 14  1  0  0  0  0
  9 10  1  0  0  0  0
  9 11  1  0  0  0  0
  9 25  1  0  0  0  0
  7  8  1  0  0  0  0
  7  9  1  0  0  0  0
 29 30  1  0  0  0  0
 29 31  1  0  0  0  0
 29 32  1  0  0  0  0
 27 28  1  0  0  0  0
 27 29  1  0  0  0  0
M  END
$$$$
default_name
  -OEChem-01062215323D

 32 32  0     1  0  0  0  0  0999 V2000
   -3.8405   -3.7518    1.6252 H   0  0  0  0  0  0  0  0  0  0  0  0
   -3.7965   -2.8768    0.9782 C   0  0  0  0  0  0  0  0  0  0  0  0
   -4.5465   -2.1527    1.2902 H   0  0  0  0  0  0  0  0  0  0  0  0
   -3.9745   -3.1748   -0.0538 H   0  0  0  0  0  0  0  0  0  0  0  0
   -2.4245   -2.2537    1.0882 C   0  0  0  0  0  0  0  0  0  0  0  0
   -1.5805   -2.7478    1.8242 O   0  0  0  0  0  0  0  0  0  0  0  0
   -2.2045   -1.1637    0.3562 N   0  0  0  0  0  0  0  0  0  0  0  0
   -2.9595   -0.7907   -0.2008 H   0  0  0  0  0  0  0  0  0  0  0  0
   -0.9485   -0.4087    0.3482 C   0  0  1  0  0  0  0  0  0  0  0  0
   -0.8069    0.0213   -0.6446 H   0  0  0  0  0  0  0  0  0  0  0  0
   -1.0405    0.7416    1.3653 C   0  0  0  0  0  0  0  0  0  0  0  0
   -1.3245    0.3348    2.3369 H   0  0  0  0  0  0  0  0  0  0  0  0
   -0.0547    1.1958    1.4758 H   0  0  0  0  0  0  0  0  0  0  0  0
   -2.0467    1.8137    0.9923 C   0  0  0  0  0  0  0  0  0  0  0  0
   -1.7093    2.8166    0.0637 C   0  0  0  0  0  0  0  0  0  0  0  0
   -0.7208    2.8416   -0.3728 H   0  0  0  0  0  0  0  0  0  0  0  0
   -2.6615    3.7834   -0.3083 C   0  0  0  0  0  0  0  0  0  0  0  0
   -2.3995    4.5541   -1.0196 H   0  0  0  0  0  0  0  0  0  0  0  0
   -3.9525    3.7482    0.2455 C   0  0  0  0  0  0  0  0  0  0  0  0
   -4.6833    4.4924   -0.0386 H   0  0  0  0  0  0  0  0  0  0  0  0
   -4.2925    2.7483    1.1748 C   0  0  0  0  0  0  0  0  0  0  0  0
   -5.2831    2.7244    1.6048 H   0  0  0  0  0  0  0  0  0  0  0  0
   -3.3396    1.7842    1.5489 C   0  0  0  0  0  0  0  0  0  0  0  0
   -3.6014    1.0175    2.2665 H   0  0  0  0  0  0  0  0  0  0  0  0
    0.2494   -1.3323    0.6335 C   0  0  0  0  0  0  0  0  0  0  0  0
    1.3962   -0.9509    0.3948 O   0  0  0  0  0  0  0  0  0  0  0  0
   -0.0128   -2.5450    1.1371 N   0  0  0  0  0  0  0  0  0  0  0  0
   -0.9805   -2.8049    1.2525 H   0  0  0  0  0  0  0  0  0  0  0  0
    1.0071   -3.5418    1.4542 C   0  0  0  0  0  0  0  0  0  0  0  0
    1.7723   -3.0971    2.0940 H   0  0  0  0  0  0  0  0  0  0  0  0
    0.5571   -4.3910    1.9691 H   0  0  0  0  0  0  0  0  0  0  0  0
    1.4809   -3.8881    0.5336 H   0  0  0  0  0  0  0  0  0  0  0  0
  5  6  2  0  0  0  0
  5  7  1  0  0  0  0
  2  3  1  0  0  0  0
  2  4  1  0  0  0  0
  2  5  1  0  0  0  0
  1  2  1  0  0  0  0
 25 26  2  0  0  0  0
 25 27  1  0  0  0  0
 23 24  1  0  0  0  0
 21 22  1  0  0  0  0
 21 23  2  0  0  0  0
 19 20  1  0  0  0  0
 19 21  1  0  0  0  0
 17 18  1  0  0  0  0
 17 19  2  0  0  0  0
 15 16  1  0  0  0  0
 15 17  1  0  0  0  0
 14 15  2  0  0  0  0
 14 23  1  0  0  0  0
 11 12  1  0  0  0  0
 11 13  1  0  0  0  0
 11 14  1  0  0  0  0
  9 10  1  0  0  0  0
  9 11  1  0  0  0  0
  9 25  1  0  0  0  0
  7  8  1  0  0  0  0
  7  9  1  0  0  0  0
 29 30  1  0  0  0  0
 29 31  1  0  0  0  0
 29 32  1  0  0  0  0
 27 28  1  0  0  0  0
 27 29  1  0  0  0  0
M  END
$$$$
default_name
  -OEChem-01062215323D

 32 32  0     1  0  0  0  0  0999 V2000
   -3.8405   -3.7518    1.6252 H   0  0  0  0  0  0  0  0  0  0  0  0
   -3.7965   -2.8768    0.9782 C   0  0  0  0  0  0  0  0  0  0  0  0
   -4.5465   -2.1527    1.2902 H   0  0  0  0  0  0  0  0  0  0  0  0
   -3.9745   -3.1748   -0.0538 H   0  0  0  0  0  0  0  0  0  0  0  0
   -2.4245   -2.2537    1.0882 C   0  0  0  0  0  0  0  0  0  0  0  0
   -1.5805   -2.7478    1.8242 O   0  0  0  0  0  0  0  0  0  0  0  0
   -2.2045   -1.1637    0.3562 N   0  0  0  0  0  0  0  0  0  0  0  0
   -2.9595   -0.7907   -0.2008 H   0  0  0  0  0  0  0  0  0  0  0  0
   -0.9485   -0.4087    0.3482 C   0  0  1  0  0  0  0  0  0  0  0  0
   -0.8069    0.0213   -0.6446 H   0  0  0  0  0  0  0  0  0  0  0  0
   -1.0405    0.7416    1.3653 C   0  0  0  0  0  0  0  0  0  0  0  0
   -1.3245    0.3348    2.3369 H   0  0  0  0  0  0  0  0  0  0  0  0
   -0.0547    1.1958    1.4758 H   0  0  0  0  0  0  0  0  0  0  0  0
   -2.0467    1.8137    0.9923 C   0  0  0  0  0  0  0  0  0  0  0  0
   -1.7093    2.8166    0.0637 C   0  0  0  0  0  0  0  0  0  0  0  0
   -0.7208    2.8416   -0.3728 H   0  0  0  0  0  0  0  0  0  0  0  0
   -2.6615    3.7834   -0.3083 C   0  0  0  0  0  0  0  0  0  0  0  0
   -2.3995    4.5541   -1.0196 H   0  0  0  0  0  0  0  0  0  0  0  0
   -3.9525    3.7482    0.2455 C   0  0  0  0  0  0  0  0  0  0  0  0
   -4.6833    4.4924   -0.0386 H   0  0  0  0  0  0  0  0  0  0  0  0
   -4.2925    2.7483    1.1748 C   0  0  0  0  0  0  0  0  0  0  0  0
   -5.2831    2.7244    1.6048 H   0  0  0  0  0  0  0  0  0  0  0  0
   -3.3396    1.7842    1.5489 C   0  0  0  0  0  0  0  0  0  0  0  0
   -3.6014    1.0175    2.2665 H   0  0  0  0  0  0  0  0  0  0  0  0
    0.2494   -1.3323    0.6335 C   0  0  0  0  0  0  0  0  0  0  0  0
    1.3923   -0.8735    0.6617 O   0  0  0  0  0  0  0  0  0  0  0  0
   -0.0075   -2.6303    0.8389 N   0  0  0  0  0  0  0  0  0  0  0  0
   -0.9630   -2.9392    0.7440 H   0  0  0  0  0  0  0  0  0  0  0  0
    1.0146   -3.6377    1.1119 C   0  0  0  0  0  0  0  0  0  0  0  0
    1.6449   -3.3096    1.9411 H   0  0  0  0  0  0  0  0  0  0  0  0
    0.5475   -4.5885    1.3699 H   0  0  0  0  0  0  0  0  0  0  0  0
    1.6426   -3.7724    0.2291 H   0  0  0  0  0  0  0  0  0  0  0  0
  5  6  2  0  0  0  0
  5  7  1  0  0  0  0
  2  3  1  0  0  0  0
  2  4  1  0  0  0  0
  2  5  1  0  0  0  0
  1  2  1  0  0  0  0
 25 26  2  0  0  0  0
 25 27  1  0  0  0  0
 23 24  1  0  0  0  0
 21 22  1  0  0  0  0
 21 23  2  0  0  0  0
 19 20  1  0  0  0  0
 19 21  1  0  0  0  0
 17 18  1  0  0  0  0
 17 19  2  0  0  0  0
 15 16  1  0  0  0  0
 15 17  1  0  0  0  0
 14 15  2  0  0  0  0
 14 23  1  0  0  0  0
 11 12  1  0  0  0  0
 11 13  1  0  0  0  0
 11 14  1  0  0  0  0
  9 10  1  0  0  0  0
  9 11  1  0  0  0  0
  9 25  1  0  0  0  0
  7  8  1  0  0  0  0
  7  9  1  0  0  0  0
 29 30  1  0  0  0  0
 29 31  1  0  0  0  0
 29 32  1  0  0  0  0
 27 28  1  0  0  0  0
 27 29  1  0  0  0  0
M  END
$$$$
default_name
  -OEChem-01062215323D

 32 32  0     1  0  0  0  0  0999 V2000
   -3.8405   -3.7518    1.6252 H   0  0  0  0  0  0  0  0  0  0  0  0
   -3.7965   -2.8768    0.9782 C   0  0  0  0  0  0  0  0  0  0  0  0
   -4.5465   -2.1527    1.2902 H   0  0  0  0  0  0  0  0  0  0  0  0
   -3.9745   -3.1748   -0.0538 H   0  0  0  0  0  0  0  0  0  0  0  0
   -2.4245   -2.2537    1.0882 C   0  0  0  0  0  0  0  0  0  0  0  0
   -1.5805   -2.7478    1.8242 O   0  0  0  0  0  0  0  0  0  0  0  0
   -2.2045   -1.1637    0.3562 N   0  0  0  0  0  0  0  0  0  0  0  0
   -2.9595   -0.7907   -0.2008 H   0  0  0  0  0  0  0  0  0  0  0  0
   -0.9485   -0.4087    0.3482 C   0  0  1  0  0  0  0  0  0  0  0  0
   -0.8069    0.0213   -0.6446 H   0  0  0  0  0  0  0  0  0  0  0  0
   -1.0405    0.7416    1.3653 C   0  0  0  0  0  0  0  0  0  0  0  0
   -1.3245    0.3348    2.3369 H   0  0  0  0  0  0  0  0  0  0  0  0
   -0.0547    1.1958    1.4758 H   0  0  0  0  0  0  0  0  0  0  0  0
   -2.0467    1.8137    0.9923 C   0  0  0  0  0  0  0  0  0  0  0  0
   -1.7093    2.8166    0.0637 C   0  0  0  0  0  0  0  0  0  0  0  0
   -0.7208    2.8416   -0.3728 H   0  0  0  0  0  0  0  0  0  0  0  0
   -2.6615    3.7834   -0.3083 C   0  0  0  0  0  0  0  0  0  0  0  0
   -2.3995    4.5541   -1.0196 H   0  0  0  0  0  0  0  0  0  0  0  0
   -3.9525    3.7482    0.2455 C   0  0  0  0  0  0  0  0  0  0  0  0
   -4.6833    4.4924   -0.0386 H   0  0  0  0  0  0  0  0  0  0  0  0
   -4.2925    2.7483    1.1748 C   0  0  0  0  0  0  0  0  0  0  0  0
   -5.2831    2.7244    1.6048 H   0  0  0  0  0  0  0  0  0  0  0  0
   -3.3396    1.7842    1.5489 C   0  0  0  0  0  0  0  0  0  0  0  0
   -3.6014    1.0175    2.2665 H   0  0  0  0  0  0  0  0  0  0  0  0
    0.2494   -1.3323    0.6335 C   0  0  0  0  0  0  0  0  0  0  0  0
    1.3434   -0.8527    0.9346 O   0  0  0  0  0  0  0  0  0  0  0  0
    0.0479   -2.6524    0.5344 N   0  0  0  0  0  0  0  0  0  0  0  0
   -0.8607   -2.9657    0.2286 H   0  0  0  0  0  0  0  0  0  0  0  0
    1.0797   -3.6611    0.7631 C   0  0  0  0  0  0  0  0  0  0  0  0
    1.5558   -3.4901    1.7309 H   0  0  0  0  0  0  0  0  0  0  0  0
    0.6407   -4.6591    0.7499 H   0  0  0  0  0  0  0  0  0  0  0  0
    1.8406   -3.5915   -0.0167 H   0  0  0  0  0  0  0  0  0  0  0  0
  5  6  2  0  0  0  0
  5  7  1  0  0  0  0
  2  3  1  0  0  0  0
  2  4  1  0  0  0  0
  2  5  1  0  0  0  0
  1  2  1  0  0  0  0
 25 26  2  0  0  0  0
 25 27  1  0  0  0  0
 23 24  1  0  0  0  0
 21 22  1  0  0  0  0
 21 23  2  0  0  0  0
 19 20  1  0  0  0  0
 19 21  1  0  0  0  0
 17 18  1  0  0  0  0
 17 19  2  0  0  0  0
 15 16  1  0  0  0  0
 15 17  1  0  0  0  0
 14 15  2  0  0  0  0
 14 23  1  0  0  0  0
 11 12  1  0  0  0  0
 11 13  1  0  0  0  0
 11 14  1  0  0  0  0
  9 10  1  0  0  0  0
  9 11  1  0  0  0  0
  9 25  1  0  0  0  0
  7  8  1  0  0  0  0
  7  9  1  0  0  0  0
 29 30  1  0  0  0  0
 29 31  1  0  0  0  0
 29 32  1  0  0  0  0
 27 28  1  0  0  0  0
 27 29  1  0  0  0  0
M  END
$$$$
default_name
  -OEChem-01062215323D

 32 32  0     1  0  0  0  0  0999 V2000
   -3.8405   -3.7518    1.6252 H   0  0  0  0  0  0  0  0  0  0  0  0
   -3.7965   -2.8768    0.9782 C   0  0  0  0  0  0  0  0  0  0  0  0
   -4.5465   -2.1527    1.2902 H   0  0  0  0  0  0  0  0  0  0  0  0
   -3.9745   -3.1748   -0.0538 H   0  0  0  0  0  0  0  0  0  0  0  0
   -2.4245   -2.2537    1.0882 C   0  0  0  0  0  0  0  0  0  0  0  0
   -1.5805   -2.7478    1.8242 O   0  0  0  0  0  0  0  0  0  0  0  0
   -2.2045   -1.1637    0.3562 N   0  0  0  0  0  0  0  0  0  0  0  0
   -2.9595   -0.7907   -0.2008 H   0  0  0  0  0  0  0  0  0  0  0  0
   -0.9485   -0.4087    0.3482 C   0  0  1  0  0  0  0  0  0  0  0  0
   -0.8069    0.0213   -0.6446 H   0  0  0  0  0  0  0  0  0  0  0  0
   -1.0405    0.7416    1.3653 C   0  0  0  0  0  0  0  0  0  0  0  0
   -1.3245    0.3348    2.3369 H   0  0  0  0  0  0  0  0  0  0  0  0
   -0.0547    1.1958    1.4758 H   0  0  0  0  0  0  0  0  0  0  0  0
   -2.0467    1.8137    0.9923 C   0  0  0  0  0  0  0  0  0  0  0  0
   -1.7093    2.8166    0.0637 C   0  0  0  0  0  0  0  0  0  0  0  0
   -0.7208    2.8416   -0.3728 H   0  0  0  0  0  0  0  0  0  0  0  0
   -2.6615    3.7834   -0.3083 C   0  0  0  0  0  0  0  0  0  0  0  0
   -2.3995    4.5541   -1.0196 H   0  0  0  0  0  0  0  0  0  0  0  0
   -3.9525    3.7482    0.2455 C   0  0  0  0  0  0  0  0  0  0  0  0
   -4.6833    4.4924   -0.0386 H   0  0  0  0  0  0  0  0  0  0  0  0
   -4.2925    2.7483    1.1748 C   0  0  0  0  0  0  0  0  0  0  0  0
   -5.2831    2.7244    1.6048 H   0  0  0  0  0  0  0  0  0  0  0  0
   -3.3396    1.7842    1.5489 C   0  0  0  0  0  0  0  0  0  0  0  0
   -3.6014    1.0175    2.2665 H   0  0  0  0  0  0  0  0  0  0  0  0
    0.2494   -1.3323    0.6335 C   0  0  0  0  0  0  0  0  0  0  0  0
    1.2528   -0.8899    1.1947 O   0  0  0  0  0  0  0  0  0  0  0  0
    0.1499   -2.6098    0.2445 N   0  0  0  0  0  0  0  0  0  0  0  0
   -0.6806   -2.8826   -0.2588 H   0  0  0  0  0  0  0  0  0  0  0  0
    1.1978   -3.6103    0.4316 C   0  0  0  0  0  0  0  0  0  0  0  0
    1.5111   -3.6263    1.4776 H   0  0  0  0  0  0  0  0  0  0  0  0
    0.8304   -4.5979    0.1512 H   0  0  0  0  0  0  0  0  0  0  0  0
    2.0613   -3.3578   -0.1869 H   0  0  0  0  0  0  0  0  0  0  0  0
  5  6  2  0  0  0  0
  5  7  1  0  0  0  0
  2  3  1  0  0  0  0
  2  4  1  0  0  0  0
  2  5  1  0  0  0  0
  1  2  1  0  0  0  0
 25 26  2  0  0  0  0
 25 27  1  0  0  0  0
 23 24  1  0  0  0  0
 21 22  1  0  0  0  0
 21 23  2  0  0  0  0
 19 20  1  0  0  0  0
 19 21  1  0  0  0  0
 17 18  1  0  0  0  0
 17 19  2  0  0  0  0
 15 16  1  0  0  0  0
 15 17  1  0  0  0  0
 14 15  2  0  0  0  0
 14 23  1  0  0  0  0
 11 12  1  0  0  0  0
 11 13  1  0  0  0  0
 11 14  1  0  0  0  0
  9 10  1  0  0  0  0
  9 11  1  0  0  0  0
  9 25  1  0  0  0  0
  7  8  1  0  0  0  0
  7  9  1  0  0  0  0
 29 30  1  0  0  0  0
 29 31  1  0  0  0  0
 29 32  1  0  0  0  0
 27 28  1  0  0  0  0
 27 29  1  0  0  0  0
M  END
$$$$
default_name
  -OEChem-01062215323D

 32 32  0     1  0  0  0  0  0999 V2000
   -3.8405   -3.7518    1.6252 H   0  0  0  0  0  0  0  0  0  0  0  0
   -3.7965   -2.8768    0.9782 C   0  0  0  0  0  0  0  0  0  0  0  0
   -4.5465   -2.1527    1.2902 H   0  0  0  0  0  0  0  0  0  0  0  0
   -3.9745   -3.1748   -0.0538 H   0  0  0  0  0  0  0  0  0  0  0  0
   -2.4245   -2.2537    1.0882 C   0  0  0  0  0  0  0  0  0  0  0  0
   -1.5805   -2.7478    1.8242 O   0  0  0  0  0  0  0  0  0  0  0  0
   -2.2045   -1.1637    0.3562 N   0  0  0  0  0  0  0  0  0  0  0  0
   -2.9595   -0.7907   -0.2008 H   0  0  0  0  0  0  0  0  0  0  0  0
   -0.9485   -0.4087    0.3482 C   0  0  1  0  0  0  0  0  0  0  0  0
   -0.8069    0.0213   -0.6446 H   0  0  0  0  0  0  0  0  0  0  0  0
   -1.0405    0.7416    1.3653 C   0  0  0  0  0  0  0  0  0  0  0  0
   -1.3245    0.3348    2.3369 H   0  0  0  0  0  0  0  0  0  0  0  0
   -0.0547    1.1958    1.4758 H   0  0  0  0  0  0  0  0  0  0  0  0
   -2.0467    1.8137    0.9923 C   0  0  0  0  0  0  0  0  0  0  0  0
   -1.7093    2.8166    0.0637 C   0  0  0  0  0  0  0  0  0  0  0  0
   -0.7208    2.8416   -0.3728 H   0  0  0  0  0  0  0  0  0  0  0  0
   -2.6615    3.7834   -0.3083 C   0  0  0  0  0  0  0  0  0  0  0  0
   -2.3995    4.5541   -1.0196 H   0  0  0  0  0  0  0  0  0  0  0  0
   -3.9525    3.7482    0.2455 C   0  0  0  0  0  0  0  0  0  0  0  0
   -4.6833    4.4924   -0.0386 H   0  0  0  0  0  0  0  0  0  0  0  0
   -4.2925    2.7483    1.1748 C   0  0  0  0  0  0  0  0  0  0  0  0
   -5.2831    2.7244    1.6048 H   0  0  0  0  0  0  0  0  0  0  0  0
   -3.3396    1.7842    1.5489 C   0  0  0  0  0  0  0  0  0  0  0  0
   -3.6014    1.0175    2.2665 H   0  0  0  0  0  0  0  0  0  0  0  0
    0.2494   -1.3323    0.6335 C   0  0  0  0  0  0  0  0  0  0  0  0
    1.1266   -0.9825    1.4244 O   0  0  0  0  0  0  0  0  0  0  0  0
    0.2913   -2.5053   -0.0111 N   0  0  0  0  0  0  0  0  0  0  0  0
   -0.4349   -2.6955   -0.6848 H   0  0  0  0  0  0  0  0  0  0  0  0
    1.3609   -3.4888    0.1400 C   0  0  0  0  0  0  0  0  0  0  0  0
    1.5137   -3.7091    1.1986 H   0  0  0  0  0  0  0  0  0  0  0  0
    1.1037   -4.4091   -0.3852 H   0  0  0  0  0  0  0  0  0  0  0  0
    2.2897   -3.0873   -0.2699 H   0  0  0  0  0  0  0  0  0  0  0  0
  5  6  2  0  0  0  0
  5  7  1  0  0  0  0
  2  3  1  0  0  0  0
  2  4  1  0  0  0  0
  2  5  1  0  0  0  0
  1  2  1  0  0  0  0
 25 26  2  0  0  0  0
 25 27  1  0  0  0  0
 23 24  1  0  0  0  0
 21 22  1  0  0  0  0
 21 23  2  0  0  0  0
 19 20  1  0  0  0  0
 19 21  1  0  0  0  0
 17 18  1  0  0  0  0
 17 19  2  0  0  0  0
 15 16  1  0  0  0  0
 15 17  1  0  0  0  0
 14 15  2  0  0  0  0
 14 23  1  0  0  0  0
 11 12  1  0  0  0  0
 11 13  1  0  0  0  0
 11 14  1  0  0  0  0
  9 10  1  0  0  0  0
  9 11  1  0  0  0  0
  9 25  1  0  0  0  0
  7  8  1  0  0  0  0
  7  9  1  0  0  0  0
 29 30  1  0  0  0  0
 29 31  1  0  0  0  0
 29 32  1  0  0  0  0
 27 28  1  0  0  0  0
 27 29  1  0  0  0  0
M  END
$$$$
default_name
  -OEChem-01062215323D

 32 32  0     1  0  0  0  0  0999 V2000
   -3.8405   -3.7518    1.6252 H   0  0  0  0  0  0  0  0  0  0  0  0
   -3.7965   -2.8768    0.9782 C   0  0  0  0  0  0  0  0  0  0  0  0
   -4.5465   -2.1527    1.2902 H   0  0  0  0  0  0  0  0  0  0  0  0
   -3.9745   -3.1748   -0.0538 H   0  0  0  0  0  0  0  0  0  0  0  0
   -2.4245   -2.2537    1.0882 C   0  0  0  0  0  0  0  0  0  0  0  0
   -1.5805   -2.7478    1.8242 O   0  0  0  0  0  0  0  0  0  0  0  0
   -2.2045   -1.1637    0.3562 N   0  0  0  0  0  0  0  0  0  0  0  0
   -2.9595   -0.7907   -0.2008 H   0  0  0  0  0  0  0  0  0  0  0  0
   -0.9485   -0.4087    0.3482 C   0  0  1  0  0  0  0  0  0  0  0  0
   -0.8069    0.0213   -0.6446 H   0  0  0  0  0  0  0  0  0  0  0  0
   -1.0405    0.7416    1.3653 C   0  0  0  0  0  0  0  0  0  0  0  0
   -1.3245    0.3348    2.3369 H   0  0  0  0  0  0  0  0  0  0  0  0
   -0.0547    1.1958    1.4758 H   0  0  0  0  0  0  0  0  0  0  0  0
   -2.0467    1.8137    0.9923 C   0  0  0  0  0  0  0  0  0  0  0  0
   -1.7093    2.8166    0.0637 C   0  0  0  0  0  0  0  0  0  0  0  0
   -0.7208    2.8416   -0.3728 H   0  0  0  0  0  0  0  0  0  0  0  0
   -2.6615    3.7834   -0.3083 C   0  0  0  0  0  0  0  0  0  0  0  0
   -2.3995    4.5541   -1.0196 H   0  0  0  0  0  0  0  0  0  0  0  0
   -3.9525    3.7482    0.2455 C   0  0  0  0  0  0  0  0  0  0  0  0
   -4.6833    4.4924   -0.0386 H   0  0  0  0  0  0  0  0  0  0  0  0
   -4.2925    2.7483    1.1748 C   0  0  0  0  0  0  0  0  0  0  0  0
   -5.2831    2.7244    1.6048 H   0  0  0  0  0  0  0  0  0  0  0  0
   -3.3396    1.7842    1.5489 C   0  0  0  0  0  0  0  0  0  0  0  0
   -3.6014    1.0175    2.2665 H   0  0  0  0  0  0  0  0  0  0  0  0
    0.2494   -1.3323    0.6335 C   0  0  0  0  0  0  0  0  0  0  0  0
    0.9736   -1.1244    1.6081 O   0  0  0  0  0  0  0  0  0  0  0  0
    0.4626   -2.3461   -0.2151 N   0  0  0  0  0  0  0  0  0  0  0  0
   -0.1404   -2.4172   -1.0205 H   0  0  0  0  0  0  0  0  0  0  0  0
    1.5579   -3.3049   -0.0919 C   0  0  0  0  0  0  0  0  0  0  0  0
    1.5636   -3.7327    0.9128 H   0  0  0  0  0  0  0  0  0  0  0  0
    1.4420   -4.1056   -0.8229 H   0  0  0  0  0  0  0  0  0  0  0  0
    2.5102   -2.7982   -0.2602 H   0  0  0  0  0  0  0  0  0  0  0  0
  5  6  2  0  0  0  0
  5  7  1  0  0  0  0
  2  3  1  0  0  0  0
  2  4  1  0  0  0  0
  2  5  1  0  0  0  0
  1  2  1  0  0  0  0
 25 26  2  0  0  0  0
 25 27  1  0  0  0  0
 23 24  1  0  0  0  0
 21 22  1  0  0  0  0
 21 23  2  0  0  0  0
 19 20  1  0  0  0  0
 19 21  1  0  0  0  0
 17 18  1  0  0  0  0
 17 19  2  0  0  0  0
 15 16  1  0  0  0  0
 15 17  1  0  0  0  0
 14 15  2  0  0  0  0
 14 23  1  0  0  0  0
 11 12  1  0  0  0  0
 11 13  1  0  0  0  0
 11 14  1  0  0  0  0
  9 10  1  0  0  0  0
  9 11  1  0  0  0  0
  9 25  1  0  0  0  0
  7  8  1  0  0  0  0
  7  9  1  0  0  0  0
 29 30  1  0  0  0  0
 29 31  1  0  0  0  0
 29 32  1  0  0  0  0
 27 28  1  0  0  0  0
 27 29  1  0  0  0  0
M  END
$$$$
default_name
  -OEChem-01062215323D

 32 32  0     1  0  0  0  0  0999 V2000
   -3.8405   -3.7518    1.6252 H   0  0  0  0  0  0  0  0  0  0  0  0
   -3.7965   -2.8768    0.9782 C   0  0  0  0  0  0  0  0  0  0  0  0
   -4.5465   -2.1527    1.2902 H   0  0  0  0  0  0  0  0  0  0  0  0
   -3.9745   -3.1748   -0.0538 H   0  0  0  0  0  0  0  0  0  0  0  0
   -2.4245   -2.2537    1.0882 C   0  0  0  0  0  0  0  0  0  0  0  0
   -1.5805   -2.7478    1.8242 O   0  0  0  0  0  0  0  0  0  0  0  0
   -2.2045   -1.1637    0.3562 N   0  0  0  0  0  0  0  0  0  0  0  0
   -2.9595   -0.7907   -0.2008 H   0  0  0  0  0  0  0  0  0  0  0  0
   -0.9485   -0.4087    0.3482 C   0  0  1  0  0  0  0  0  0  0  0  0
   -0.8069    0.0213   -0.6446 H   0  0  0  0  0  0  0  0  0  0  0  0
   -1.0405    0.7416    1.3653 C   0  0  0  0  0  0  0  0  0  0  0  0
   -1.3245    0.3348    2.3369 H   0  0  0  0  0  0  0  0  0  0  0  0
   -0.0547    1.1958    1.4758 H   0  0  0  0  0  0  0  0  0  0  0  0
   -2.0467    1.8137    0.9923 C   0  0  0  0  0  0  0  0  0  0  0  0
   -1.7093    2.8166    0.0637 C   0  0  0  0  0  0  0  0  0  0  0  0
   -0.7208    2.8416   -0.3728 H   0  0  0  0  0  0  0  0  0  0  0  0
   -2.6615    3.7834   -0.3083 C   0  0  0  0  0  0  0  0  0  0  0  0
   -2.3995    4.5541   -1.0196 H   0  0  0  0  0  0  0  0  0  0  0  0
   -3.9525    3.7482    0.2455 C   0  0  0  0  0  0  0  0  0  0  0  0
   -4.6833    4.4924   -0.0386 H   0  0  0  0  0  0  0  0  0  0  0  0
   -4.2925    2.7483    1.1748 C   0  0  0  0  0  0  0  0  0  0  0  0
   -5.2831    2.7244    1.6048 H   0  0  0  0  0  0  0  0  0  0  0  0
   -3.3396    1.7842    1.5489 C   0  0  0  0  0  0  0  0  0  0  0  0
   -3.6014    1.0175    2.2665 H   0  0  0  0  0  0  0  0  0  0  0  0
    0.2494   -1.3323    0.6335 C   0  0  0  0  0  0  0  0  0  0  0  0
    0.8040   -1.3057    1.7331 O   0  0  0  0  0  0  0  0  0  0  0  0
    0.6521   -2.1430   -0.3533 N   0  0  0  0  0  0  0  0  0  0  0  0
    0.1829   -2.0666   -1.2429 H   0  0  0  0  0  0  0  0  0  0  0  0
    1.7754   -3.0711   -0.2483 C   0  0  0  0  0  0  0  0  0  0  0  0
    1.6572   -3.6956    0.6397 H   0  0  0  0  0  0  0  0  0  0  0  0
    1.8221   -3.7080   -1.1320 H   0  0  0  0  0  0  0  0  0  0  0  0
    2.7078   -2.5104   -0.1583 H   0  0  0  0  0  0  0  0  0  0  0  0
  5  6  2  0  0  0  0
  5  7  1  0  0  0  0
  2  3  1  0  0  0  0
  2  4  1  0  0  0  0
  2  5  1  0  0  0  0
  1  2  1  0  0  0  0
 25 26  2  0  0  0  0
 25 27  1  0  0  0  0
 23 24  1  0  0  0  0
 21 22  1  0  0  0  0
 21 23  2  0  0  0  0
 19 20  1  0  0  0  0
 19 21  1  0  0  0  0
 17 18  1  0  0  0  0
 17 19  2  0  0  0  0
 15 16  1  0  0  0  0
 15 17  1  0  0  0  0
 14 15  2  0  0  0  0
 14 23  1  0  0  0  0
 11 12  1  0  0  0  0
 11 13  1  0  0  0  0
 11 14  1  0  0  0  0
  9 10  1  0  0  0  0
  9 11  1  0  0  0  0
  9 25  1  0  0  0  0
  7  8  1  0  0  0  0
  7  9  1  0  0  0  0
 29 30  1  0  0  0  0
 29 31  1  0  0  0  0
 29 32  1  0  0  0  0
 27 28  1  0  0  0  0
 27 29  1  0  0  0  0
M  END
$$$$
default_name
  -OEChem-01062215323D

 32 32  0     1  0  0  0  0  0999 V2000
   -3.8405   -3.7518    1.6252 H   0  0  0  0  0  0  0  0  0  0  0  0
   -3.7965   -2.8768    0.9782 C   0  0  0  0  0  0  0  0  0  0  0  0
   -4.5465   -2.1527    1.2902 H   0  0  0  0  0  0  0  0  0  0  0  0
   -3.9745   -3.1748   -0.0538 H   0  0  0  0  0  0  0  0  0  0  0  0
   -2.4245   -2.2537    1.0882 C   0  0  0  0  0  0  0  0  0  0  0  0
   -1.5805   -2.7478    1.8242 O   0  0  0  0  0  0  0  0  0  0  0  0
   -2.2045   -1.1637    0.3562 N   0  0  0  0  0  0  0  0  0  0  0  0
   -2.9595   -0.7907   -0.2008 H   0  0  0  0  0  0  0  0  0  0  0  0
   -0.9485   -0.4087    0.3482 C   0  0  1  0  0  0  0  0  0  0  0  0
   -0.8069    0.0213   -0.6446 H   0  0  0  0  0  0  0  0  0  0  0  0
   -1.0405    0.7416    1.3653 C   0  0  0  0  0  0  0  0  0  0  0  0
   -1.3245    0.3348    2.3369 H   0  0  0  0  0  0  0  0  0  0  0  0
   -0.0547    1.1958    1.4758 H   0  0  0  0  0  0  0  0  0  0  0  0
   -2.0467    1.8137    0.9923 C   0  0  0  0  0  0  0  0  0  0  0  0
   -1.7093    2.8166    0.0637 C   0  0  0  0  0  0  0  0  0  0  0  0
   -0.7208    2.8416   -0.3728 H   0  0  0  0  0  0  0  0  0  0  0  0
   -2.6615    3.7834   -0.3083 C   0  0  0  0  0  0  0  0  0  0  0  0
   -2.3995    4.5541   -1.0196 H   0  0  0  0  0  0  0  0  0  0  0  0
   -3.9525    3.7482    0.2455 C   0  0  0  0  0  0  0  0  0  0  0  0
   -4.6833    4.4924   -0.0386 H   0  0  0  0  0  0  0  0  0  0  0  0
   -4.2925    2.7483    1.1748 C   0  0  0  0  0  0  0  0  0  0  0  0
   -5.2831    2.7244    1.6048 H   0  0  0  0  0  0  0  0  0  0  0  0
   -3.3396    1.7842    1.5489 C   0  0  0  0  0  0  0  0  0  0  0  0
   -3.6014    1.0175    2.2665 H   0  0  0  0  0  0  0  0  0  0  0  0
    0.2494   -1.3323    0.6335 C   0  0  0  0  0  0  0  0  0  0  0  0
    0.6295   -1.5142    1.7910 O   0  0  0  0  0  0  0  0  0  0  0  0
    0.8468   -1.9099   -0.4166 N   0  0  0  0  0  0  0  0  0  0  0  0
    0.5128   -1.6677   -1.3370 H   0  0  0  0  0  0  0  0  0  0  0  0
    1.9986   -2.8033   -0.3185 C   0  0  0  0  0  0  0  0  0  0  0  0
    1.7883   -3.6002    0.3980 H   0  0  0  0  0  0  0  0  0  0  0  0
    2.2182   -3.2435   -1.2915 H   0  0  0  0  0  0  0  0  0  0  0  0
    2.8691   -2.2434    0.0287 H   0  0  0  0  0  0  0  0  0  0  0  0
  5  6  2  0  0  0  0
  5  7  1  0  0  0  0
  2  3  1  0  0  0  0
  2  4  1  0  0  0  0
  2  5  1  0  0  0  0
  1  2  1  0  0  0  0
 25 26  2  0  0  0  0
 25 27  1  0  0  0  0
 23 24  1  0  0  0  0
 21 22  1  0  0  0  0
 21 23  2  0  0  0  0
 19 20  1  0  0  0  0
 19 21  1  0  0  0  0
 17 18  1  0  0  0  0
 17 19  2  0  0  0  0
 15 16  1  0  0  0  0
 15 17  1  0  0  0  0
 14 15  2  0  0  0  0
 14 23  1  0  0  0  0
 11 12  1  0  0  0  0
 11 13  1  0  0  0  0
 11 14  1  0  0  0  0
  9 10  1  0  0  0  0
  9 11  1  0  0  0  0
  9 25  1  0  0  0  0
  7  8  1  0  0  0  0
  7  9  1  0  0  0  0
 29 30  1  0  0  0  0
 29 31  1  0  0  0  0
 29 32  1  0  0  0  0
 27 28  1  0  0  0  0
 27 29  1  0  0  0  0
M  END
$$$$
default_name
  -OEChem-01062215323D

 32 32  0     1  0  0  0  0  0999 V2000
   -3.8405   -3.7518    1.6252 H   0  0  0  0  0  0  0  0  0  0  0  0
   -3.7965   -2.8768    0.9782 C   0  0  0  0  0  0  0  0  0  0  0  0
   -4.5465   -2.1527    1.2902 H   0  0  0  0  0  0  0  0  0  0  0  0
   -3.9745   -3.1748   -0.0538 H   0  0  0  0  0  0  0  0  0  0  0  0
   -2.4245   -2.2537    1.0882 C   0  0  0  0  0  0  0  0  0  0  0  0
   -1.5805   -2.7478    1.8242 O   0  0  0  0  0  0  0  0  0  0  0  0
   -2.2045   -1.1637    0.3562 N   0  0  0  0  0  0  0  0  0  0  0  0
   -2.9595   -0.7907   -0.2008 H   0  0  0  0  0  0  0  0  0  0  0  0
   -0.9485   -0.4087    0.3482 C   0  0  1  0  0  0  0  0  0  0  0  0
   -0.8069    0.0213   -0.6446 H   0  0  0  0  0  0  0  0  0  0  0  0
   -1.0405    0.7416    1.3653 C   0  0  0  0  0  0  0  0  0  0  0  0
   -1.3245    0.3348    2.3369 H   0  0  0  0  0  0  0  0  0  0  0  0
   -0.0547    1.1958    1.4758 H   0  0  0  0  0  0  0  0  0  0  0  0
   -2.0467    1.8137    0.9923 C   0  0  0  0  0  0  0  0  0  0  0  0
   -1.7093    2.8166    0.0637 C   0  0  0  0  0  0  0  0  0  0  0  0
   -0.7208    2.8416   -0.3728 H   0  0  0  0  0  0  0  0  0  0  0  0
   -2.6615    3.7834   -0.3083 C   0  0  0  0  0  0  0  0  0  0  0  0
   -2.3995    4.5541   -1.0196 H   0  0  0  0  0  0  0  0  0  0  0  0
   -3.9525    3.7482    0.2455 C   0  0  0  0  0  0  0  0  0  0  0  0
   -4.6833    4.4924   -0.0386 H   0  0  0  0  0  0  0  0  0  0  0  0
   -4.2925    2.7483    1.1748 C   0  0  0  0  0  0  0  0  0  0  0  0
   -5.2831    2.7244    1.6048 H   0  0  0  0  0  0  0  0  0  0  0  0
   -3.3396    1.7842    1.5489 C   0  0  0  0  0  0  0  0  0  0  0  0
   -3.6014    1.0175    2.2665 H   0  0  0  0  0  0  0  0  0  0  0  0
    0.2494   -1.3323    0.6335 C   0  0  0  0  0  0  0  0  0  0  0  0
    0.4619   -1.7355    1.7779 O   0  0  0  0  0  0  0  0  0  0  0  0
    1.0336   -1.6627   -0.4005 N   0  0  0  0  0  0  0  0  0  0  0  0
    0.8270   -1.2476   -1.2962 H   0  0  0  0  0  0  0  0  0  0  0  0
    2.2122   -2.5198   -0.2976 C   0  0  0  0  0  0  0  0  0  0  0  0
    1.9479   -3.4531    0.2040 H   0  0  0  0  0  0  0  0  0  0  0  0
    2.6033   -2.7437   -1.2905 H   0  0  0  0  0  0  0  0  0  0  0  0
    2.9830   -2.0155    0.2882 H   0  0  0  0  0  0  0  0  0  0  0  0
  5  6  2  0  0  0  0
  5  7  1  0  0  0  0
  2  3  1  0  0  0  0
  2  4  1  0  0  0  0
  2  5  1  0  0  0  0
  1  2  1  0  0  0  0
 25 26  2  0  0  0  0
 25 27  1  0  0  0  0
 23 24  1  0  0  0  0
 21 22  1  0  0  0  0
 21 23  2  0  0  0  0
 19 20  1  0  0  0  0
 19 21  1  0  0  0  0
 17 18  1  0  0  0  0
 17 19  2  0  0  0  0
 15 16  1  0  0  0  0
 15 17  1  0  0  0  0
 14 15  2  0  0  0  0
 14 23  1  0  0  0  0
 11 12  1  0  0  0  0
 11 13  1  0  0  0  0
 11 14  1  0  0  0  0
  9 10  1  0  0  0  0
  9 11  1  0  0  0  0
  9 25  1  0  0  0  0
  7  8  1  0  0  0  0
  7  9  1  0  0  0  0
 29 30  1  0  0  0  0
 29 31  1  0  0  0  0
 29 32  1  0  0  0  0
 27 28  1  0  0  0  0
 27 29  1  0  0  0  0
M  END
$$$$
default_name
  -OEChem-01062215323D

 32 32  0     1  0  0  0  0  0999 V2000
   -3.8405   -3.7518    1.6252 H   0  0  0  0  0  0  0  0  0  0  0  0
   -3.7965   -2.8768    0.9782 C   0  0  0  0  0  0  0  0  0  0  0  0
   -4.5465   -2.1527    1.2902 H   0  0  0  0  0  0  0  0  0  0  0  0
   -3.9745   -3.1748   -0.0538 H   0  0  0  0  0  0  0  0  0  0  0  0
   -2.4245   -2.2537    1.0882 C   0  0  0  0  0  0  0  0  0  0  0  0
   -1.5805   -2.7478    1.8242 O   0  0  0  0  0  0  0  0  0  0  0  0
   -2.2045   -1.1637    0.3562 N   0  0  0  0  0  0  0  0  0  0  0  0
   -2.9595   -0.7907   -0.2008 H   0  0  0  0  0  0  0  0  0  0  0  0
   -0.9485   -0.4087    0.3482 C   0  0  1  0  0  0  0  0  0  0  0  0
   -0.8069    0.0213   -0.6446 H   0  0  0  0  0  0  0  0  0  0  0  0
   -1.0405    0.7416    1.3653 C   0  0  0  0  0  0  0  0  0  0  0  0
   -1.3245    0.3348    2.3369 H   0  0  0  0  0  0  0  0  0  0  0  0
   -0.0547    1.1958    1.4758 H   0  0  0  0  0  0  0  0  0  0  0  0
   -2.0467    1.8137    0.9923 C   0  0  0  0  0  0  0  0  0  0  0  0
   -1.7093    2.8166    0.0637 C   0  0  0  0  0  0  0  0  0  0  0  0
   -0.7208    2.8416   -0.3728 H   0  0  0  0  0  0  0  0  0  0  0  0
   -2.6615    3.7834   -0.3083 C   0  0  0  0  0  0  0  0  0  0  0  0
   -2.3995    4.5541   -1.0196 H   0  0  0  0  0  0  0  0  0  0  0  0
   -3.9525    3.7482    0.2455 C   0  0  0  0  0  0  0  0  0  0  0  0
   -4.6833    4.4924   -0.0386 H   0  0  0  0  0  0  0  0  0  0  0  0
   -4.2925    2.7483    1.1748 C   0  0  0  0  0  0  0  0  0  0  0  0
   -5.2831    2.7244    1.6048 H   0  0  0  0  0  0  0  0  0  0  0  0
   -3.3396    1.7842    1.5489 C   0  0  0  0  0  0  0  0  0  0  0  0
   -3.6014    1.0175    2.2665 H   0  0  0  0  0  0  0  0  0  0  0  0
    0.2494   -1.3323    0.6335 C   0  0  0  0  0  0  0  0  0  0  0  0
    0.3127   -1.9548    1.6946 O   0  0  0  0  0  0  0  0  0  0  0  0
    1.1996   -1.4182   -0.3061 N   0  0  0  0  0  0  0  0  0  0  0  0
    1.1040   -0.8349   -1.1235 H   0  0  0  0  0  0  0  0  0  0  0  0
    2.4017   -2.2399   -0.1873 C   0  0  0  0  0  0  0  0  0  0  0  0
    2.1251   -3.2643    0.0711 H   0  0  0  0  0  0  0  0  0  0  0  0
    2.9511   -2.2426   -1.1290 H   0  0  0  0  0  0  0  0  0  0  0  0
    3.0419   -1.8421    0.6025 H   0  0  0  0  0  0  0  0  0  0  0  0
  5  6  2  0  0  0  0
  5  7  1  0  0  0  0
  2  3  1  0  0  0  0
  2  4  1  0  0  0  0
  2  5  1  0  0  0  0
  1  2  1  0  0  0  0
 25 26  2  0  0  0  0
 25 27  1  0  0  0  0
 23 24  1  0  0  0  0
 21 22  1  0  0  0  0
 21 23  2  0  0  0  0
 19 20  1  0  0  0  0
 19 21  1  0  0  0  0
 17 18  1  0  0  0  0
 17 19  2  0  0  0  0
 15 16  1  0  0  0  0
 15 17  1  0  0  0  0
 14 15  2  0  0  0  0
 14 23  1  0  0  0  0
 11 12  1  0  0  0  0
 11 13  1  0  0  0  0
 11 14  1  0  0  0  0
  9 10  1  0  0  0  0
  9 11  1  0  0  0  0
  9 25  1  0  0  0  0
  7  8  1  0  0  0  0
  7  9  1  0  0  0  0
 29 30  1  0  0  0  0
 29 31  1  0  0  0  0
 29 32  1  0  0  0  0
 27 28  1  0  0  0  0
 27 29  1  0  0  0  0
M  END
$$$$
default_name
  -OEChem-01062215323D

 32 32  0     1  0  0  0  0  0999 V2000
   -3.8405   -3.7518    1.6252 H   0  0  0  0  0  0  0  0  0  0  0  0
   -3.7965   -2.8768    0.9782 C   0  0  0  0  0  0  0  0  0  0  0  0
   -4.5465   -2.1527    1.2902 H   0  0  0  0  0  0  0  0  0  0  0  0
   -3.9745   -3.1748   -0.0538 H   0  0  0  0  0  0  0  0  0  0  0  0
   -2.4245   -2.2537    1.0882 C   0  0  0  0  0  0  0  0  0  0  0  0
   -1.5805   -2.7478    1.8242 O   0  0  0  0  0  0  0  0  0  0  0  0
   -2.2045   -1.1637    0.3562 N   0  0  0  0  0  0  0  0  0  0  0  0
   -2.9595   -0.7907   -0.2008 H   0  0  0  0  0  0  0  0  0  0  0  0
   -0.9485   -0.4087    0.3482 C   0  0  1  0  0  0  0  0  0  0  0  0
   -0.8069    0.0213   -0.6446 H   0  0  0  0  0  0  0  0  0  0  0  0
   -1.0405    0.7416    1.3653 C   0  0  0  0  0  0  0  0  0  0  0  0
   -1.3245    0.3348    2.3369 H   0  0  0  0  0  0  0  0  0  0  0  0
   -0.0547    1.1958    1.4758 H   0  0  0  0  0  0  0  0  0  0  0  0
   -2.0467    1.8137    0.9923 C   0  0  0  0  0  0  0  0  0  0  0  0
   -1.7093    2.8166    0.0637 C   0  0  0  0  0  0  0  0  0  0  0  0
   -0.7208    2.8416   -0.3728 H   0  0  0  0  0  0  0  0  0  0  0  0
   -2.6615    3.7834   -0.3083 C   0  0  0  0  0  0  0  0  0  0  0  0
   -2.3995    4.5541   -1.0196 H   0  0  0  0  0  0  0  0  0  0  0  0
   -3.9525    3.7482    0.2455 C   0  0  0  0  0  0  0  0  0  0  0  0
   -4.6833    4.4924   -0.0386 H   0  0  0  0  0  0  0  0  0  0  0  0
   -4.2925    2.7483    1.1748 C   0  0  0  0  0  0  0  0  0  0  0  0
   -5.2831    2.7244    1.6048 H   0  0  0  0  0  0  0  0  0  0  0  0
   -3.3396    1.7842    1.5489 C   0  0  0  0  0  0  0  0  0  0  0  0
   -3.6014    1.0175    2.2665 H   0  0  0  0  0  0  0  0  0  0  0  0
    0.2494   -1.3323    0.6335 C   0  0  0  0  0  0  0  0  0  0  0  0
    0.1921   -2.1569    1.5468 O   0  0  0  0  0  0  0  0  0  0  0  0
    1.3336   -1.1930   -0.1400 N   0  0  0  0  0  0  0  0  0  0  0  0
    1.3250   -0.4578   -0.8304 H   0  0  0  0  0  0  0  0  0  0  0  0
    2.5541   -1.9827    0.0052 C   0  0  0  0  0  0  0  0  0  0  0  0
    2.3079   -3.0466    0.0083 H   0  0  0  0  0  0  0  0  0  0  0  0
    3.2380   -1.7745   -0.8181 H   0  0  0  0  0  0  0  0  0  0  0  0
    3.0416   -1.7351    0.9501 H   0  0  0  0  0  0  0  0  0  0  0  0
  5  6  2  0  0  0  0
  5  7  1  0  0  0  0
  2  3  1  0  0  0  0
  2  4  1  0  0  0  0
  2  5  1  0  0  0  0
  1  2  1  0  0  0  0
 25 26  2  0  0  0  0
 25 27  1  0  0  0  0
 23 24  1  0  0  0  0
 21 22  1  0  0  0  0
 21 23  2  0  0  0  0
 19 20  1  0  0  0  0
 19 21  1  0  0  0  0
 17 18  1  0  0  0  0
 17 19  2  0  0  0  0
 15 16  1  0  0  0  0
 15 17  1  0  0  0  0
 14 15  2  0  0  0  0
 14 23  1  0  0  0  0
 11 12  1  0  0  0  0
 11 13  1  0  0  0  0
 11 14  1  0  0  0  0
  9 10  1  0  0  0  0
  9 11  1  0  0  0  0
  9 25  1  0  0  0  0
  7  8  1  0  0  0  0
  7  9  1  0  0  0  0
 29 30  1  0  0  0  0
 29 31  1  0  0  0  0
 29 32  1  0  0  0  0
 27 28  1  0  0  0  0
 27 29  1  0  0  0  0
M  END
$$$$
default_name
  -OEChem-01062215323D

 32 32  0     1  0  0  0  0  0999 V2000
   -3.8405   -3.7518    1.6252 H   0  0  0  0  0  0  0  0  0  0  0  0
   -3.7965   -2.8768    0.9782 C   0  0  0  0  0  0  0  0  0  0  0  0
   -4.5465   -2.1527    1.2902 H   0  0  0  0  0  0  0  0  0  0  0  0
   -3.9745   -3.1748   -0.0538 H   0  0  0  0  0  0  0  0  0  0  0  0
   -2.4245   -2.2537    1.0882 C   0  0  0  0  0  0  0  0  0  0  0  0
   -1.5805   -2.7478    1.8242 O   0  0  0  0  0  0  0  0  0  0  0  0
   -2.2045   -1.1637    0.3562 N   0  0  0  0  0  0  0  0  0  0  0  0
   -2.9595   -0.7907   -0.2008 H   0  0  0  0  0  0  0  0  0  0  0  0
   -0.9485   -0.4087    0.3482 C   0  0  1  0  0  0  0  0  0  0  0  0
   -0.8069    0.0213   -0.6446 H   0  0  0  0  0  0  0  0  0  0  0  0
   -1.0405    0.7416    1.3653 C   0  0  0  0  0  0  0  0  0  0  0  0
   -1.3245    0.3348    2.3369 H   0  0  0  0  0  0  0  0  0  0  0  0
   -0.0547    1.1958    1.4758 H   0  0  0  0  0  0  0  0  0  0  0  0
   -2.0467    1.8137    0.9923 C   0  0  0  0  0  0  0  0  0  0  0  0
   -1.7093    2.8166    0.0637 C   0  0  0  0  0  0  0  0  0  0  0  0
   -0.7208    2.8416   -0.3728 H   0  0  0  0  0  0  0  0  0  0  0  0
   -2.6615    3.7834   -0.3083 C   0  0  0  0  0  0  0  0  0  0  0  0
   -2.3995    4.5541   -1.0196 H   0  0  0  0  0  0  0  0  0  0  0  0
   -3.9525    3.7482    0.2455 C   0  0  0  0  0  0  0  0  0  0  0  0
   -4.6833    4.4924   -0.0386 H   0  0  0  0  0  0  0  0  0  0  0  0
   -4.2925    2.7483    1.1748 C   0  0  0  0  0  0  0  0  0  0  0  0
   -5.2831    2.7244    1.6048 H   0  0  0  0  0  0  0  0  0  0  0  0
   -3.3396    1.7842    1.5489 C   0  0  0  0  0  0  0  0  0  0  0  0
   -3.6014    1.0175    2.2665 H   0  0  0  0  0  0  0  0  0  0  0  0
    0.2494   -1.3323    0.6335 C   0  0  0  0  0  0  0  0  0  0  0  0
    0.1082   -2.3282    1.3445 O   0  0  0  0  0  0  0  0  0  0  0  0
    1.4265   -1.0026    0.0867 N   0  0  0  0  0  0  0  0  0  0  0  0
    1.4748   -0.1420   -0.4371 H   0  0  0  0  0  0  0  0  0  0  0  0
    2.6592   -1.7657    0.2665 C   0  0  0  0  0  0  0  0  0  0  0  0
    2.4838   -2.8149    0.0198 H   0  0  0  0  0  0  0  0  0  0  0  0
    3.4444   -1.3711   -0.3790 H   0  0  0  0  0  0  0  0  0  0  0  0
    2.9821   -1.7018    1.3074 H   0  0  0  0  0  0  0  0  0  0  0  0
  5  6  2  0  0  0  0
  5  7  1  0  0  0  0
  2  3  1  0  0  0  0
  2  4  1  0  0  0  0
  2  5  1  0  0  0  0
  1  2  1  0  0  0  0
 25 26  2  0  0  0  0
 25 27  1  0  0  0  0
 23 24  1  0  0  0  0
 21 22  1  0  0  0  0
 21 23  2  0  0  0  0
 19 20  1  0  0  0  0
 19 21  1  0  0  0  0
 17 18  1  0  0  0  0
 17 19  2  0  0  0  0
 15 16  1  0  0  0  0
 15 17  1  0  0  0  0
 14 15  2  0  0  0  0
 14 23  1  0  0  0  0
 11 12  1  0  0  0  0
 11 13  1  0  0  0  0
 11 14  1  0  0  0  0
  9 10  1  0  0  0  0
  9 11  1  0  0  0  0
  9 25  1  0  0  0  0
  7  8  1  0  0  0  0
  7  9  1  0  0  0  0
 29 30  1  0  0  0  0
 29 31  1  0  0  0  0
 29 32  1  0  0  0  0
 27 28  1  0  0  0  0
 27 29  1  0  0  0  0
M  END
$$$$
default_name
  -OEChem-01062215323D

 32 32  0     1  0  0  0  0  0999 V2000
   -3.8405   -3.7518    1.6252 H   0  0  0  0  0  0  0  0  0  0  0  0
   -3.7965   -2.8768    0.9782 C   0  0  0  0  0  0  0  0  0  0  0  0
   -4.5465   -2.1527    1.2902 H   0  0  0  0  0  0  0  0  0  0  0  0
   -3.9745   -3.1748   -0.0538 H   0  0  0  0  0  0  0  0  0  0  0  0
   -2.4245   -2.2537    1.0882 C   0  0  0  0  0  0  0  0  0  0  0  0
   -1.5805   -2.7478    1.8242 O   0  0  0  0  0  0  0  0  0  0  0  0
   -2.2045   -1.1637    0.3562 N   0  0  0  0  0  0  0  0  0  0  0  0
   -2.9595   -0.7907   -0.2008 H   0  0  0  0  0  0  0  0  0  0  0  0
   -0.9485   -0.4087    0.3482 C   0  0  1  0  0  0  0  0  0  0  0  0
   -0.8069    0.0213   -0.6446 H   0  0  0  0  0  0  0  0  0  0  0  0
   -1.0405    0.7416    1.3653 C   0  0  0  0  0  0  0  0  0  0  0  0
   -1.3245    0.3348    2.3369 H   0  0  0  0  0  0  0  0  0  0  0  0
   -0.0547    1.1958    1.4758 H   0  0  0  0  0  0  0  0  0  0  0  0
   -2.0467    1.8137    0.9923 C   0  0  0  0  0  0  0  0  0  0  0  0
   -1.7093    2.8166    0.0637 C   0  0  0  0  0  0  0  0  0  0  0  0
   -0.7208    2.8416   -0.3728 H   0  0  0  0  0  0  0  0  0  0  0  0
   -2.6615    3.7834   -0.3083 C   0  0  0  0  0  0  0  0  0  0  0  0
   -2.3995    4.5541   -1.0196 H   0  0  0  0  0  0  0  0  0  0  0  0
   -3.9525    3.7482    0.2455 C   0  0  0  0  0  0  0  0  0  0  0  0
   -4.6833    4.4924   -0.0386 H   0  0  0  0  0  0  0  0  0  0  0  0
   -4.2925    2.7483    1.1748 C   0  0  0  0  0  0  0  0  0  0  0  0
   -5.2831    2.7244    1.6048 H   0  0  0  0  0  0  0  0  0  0  0  0
   -3.3396    1.7842    1.5489 C   0  0  0  0  0  0  0  0  0  0  0  0
   -3.6014    1.0175    2.2665 H   0  0  0  0  0  0  0  0  0  0  0  0
    0.2494   -1.3323    0.6335 C   0  0  0  0  0  0  0  0  0  0  0  0
    0.0668   -2.4570    1.1017 O   0  0  0  0  0  0  0  0  0  0  0  0
    1.4718   -0.8598    0.3584 N   0  0  0  0  0  0  0  0  0  0  0  0
    1.5433    0.0910    0.0296 H   0  0  0  0  0  0  0  0  0  0  0  0
    2.7097   -1.6037    0.5790 C   0  0  0  0  0  0  0  0  0  0  0  0
    2.6407   -2.5851    0.1049 H   0  0  0  0  0  0  0  0  0  0  0  0
    3.5562   -1.0601    0.1585 H   0  0  0  0  0  0  0  0  0  0  0  0
    2.8677   -1.7445    1.6500 H   0  0  0  0  0  0  0  0  0  0  0  0
  5  6  2  0  0  0  0
  5  7  1  0  0  0  0
  2  3  1  0  0  0  0
  2  4  1  0  0  0  0
  2  5  1  0  0  0  0
  1  2  1  0  0  0  0
 25 26  2  0  0  0  0
 25 27  1  0  0  0  0
 23 24  1  0  0  0  0
 21 22  1  0  0  0  0
 21 23  2  0  0  0  0
 19 20  1  0  0  0  0
 19 21  1  0  0  0  0
 17 18  1  0  0  0  0
 17 19  2  0  0  0  0
 15 16  1  0  0  0  0
 15 17  1  0  0  0  0
 14 15  2  0  0  0  0
 14 23  1  0  0  0  0
 11 12  1  0  0  0  0
 11 13  1  0  0  0  0
 11 14  1  0  0  0  0
  9 10  1  0  0  0  0
  9 11  1  0  0  0  0
  9 25  1  0  0  0  0
  7  8  1  0  0  0  0
  7  9  1  0  0  0  0
 29 30  1  0  0  0  0
 29 31  1  0  0  0  0
 29 32  1  0  0  0  0
 27 28  1  0  0  0  0
 27 29  1  0  0  0  0
M  END
$$$$
default_name
  -OEChem-01062215323D

 32 32  0     1  0  0  0  0  0999 V2000
   -3.8405   -3.7518    1.6252 H   0  0  0  0  0  0  0  0  0  0  0  0
   -3.7965   -2.8768    0.9782 C   0  0  0  0  0  0  0  0  0  0  0  0
   -4.5465   -2.1527    1.2902 H   0  0  0  0  0  0  0  0  0  0  0  0
   -3.9745   -3.1748   -0.0538 H   0  0  0  0  0  0  0  0  0  0  0  0
   -2.4245   -2.2537    1.0882 C   0  0  0  0  0  0  0  0  0  0  0  0
   -1.5805   -2.7478    1.8242 O   0  0  0  0  0  0  0  0  0  0  0  0
   -2.2045   -1.1637    0.3562 N   0  0  0  0  0  0  0  0  0  0  0  0
   -2.9595   -0.7907   -0.2008 H   0  0  0  0  0  0  0  0  0  0  0  0
   -0.9485   -0.4087    0.3482 C   0  0  1  0  0  0  0  0  0  0  0  0
   -0.9334    0.2328   -0.5344 H   0  0  0  0  0  0  0  0  0  0  0  0
   -0.8853    0.4859    1.5980 C   0  0  0  0  0  0  0  0  0  0  0  0
   -1.0440   -0.1302    2.4842 H   0  0  0  0  0  0  0  0  0  0  0  0
    0.1138    0.9176    1.6738 H   0  0  0  0  0  0  0  0  0  0  0  0
   -1.9144    1.6002    1.6098 C   0  0  0  0  0  0  0  0  0  0  0  0
   -1.6872    2.7886    0.8901 C   0  0  0  0  0  0  0  0  0  0  0  0
   -0.7654    2.9234    0.3420 H   0  0  0  0  0  0  0  0  0  0  0  0
   -2.6645    3.8008    0.8723 C   0  0  0  0  0  0  0  0  0  0  0  0
   -2.4869    4.7136    0.3211 H   0  0  0  0  0  0  0  0  0  0  0  0
   -3.8706    3.6260    1.5718 C   0  0  0  0  0  0  0  0  0  0  0  0
   -4.6204    4.4046    1.5599 H   0  0  0  0  0  0  0  0  0  0  0  0
   -4.1002    2.4403    2.2931 C   0  0  0  0  0  0  0  0  0  0  0  0
   -5.0250    2.3080    2.8353 H   0  0  0  0  0  0  0  0  0  0  0  0
   -3.1220    1.4303    2.3135 C   0  0  0  0  0  0  0  0  0  0  0  0
   -3.2985    0.5200    2.8716 H   0  0  0  0  0  0  0  0  0  0  0  0
    0.2614   -1.3562    0.2590 C   0  0  0  0  0  0  0  0  0  0  0  0
    0.0913   -2.5752    0.2108 O   0  0  0  0  0  0  0  0  0  0  0  0
    1.4798   -0.8009    0.2427 N   0  0  0  0  0  0  0  0  0  0  0  0
    1.5391    0.2011    0.3419 H   0  0  0  0  0  0  0  0  0  0  0  0
    2.7274   -1.5577    0.1707 C   0  0  0  0  0  0  0  0  0  0  0  0
    2.6901   -2.2528   -0.6707 H   0  0  0  0  0  0  0  0  0  0  0  0
    3.5720   -0.8805    0.0404 H   0  0  0  0  0  0  0  0  0  0  0  0
    2.8630   -2.1305    1.0901 H   0  0  0  0  0  0  0  0  0  0  0  0
  5  6  2  0  0  0  0
  5  7  1  0  0  0  0
  2  3  1  0  0  0  0
  2  4  1  0  0  0  0
  2  5  1  0  0  0  0
  1  2  1  0  0  0  0
 25 26  2  0  0  0  0
 25 27  1  0  0  0  0
 23 24  1  0  0  0  0
 21 22  1  0  0  0  0
 21 23  2  0  0  0  0
 19 20  1  0  0  0  0
 19 21  1  0  0  0  0
 17 18  1  0  0  0  0
 17 19  2  0  0  0  0
 15 16  1  0  0  0  0
 15 17  1  0  0  0  0
 14 15  2  0  0  0  0
 14 23  1  0  0  0  0
 11 12  1  0  0  0  0
 11 13  1  0  0  0  0
 11 14  1  0  0  0  0
  9 10  1  0  0  0  0
  9 11  1  0  0  0  0
  9 25  1  0  0  0  0
  7  8  1  0  0  0  0
  7  9  1  0  0  0  0
 29 30  1  0  0  0  0
 29 31  1  0  0  0  0
 29 32  1  0  0  0  0
 27 28  1  0  0  0  0
 27 29  1  0  0  0  0
M  END
$$$$
default_name
  -OEChem-01062215323D

 32 32  0     1  0  0  0  0  0999 V2000
   -3.8405   -3.7518    1.6252 H   0  0  0  0  0  0  0  0  0  0  0  0
   -3.7965   -2.8768    0.9782 C   0  0  0  0  0  0  0  0  0  0  0  0
   -4.5465   -2.1527    1.2902 H   0  0  0  0  0  0  0  0  0  0  0  0
   -3.9745   -3.1748   -0.0538 H   0  0  0  0  0  0  0  0  0  0  0  0
   -2.4245   -2.2537    1.0882 C   0  0  0  0  0  0  0  0  0  0  0  0
   -1.5805   -2.7478    1.8242 O   0  0  0  0  0  0  0  0  0  0  0  0
   -2.2045   -1.1637    0.3562 N   0  0  0  0  0  0  0  0  0  0  0  0
   -2.9595   -0.7907   -0.2008 H   0  0  0  0  0  0  0  0  0  0  0  0
   -0.9485   -0.4087    0.3482 C   0  0  1  0  0  0  0  0  0  0  0  0
   -0.9334    0.2328   -0.5344 H   0  0  0  0  0  0  0  0  0  0  0  0
   -0.8853    0.4859    1.5980 C   0  0  0  0  0  0  0  0  0  0  0  0
   -1.0440   -0.1302    2.4842 H   0  0  0  0  0  0  0  0  0  0  0  0
    0.1138    0.9176    1.6738 H   0  0  0  0  0  0  0  0  0  0  0  0
   -1.9144    1.6002    1.6098 C   0  0  0  0  0  0  0  0  0  0  0  0
   -1.6872    2.7886    0.8901 C   0  0  0  0  0  0  0  0  0  0  0  0
   -0.7654    2.9234    0.3420 H   0  0  0  0  0  0  0  0  0  0  0  0
   -2.6645    3.8008    0.8723 C   0  0  0  0  0  0  0  0  0  0  0  0
   -2.4869    4.7136    0.3211 H   0  0  0  0  0  0  0  0  0  0  0  0
   -3.8706    3.6260    1.5718 C   0  0  0  0  0  0  0  0  0  0  0  0
   -4.6204    4.4046    1.5599 H   0  0  0  0  0  0  0  0  0  0  0  0
   -4.1002    2.4403    2.2931 C   0  0  0  0  0  0  0  0  0  0  0  0
   -5.0250    2.3080    2.8353 H   0  0  0  0  0  0  0  0  0  0  0  0
   -3.1220    1.4303    2.3135 C   0  0  0  0  0  0  0  0  0  0  0  0
   -3.2985    0.5200    2.8716 H   0  0  0  0  0  0  0  0  0  0  0  0
    0.2614   -1.3562    0.2590 C   0  0  0  0  0  0  0  0  0  0  0  0
    0.1031   -2.5343   -0.0639 O   0  0  0  0  0  0  0  0  0  0  0  0
    1.4657   -0.8477    0.5490 N   0  0  0  0  0  0  0  0  0  0  0  0
    1.5068    0.1111    0.8593 H   0  0  0  0  0  0  0  0  0  0  0  0
    2.7098   -1.6131    0.5215 C   0  0  0  0  0  0  0  0  0  0  0  0
    2.8094   -2.1222   -0.4395 H   0  0  0  0  0  0  0  0  0  0  0  0
    3.5633   -0.9506    0.6674 H   0  0  0  0  0  0  0  0  0  0  0  0
    2.6966   -2.3641    1.3138 H   0  0  0  0  0  0  0  0  0  0  0  0
  5  6  2  0  0  0  0
  5  7  1  0  0  0  0
  2  3  1  0  0  0  0
  2  4  1  0  0  0  0
  2  5  1  0  0  0  0
  1  2  1  0  0  0  0
 25 26  2  0  0  0  0
 25 27  1  0  0  0  0
 23 24  1  0  0  0  0
 21 22  1  0  0  0  0
 21 23  2  0  0  0  0
 19 20  1  0  0  0  0
 19 21  1  0  0  0  0
 17 18  1  0  0  0  0
 17 19  2  0  0  0  0
 15 16  1  0  0  0  0
 15 17  1  0  0  0  0
 14 15  2  0  0  0  0
 14 23  1  0  0  0  0
 11 12  1  0  0  0  0
 11 13  1  0  0  0  0
 11 14  1  0  0  0  0
  9 10  1  0  0  0  0
  9 11  1  0  0  0  0
  9 25  1  0  0  0  0
  7  8  1  0  0  0  0
  7  9  1  0  0  0  0
 29 30  1  0  0  0  0
 29 31  1  0  0  0  0
 29 32  1  0  0  0  0
 27 28  1  0  0  0  0
 27 29  1  0  0  0  0
M  END
$$$$
default_name
  -OEChem-01062215323D

 32 32  0     1  0  0  0  0  0999 V2000
   -3.8405   -3.7518    1.6252 H   0  0  0  0  0  0  0  0  0  0  0  0
   -3.7965   -2.8768    0.9782 C   0  0  0  0  0  0  0  0  0  0  0  0
   -4.5465   -2.1527    1.2902 H   0  0  0  0  0  0  0  0  0  0  0  0
   -3.9745   -3.1748   -0.0538 H   0  0  0  0  0  0  0  0  0  0  0  0
   -2.4245   -2.2537    1.0882 C   0  0  0  0  0  0  0  0  0  0  0  0
   -1.5805   -2.7478    1.8242 O   0  0  0  0  0  0  0  0  0  0  0  0
   -2.2045   -1.1637    0.3562 N   0  0  0  0  0  0  0  0  0  0  0  0
   -2.9595   -0.7907   -0.2008 H   0  0  0  0  0  0  0  0  0  0  0  0
   -0.9485   -0.4087    0.3482 C   0  0  1  0  0  0  0  0  0  0  0  0
   -0.9334    0.2328   -0.5344 H   0  0  0  0  0  0  0  0  0  0  0  0
   -0.8853    0.4859    1.5980 C   0  0  0  0  0  0  0  0  0  0  0  0
   -1.0440   -0.1302    2.4842 H   0  0  0  0  0  0  0  0  0  0  0  0
    0.1138    0.9176    1.6738 H   0  0  0  0  0  0  0  0  0  0  0  0
   -1.9144    1.6002    1.6098 C   0  0  0  0  0  0  0  0  0  0  0  0
   -1.6872    2.7886    0.8901 C   0  0  0  0  0  0  0  0  0  0  0  0
   -0.7654    2.9234    0.3420 H   0  0  0  0  0  0  0  0  0  0  0  0
   -2.6645    3.8008    0.8723 C   0  0  0  0  0  0  0  0  0  0  0  0
   -2.4869    4.7136    0.3211 H   0  0  0  0  0  0  0  0  0  0  0  0
   -3.8706    3.6260    1.5718 C   0  0  0  0  0  0  0  0  0  0  0  0
   -4.6204    4.4046    1.5599 H   0  0  0  0  0  0  0  0  0  0  0  0
   -4.1002    2.4403    2.2931 C   0  0  0  0  0  0  0  0  0  0  0  0
   -5.0250    2.3080    2.8353 H   0  0  0  0  0  0  0  0  0  0  0  0
   -3.1220    1.4303    2.3135 C   0  0  0  0  0  0  0  0  0  0  0  0
   -3.2985    0.5200    2.8716 H   0  0  0  0  0  0  0  0  0  0  0  0
    0.2614   -1.3562    0.2590 C   0  0  0  0  0  0  0  0  0  0  0  0
    0.1588   -2.4391   -0.3190 O   0  0  0  0  0  0  0  0  0  0  0  0
    1.4026   -0.9550    0.8332 N   0  0  0  0  0  0  0  0  0  0  0  0
    1.3919   -0.0805    1.3357 H   0  0  0  0  0  0  0  0  0  0  0  0
    2.6360   -1.7378    0.8462 C   0  0  0  0  0  0  0  0  0  0  0  0
    2.8897   -2.0449   -0.1706 H   0  0  0  0  0  0  0  0  0  0  0  0
    3.4540   -1.1457    1.2574 H   0  0  0  0  0  0  0  0  0  0  0  0
    2.4967   -2.6327    1.4559 H   0  0  0  0  0  0  0  0  0  0  0  0
  5  6  2  0  0  0  0
  5  7  1  0  0  0  0
  2  3  1  0  0  0  0
  2  4  1  0  0  0  0
  2  5  1  0  0  0  0
  1  2  1  0  0  0  0
 25 26  2  0  0  0  0
 25 27  1  0  0  0  0
 23 24  1  0  0  0  0
 21 22  1  0  0  0  0
 21 23  2  0  0  0  0
 19 20  1  0  0  0  0
 19 21  1  0  0  0  0
 17 18  1  0  0  0  0
 17 19  2  0  0  0  0
 15 16  1  0  0  0  0
 15 17  1  0  0  0  0
 14 15  2  0  0  0  0
 14 23  1  0  0  0  0
 11 12  1  0  0  0  0
 11 13  1  0  0  0  0
 11 14  1  0  0  0  0
  9 10  1  0  0  0  0
  9 11  1  0  0  0  0
  9 25  1  0  0  0  0
  7  8  1  0  0  0  0
  7  9  1  0  0  0  0
 29 30  1  0  0  0  0
 29 31  1  0  0  0  0
 29 32  1  0  0  0  0
 27 28  1  0  0  0  0
 27 29  1  0  0  0  0
M  END
$$$$
default_name
  -OEChem-01062215323D

 32 32  0     1  0  0  0  0  0999 V2000
   -3.8405   -3.7518    1.6252 H   0  0  0  0  0  0  0  0  0  0  0  0
   -3.7965   -2.8768    0.9782 C   0  0  0  0  0  0  0  0  0  0  0  0
   -4.5465   -2.1527    1.2902 H   0  0  0  0  0  0  0  0  0  0  0  0
   -3.9745   -3.1748   -0.0538 H   0  0  0  0  0  0  0  0  0  0  0  0
   -2.4245   -2.2537    1.0882 C   0  0  0  0  0  0  0  0  0  0  0  0
   -1.5805   -2.7478    1.8242 O   0  0  0  0  0  0  0  0  0  0  0  0
   -2.2045   -1.1637    0.3562 N   0  0  0  0  0  0  0  0  0  0  0  0
   -2.9595   -0.7907   -0.2008 H   0  0  0  0  0  0  0  0  0  0  0  0
   -0.9485   -0.4087    0.3482 C   0  0  1  0  0  0  0  0  0  0  0  0
   -0.9334    0.2328   -0.5344 H   0  0  0  0  0  0  0  0  0  0  0  0
   -0.8853    0.4859    1.5980 C   0  0  0  0  0  0  0  0  0  0  0  0
   -1.0440   -0.1302    2.4842 H   0  0  0  0  0  0  0  0  0  0  0  0
    0.1138    0.9176    1.6738 H   0  0  0  0  0  0  0  0  0  0  0  0
   -1.9144    1.6002    1.6098 C   0  0  0  0  0  0  0  0  0  0  0  0
   -1.6872    2.7886    0.8901 C   0  0  0  0  0  0  0  0  0  0  0  0
   -0.7654    2.9234    0.3420 H   0  0  0  0  0  0  0  0  0  0  0  0
   -2.6645    3.8008    0.8723 C   0  0  0  0  0  0  0  0  0  0  0  0
   -2.4869    4.7136    0.3211 H   0  0  0  0  0  0  0  0  0  0  0  0
   -3.8706    3.6260    1.5718 C   0  0  0  0  0  0  0  0  0  0  0  0
   -4.6204    4.4046    1.5599 H   0  0  0  0  0  0  0  0  0  0  0  0
   -4.1002    2.4403    2.2931 C   0  0  0  0  0  0  0  0  0  0  0  0
   -5.0250    2.3080    2.8353 H   0  0  0  0  0  0  0  0  0  0  0  0
   -3.1220    1.4303    2.3135 C   0  0  0  0  0  0  0  0  0  0  0  0
   -3.2985    0.5200    2.8716 H   0  0  0  0  0  0  0  0  0  0  0  0
    0.2614   -1.3562    0.2590 C   0  0  0  0  0  0  0  0  0  0  0  0
    0.2547   -2.2961   -0.5372 O   0  0  0  0  0  0  0  0  0  0  0  0
    1.2948   -1.1155    1.0759 N   0  0  0  0  0  0  0  0  0  0  0  0
    1.2020   -0.3608    1.7385 H   0  0  0  0  0  0  0  0  0  0  0  0
    2.5112   -1.9232    1.1228 C   0  0  0  0  0  0  0  0  0  0  0  0
    2.9256   -2.0262    0.1176 H   0  0  0  0  0  0  0  0  0  0  0  0
    3.2515   -1.4526    1.7702 H   0  0  0  0  0  0  0  0  0  0  0  0
    2.2770   -2.9180    1.5066 H   0  0  0  0  0  0  0  0  0  0  0  0
  5  6  2  0  0  0  0
  5  7  1  0  0  0  0
  2  3  1  0  0  0  0
  2  4  1  0  0  0  0
  2  5  1  0  0  0  0
  1  2  1  0  0  0  0
 25 26  2  0  0  0  0
 25 27  1  0  0  0  0
 23 24  1  0  0  0  0
 21 22  1  0  0  0  0
 21 23  2  0  0  0  0
 19 20  1  0  0  0  0
 19 21  1  0  0  0  0
 17 18  1  0  0  0  0
 17 19  2  0  0  0  0
 15 16  1  0  0  0  0
 15 17  1  0  0  0  0
 14 15  2  0  0  0  0
 14 23  1  0  0  0  0
 11 12  1  0  0  0  0
 11 13  1  0  0  0  0
 11 14  1  0  0  0  0
  9 10  1  0  0  0  0
  9 11  1  0  0  0  0
  9 25  1  0  0  0  0
  7  8  1  0  0  0  0
  7  9  1  0  0  0  0
 29 30  1  0  0  0  0
 29 31  1  0  0  0  0
 29 32  1  0  0  0  0
 27 28  1  0  0  0  0
 27 29  1  0  0  0  0
M  END
$$$$
default_name
  -OEChem-01062215323D

 32 32  0     1  0  0  0  0  0999 V2000
   -3.8405   -3.7518    1.6252 H   0  0  0  0  0  0  0  0  0  0  0  0
   -3.7965   -2.8768    0.9782 C   0  0  0  0  0  0  0  0  0  0  0  0
   -4.5465   -2.1527    1.2902 H   0  0  0  0  0  0  0  0  0  0  0  0
   -3.9745   -3.1748   -0.0538 H   0  0  0  0  0  0  0  0  0  0  0  0
   -2.4245   -2.2537    1.0882 C   0  0  0  0  0  0  0  0  0  0  0  0
   -1.5805   -2.7478    1.8242 O   0  0  0  0  0  0  0  0  0  0  0  0
   -2.2045   -1.1637    0.3562 N   0  0  0  0  0  0  0  0  0  0  0  0
   -2.9595   -0.7907   -0.2008 H   0  0  0  0  0  0  0  0  0  0  0  0
   -0.9485   -0.4087    0.3482 C   0  0  1  0  0  0  0  0  0  0  0  0
   -0.9334    0.2328   -0.5344 H   0  0  0  0  0  0  0  0  0  0  0  0
   -0.8853    0.4859    1.5980 C   0  0  0  0  0  0  0  0  0  0  0  0
   -1.0440   -0.1302    2.4842 H   0  0  0  0  0  0  0  0  0  0  0  0
    0.1138    0.9176    1.6738 H   0  0  0  0  0  0  0  0  0  0  0  0
   -1.9144    1.6002    1.6098 C   0  0  0  0  0  0  0  0  0  0  0  0
   -1.6872    2.7886    0.8901 C   0  0  0  0  0  0  0  0  0  0  0  0
   -0.7654    2.9234    0.3420 H   0  0  0  0  0  0  0  0  0  0  0  0
   -2.6645    3.8008    0.8723 C   0  0  0  0  0  0  0  0  0  0  0  0
   -2.4869    4.7136    0.3211 H   0  0  0  0  0  0  0  0  0  0  0  0
   -3.8706    3.6260    1.5718 C   0  0  0  0  0  0  0  0  0  0  0  0
   -4.6204    4.4046    1.5599 H   0  0  0  0  0  0  0  0  0  0  0  0
   -4.1002    2.4403    2.2931 C   0  0  0  0  0  0  0  0  0  0  0  0
   -5.0250    2.3080    2.8353 H   0  0  0  0  0  0  0  0  0  0  0  0
   -3.1220    1.4303    2.3135 C   0  0  0  0  0  0  0  0  0  0  0  0
   -3.2985    0.5200    2.8716 H   0  0  0  0  0  0  0  0  0  0  0  0
    0.2614   -1.3562    0.2590 C   0  0  0  0  0  0  0  0  0  0  0  0
    0.3843   -2.1150   -0.7035 O   0  0  0  0  0  0  0  0  0  0  0  0
    1.1496   -1.3183    1.2604 N   0  0  0  0  0  0  0  0  0  0  0  0
    0.9503   -0.7107    2.0404 H   0  0  0  0  0  0  0  0  0  0  0  0
    2.3439   -2.1567    1.3323 C   0  0  0  0  0  0  0  0  0  0  0  0
    2.9146   -2.0673    0.4056 H   0  0  0  0  0  0  0  0  0  0  0  0
    2.9697   -1.8502    2.1709 H   0  0  0  0  0  0  0  0  0  0  0  0
    2.0524   -3.2007    1.4626 H   0  0  0  0  0  0  0  0  0  0  0  0
  5  6  2  0  0  0  0
  5  7  1  0  0  0  0
  2  3  1  0  0  0  0
  2  4  1  0  0  0  0
  2  5  1  0  0  0  0
  1  2  1  0  0  0  0
 25 26  2  0  0  0  0
 25 27  1  0  0  0  0
 23 24  1  0  0  0  0
 21 22  1  0  0  0  0
 21 23  2  0  0  0  0
 19 20  1  0  0  0  0
 19 21  1  0  0  0  0
 17 18  1  0  0  0  0
 17 19  2  0  0  0  0
 15 16  1  0  0  0  0
 15 17  1  0  0  0  0
 14 15  2  0  0  0  0
 14 23  1  0  0  0  0
 11 12  1  0  0  0  0
 11 13  1  0  0  0  0
 11 14  1  0  0  0  0
  9 10  1  0  0  0  0
  9 11  1  0  0  0  0
  9 25  1  0  0  0  0
  7  8  1  0  0  0  0
  7  9  1  0  0  0  0
 29 30  1  0  0  0  0
 29 31  1  0  0  0  0
 29 32  1  0  0  0  0
 27 28  1  0  0  0  0
 27 29  1  0  0  0  0
M  END
$$$$
default_name
  -OEChem-01062215323D

 32 32  0     1  0  0  0  0  0999 V2000
   -3.8405   -3.7518    1.6252 H   0  0  0  0  0  0  0  0  0  0  0  0
   -3.7965   -2.8768    0.9782 C   0  0  0  0  0  0  0  0  0  0  0  0
   -4.5465   -2.1527    1.2902 H   0  0  0  0  0  0  0  0  0  0  0  0
   -3.9745   -3.1748   -0.0538 H   0  0  0  0  0  0  0  0  0  0  0  0
   -2.4245   -2.2537    1.0882 C   0  0  0  0  0  0  0  0  0  0  0  0
   -1.5805   -2.7478    1.8242 O   0  0  0  0  0  0  0  0  0  0  0  0
   -2.2045   -1.1637    0.3562 N   0  0  0  0  0  0  0  0  0  0  0  0
   -2.9595   -0.7907   -0.2008 H   0  0  0  0  0  0  0  0  0  0  0  0
   -0.9485   -0.4087    0.3482 C   0  0  1  0  0  0  0  0  0  0  0  0
   -0.9334    0.2328   -0.5344 H   0  0  0  0  0  0  0  0  0  0  0  0
   -0.8853    0.4859    1.5980 C   0  0  0  0  0  0  0  0  0  0  0  0
   -1.0440   -0.1302    2.4842 H   0  0  0  0  0  0  0  0  0  0  0  0
    0.1138    0.9176    1.6738 H   0  0  0  0  0  0  0  0  0  0  0  0
   -1.9144    1.6002    1.6098 C   0  0  0  0  0  0  0  0  0  0  0  0
   -1.6872    2.7886    0.8901 C   0  0  0  0  0  0  0  0  0  0  0  0
   -0.7654    2.9234    0.3420 H   0  0  0  0  0  0  0  0  0  0  0  0
   -2.6645    3.8008    0.8723 C   0  0  0  0  0  0  0  0  0  0  0  0
   -2.4869    4.7136    0.3211 H   0  0  0  0  0  0  0  0  0  0  0  0
   -3.8706    3.6260    1.5718 C   0  0  0  0  0  0  0  0  0  0  0  0
   -4.6204    4.4046    1.5599 H   0  0  0  0  0  0  0  0  0  0  0  0
   -4.1002    2.4403    2.2931 C   0  0  0  0  0  0  0  0  0  0  0  0
   -5.0250    2.3080    2.8353 H   0  0  0  0  0  0  0  0  0  0  0  0
   -3.1220    1.4303    2.3135 C   0  0  0  0  0  0  0  0  0  0  0  0
   -3.2985    0.5200    2.8716 H   0  0  0  0  0  0  0  0  0  0  0  0
    0.2614   -1.3562    0.2590 C   0  0  0  0  0  0  0  0  0  0  0  0
    0.5387   -1.9081   -0.8068 O   0  0  0  0  0  0  0  0  0  0  0  0
    0.9769   -1.5496    1.3742 N   0  0  0  0  0  0  0  0  0  0  0  0
    0.6539   -1.1062    2.2206 H   0  0  0  0  0  0  0  0  0  0  0  0
    2.1453   -2.4224    1.4605 C   0  0  0  0  0  0  0  0  0  0  0  0
    2.8576   -2.1654    0.6736 H   0  0  0  0  0  0  0  0  0  0  0  0
    2.6276   -2.3116    2.4321 H   0  0  0  0  0  0  0  0  0  0  0  0
    1.8382   -3.4614    1.3267 H   0  0  0  0  0  0  0  0  0  0  0  0
  5  6  2  0  0  0  0
  5  7  1  0  0  0  0
  2  3  1  0  0  0  0
  2  4  1  0  0  0  0
  2  5  1  0  0  0  0
  1  2  1  0  0  0  0
 25 26  2  0  0  0  0
 25 27  1  0  0  0  0
 23 24  1  0  0  0  0
 21 22  1  0  0  0  0
 21 23  2  0  0  0  0
 19 20  1  0  0  0  0
 19 21  1  0  0  0  0
 17 18  1  0  0  0  0
 17 19  2  0  0  0  0
 15 16  1  0  0  0  0
 15 17  1  0  0  0  0
 14 15  2  0  0  0  0
 14 23  1  0  0  0  0
 11 12  1  0  0  0  0
 11 13  1  0  0  0  0
 11 14  1  0  0  0  0
  9 10  1  0  0  0  0
  9 11  1  0  0  0  0
  9 25  1  0  0  0  0
  7  8  1  0  0  0  0
  7  9  1  0  0  0  0
 29 30  1  0  0  0  0
 29 31  1  0  0  0  0
 29 32  1  0  0  0  0
 27 28  1  0  0  0  0
 27 29  1  0  0  0  0
M  END
$$$$
default_name
  -OEChem-01062215323D

 32 32  0     1  0  0  0  0  0999 V2000
   -3.8405   -3.7518    1.6252 H   0  0  0  0  0  0  0  0  0  0  0  0
   -3.7965   -2.8768    0.9782 C   0  0  0  0  0  0  0  0  0  0  0  0
   -4.5465   -2.1527    1.2902 H   0  0  0  0  0  0  0  0  0  0  0  0
   -3.9745   -3.1748   -0.0538 H   0  0  0  0  0  0  0  0  0  0  0  0
   -2.4245   -2.2537    1.0882 C   0  0  0  0  0  0  0  0  0  0  0  0
   -1.5805   -2.7478    1.8242 O   0  0  0  0  0  0  0  0  0  0  0  0
   -2.2045   -1.1637    0.3562 N   0  0  0  0  0  0  0  0  0  0  0  0
   -2.9595   -0.7907   -0.2008 H   0  0  0  0  0  0  0  0  0  0  0  0
   -0.9485   -0.4087    0.3482 C   0  0  1  0  0  0  0  0  0  0  0  0
   -0.9334    0.2328   -0.5344 H   0  0  0  0  0  0  0  0  0  0  0  0
   -0.8853    0.4859    1.5980 C   0  0  0  0  0  0  0  0  0  0  0  0
   -1.0440   -0.1302    2.4842 H   0  0  0  0  0  0  0  0  0  0  0  0
    0.1138    0.9176    1.6738 H   0  0  0  0  0  0  0  0  0  0  0  0
   -1.9144    1.6002    1.6098 C   0  0  0  0  0  0  0  0  0  0  0  0
   -1.6872    2.7886    0.8901 C   0  0  0  0  0  0  0  0  0  0  0  0
   -0.7654    2.9234    0.3420 H   0  0  0  0  0  0  0  0  0  0  0  0
   -2.6645    3.8008    0.8723 C   0  0  0  0  0  0  0  0  0  0  0  0
   -2.4869    4.7136    0.3211 H   0  0  0  0  0  0  0  0  0  0  0  0
   -3.8706    3.6260    1.5718 C   0  0  0  0  0  0  0  0  0  0  0  0
   -4.6204    4.4046    1.5599 H   0  0  0  0  0  0  0  0  0  0  0  0
   -4.1002    2.4403    2.2931 C   0  0  0  0  0  0  0  0  0  0  0  0
   -5.0250    2.3080    2.8353 H   0  0  0  0  0  0  0  0  0  0  0  0
   -3.1220    1.4303    2.3135 C   0  0  0  0  0  0  0  0  0  0  0  0
   -3.2985    0.5200    2.8716 H   0  0  0  0  0  0  0  0  0  0  0  0
    0.2614   -1.3562    0.2590 C   0  0  0  0  0  0  0  0  0  0  0  0
    0.7073   -1.6896   -0.8398 O   0  0  0  0  0  0  0  0  0  0  0  0
    0.7885   -1.7935    1.4097 N   0  0  0  0  0  0  0  0  0  0  0  0
    0.3328   -1.5206    2.2671 H   0  0  0  0  0  0  0  0  0  0  0  0
    1.9291   -2.7020    1.4987 C   0  0  0  0  0  0  0  0  0  0  0  0
    2.7583   -2.3138    0.9035 H   0  0  0  0  0  0  0  0  0  0  0  0
    2.2487   -2.8053    2.5360 H   0  0  0  0  0  0  0  0  0  0  0  0
    1.6491   -3.6824    1.1084 H   0  0  0  0  0  0  0  0  0  0  0  0
  5  6  2  0  0  0  0
  5  7  1  0  0  0  0
  2  3  1  0  0  0  0
  2  4  1  0  0  0  0
  2  5  1  0  0  0  0
  1  2  1  0  0  0  0
 25 26  2  0  0  0  0
 25 27  1  0  0  0  0
 23 24  1  0  0  0  0
 21 22  1  0  0  0  0
 21 23  2  0  0  0  0
 19 20  1  0  0  0  0
 19 21  1  0  0  0  0
 17 18  1  0  0  0  0
 17 19  2  0  0  0  0
 15 16  1  0  0  0  0
 15 17  1  0  0  0  0
 14 15  2  0  0  0  0
 14 23  1  0  0  0  0
 11 12  1  0  0  0  0
 11 13  1  0  0  0  0
 11 14  1  0  0  0  0
  9 10  1  0  0  0  0
  9 11  1  0  0  0  0
  9 25  1  0  0  0  0
  7  8  1  0  0  0  0
  7  9  1  0  0  0  0
 29 30  1  0  0  0  0
 29 31  1  0  0  0  0
 29 32  1  0  0  0  0
 27 28  1  0  0  0  0
 27 29  1  0  0  0  0
M  END
$$$$
default_name
  -OEChem-01062215323D

 32 32  0     1  0  0  0  0  0999 V2000
   -3.8405   -3.7518    1.6252 H   0  0  0  0  0  0  0  0  0  0  0  0
   -3.7965   -2.8768    0.9782 C   0  0  0  0  0  0  0  0  0  0  0  0
   -4.5465   -2.1527    1.2902 H   0  0  0  0  0  0  0  0  0  0  0  0
   -3.9745   -3.1748   -0.0538 H   0  0  0  0  0  0  0  0  0  0  0  0
   -2.4245   -2.2537    1.0882 C   0  0  0  0  0  0  0  0  0  0  0  0
   -1.5805   -2.7478    1.8242 O   0  0  0  0  0  0  0  0  0  0  0  0
   -2.2045   -1.1637    0.3562 N   0  0  0  0  0  0  0  0  0  0  0  0
   -2.9595   -0.7907   -0.2008 H   0  0  0  0  0  0  0  0  0  0  0  0
   -0.9485   -0.4087    0.3482 C   0  0  1  0  0  0  0  0  0  0  0  0
   -0.9334    0.2328   -0.5344 H   0  0  0  0  0  0  0  0  0  0  0  0
   -0.8853    0.4859    1.5980 C   0  0  0  0  0  0  0  0  0  0  0  0
   -1.0440   -0.1302    2.4842 H   0  0  0  0  0  0  0  0  0  0  0  0
    0.1138    0.9176    1.6738 H   0  0  0  0  0  0  0  0  0  0  0  0
   -1.9144    1.6002    1.6098 C   0  0  0  0  0  0  0  0  0  0  0  0
   -1.6872    2.7886    0.8901 C   0  0  0  0  0  0  0  0  0  0  0  0
   -0.7654    2.9234    0.3420 H   0  0  0  0  0  0  0  0  0  0  0  0
   -2.6645    3.8008    0.8723 C   0  0  0  0  0  0  0  0  0  0  0  0
   -2.4869    4.7136    0.3211 H   0  0  0  0  0  0  0  0  0  0  0  0
   -3.8706    3.6260    1.5718 C   0  0  0  0  0  0  0  0  0  0  0  0
   -4.6204    4.4046    1.5599 H   0  0  0  0  0  0  0  0  0  0  0  0
   -4.1002    2.4403    2.2931 C   0  0  0  0  0  0  0  0  0  0  0  0
   -5.0250    2.3080    2.8353 H   0  0  0  0  0  0  0  0  0  0  0  0
   -3.1220    1.4303    2.3135 C   0  0  0  0  0  0  0  0  0  0  0  0
   -3.2985    0.5200    2.8716 H   0  0  0  0  0  0  0  0  0  0  0  0
    0.2614   -1.3562    0.2590 C   0  0  0  0  0  0  0  0  0  0  0  0
    0.8788   -1.4744   -0.8004 O   0  0  0  0  0  0  0  0  0  0  0  0
    0.5972   -2.0336    1.3642 N   0  0  0  0  0  0  0  0  0  0  0  0
    0.0092   -1.9254    2.1765 H   0  0  0  0  0  0  0  0  0  0  0  0
    1.7100   -2.9767    1.4442 C   0  0  0  0  0  0  0  0  0  0  0  0
    2.6235   -2.5025    1.0795 H   0  0  0  0  0  0  0  0  0  0  0  0
    1.8587   -3.2977    2.4756 H   0  0  0  0  0  0  0  0  0  0  0  0
    1.4979   -3.8486    0.8224 H   0  0  0  0  0  0  0  0  0  0  0  0
  5  6  2  0  0  0  0
  5  7  1  0  0  0  0
  2  3  1  0  0  0  0
  2  4  1  0  0  0  0
  2  5  1  0  0  0  0
  1  2  1  0  0  0  0
 25 26  2  0  0  0  0
 25 27  1  0  0  0  0
 23 24  1  0  0  0  0
 21 22  1  0  0  0  0
 21 23  2  0  0  0  0
 19 20  1  0  0  0  0
 19 21  1  0  0  0  0
 17 18  1  0  0  0  0
 17 19  2  0  0  0  0
 15 16  1  0  0  0  0
 15 17  1  0  0  0  0
 14 15  2  0  0  0  0
 14 23  1  0  0  0  0
 11 12  1  0  0  0  0
 11 13  1  0  0  0  0
 11 14  1  0  0  0  0
  9 10  1  0  0  0  0
  9 11  1  0  0  0  0
  9 25  1  0  0  0  0
  7  8  1  0  0  0  0
  7  9  1  0  0  0  0
 29 30  1  0  0  0  0
 29 31  1  0  0  0  0
 29 32  1  0  0  0  0
 27 28  1  0  0  0  0
 27 29  1  0  0  0  0
M  END
$$$$
default_name
  -OEChem-01062215323D

 32 32  0     1  0  0  0  0  0999 V2000
   -3.8405   -3.7518    1.6252 H   0  0  0  0  0  0  0  0  0  0  0  0
   -3.7965   -2.8768    0.9782 C   0  0  0  0  0  0  0  0  0  0  0  0
   -4.5465   -2.1527    1.2902 H   0  0  0  0  0  0  0  0  0  0  0  0
   -3.9745   -3.1748   -0.0538 H   0  0  0  0  0  0  0  0  0  0  0  0
   -2.4245   -2.2537    1.0882 C   0  0  0  0  0  0  0  0  0  0  0  0
   -1.5805   -2.7478    1.8242 O   0  0  0  0  0  0  0  0  0  0  0  0
   -2.2045   -1.1637    0.3562 N   0  0  0  0  0  0  0  0  0  0  0  0
   -2.9595   -0.7907   -0.2008 H   0  0  0  0  0  0  0  0  0  0  0  0
   -0.9485   -0.4087    0.3482 C   0  0  1  0  0  0  0  0  0  0  0  0
   -0.9334    0.2328   -0.5344 H   0  0  0  0  0  0  0  0  0  0  0  0
   -0.8853    0.4859    1.5980 C   0  0  0  0  0  0  0  0  0  0  0  0
   -1.0440   -0.1302    2.4842 H   0  0  0  0  0  0  0  0  0  0  0  0
    0.1138    0.9176    1.6738 H   0  0  0  0  0  0  0  0  0  0  0  0
   -1.9144    1.6002    1.6098 C   0  0  0  0  0  0  0  0  0  0  0  0
   -1.6872    2.7886    0.8901 C   0  0  0  0  0  0  0  0  0  0  0  0
   -0.7654    2.9234    0.3420 H   0  0  0  0  0  0  0  0  0  0  0  0
   -2.6645    3.8008    0.8723 C   0  0  0  0  0  0  0  0  0  0  0  0
   -2.4869    4.7136    0.3211 H   0  0  0  0  0  0  0  0  0  0  0  0
   -3.8706    3.6260    1.5718 C   0  0  0  0  0  0  0  0  0  0  0  0
   -4.6204    4.4046    1.5599 H   0  0  0  0  0  0  0  0  0  0  0  0
   -4.1002    2.4403    2.2931 C   0  0  0  0  0  0  0  0  0  0  0  0
   -5.0250    2.3080    2.8353 H   0  0  0  0  0  0  0  0  0  0  0  0
   -3.1220    1.4303    2.3135 C   0  0  0  0  0  0  0  0  0  0  0  0
   -3.2985    0.5200    2.8716 H   0  0  0  0  0  0  0  0  0  0  0  0
    0.2614   -1.3562    0.2590 C   0  0  0  0  0  0  0  0  0  0  0  0
    1.0413   -1.2771   -0.6912 O   0  0  0  0  0  0  0  0  0  0  0  0
    0.4161   -2.2533    1.2410 N   0  0  0  0  0  0  0  0  0  0  0  0
   -0.2951   -2.2932    1.9551 H   0  0  0  0  0  0  0  0  0  0  0  0
    1.5029   -3.2277    1.3008 C   0  0  0  0  0  0  0  0  0  0  0  0
    2.4625   -2.7185    1.1897 H   0  0  0  0  0  0  0  0  0  0  0  0
    1.4843   -3.7551    2.2550 H   0  0  0  0  0  0  0  0  0  0  0  0
    1.3949   -3.9487    0.4882 H   0  0  0  0  0  0  0  0  0  0  0  0
  5  6  2  0  0  0  0
  5  7  1  0  0  0  0
  2  3  1  0  0  0  0
  2  4  1  0  0  0  0
  2  5  1  0  0  0  0
  1  2  1  0  0  0  0
 25 26  2  0  0  0  0
 25 27  1  0  0  0  0
 23 24  1  0  0  0  0
 21 22  1  0  0  0  0
 21 23  2  0  0  0  0
 19 20  1  0  0  0  0
 19 21  1  0  0  0  0
 17 18  1  0  0  0  0
 17 19  2  0  0  0  0
 15 16  1  0  0  0  0
 15 17  1  0  0  0  0
 14 15  2  0  0  0  0
 14 23  1  0  0  0  0
 11 12  1  0  0  0  0
 11 13  1  0  0  0  0
 11 14  1  0  0  0  0
  9 10  1  0  0  0  0
  9 11  1  0  0  0  0
  9 25  1  0  0  0  0
  7  8  1  0  0  0  0
  7  9  1  0  0  0  0
 29 30  1  0  0  0  0
 29 31  1  0  0  0  0
 29 32  1  0  0  0  0
 27 28  1  0  0  0  0
 27 29  1  0  0  0  0
M  END
$$$$
default_name
  -OEChem-01062215323D

 32 32  0     1  0  0  0  0  0999 V2000
   -3.8405   -3.7518    1.6252 H   0  0  0  0  0  0  0  0  0  0  0  0
   -3.7965   -2.8768    0.9782 C   0  0  0  0  0  0  0  0  0  0  0  0
   -4.5465   -2.1527    1.2902 H   0  0  0  0  0  0  0  0  0  0  0  0
   -3.9745   -3.1748   -0.0538 H   0  0  0  0  0  0  0  0  0  0  0  0
   -2.4245   -2.2537    1.0882 C   0  0  0  0  0  0  0  0  0  0  0  0
   -1.5805   -2.7478    1.8242 O   0  0  0  0  0  0  0  0  0  0  0  0
   -2.2045   -1.1637    0.3562 N   0  0  0  0  0  0  0  0  0  0  0  0
   -2.9595   -0.7907   -0.2008 H   0  0  0  0  0  0  0  0  0  0  0  0
   -0.9485   -0.4087    0.3482 C   0  0  1  0  0  0  0  0  0  0  0  0
   -0.9334    0.2328   -0.5344 H   0  0  0  0  0  0  0  0  0  0  0  0
   -0.8853    0.4859    1.5980 C   0  0  0  0  0  0  0  0  0  0  0  0
   -1.0440   -0.1302    2.4842 H   0  0  0  0  0  0  0  0  0  0  0  0
    0.1138    0.9176    1.6738 H   0  0  0  0  0  0  0  0  0  0  0  0
   -1.9144    1.6002    1.6098 C   0  0  0  0  0  0  0  0  0  0  0  0
   -1.6872    2.7886    0.8901 C   0  0  0  0  0  0  0  0  0  0  0  0
   -0.7654    2.9234    0.3420 H   0  0  0  0  0  0  0  0  0  0  0  0
   -2.6645    3.8008    0.8723 C   0  0  0  0  0  0  0  0  0  0  0  0
   -2.4869    4.7136    0.3211 H   0  0  0  0  0  0  0  0  0  0  0  0
   -3.8706    3.6260    1.5718 C   0  0  0  0  0  0  0  0  0  0  0  0
   -4.6204    4.4046    1.5599 H   0  0  0  0  0  0  0  0  0  0  0  0
   -4.1002    2.4403    2.2931 C   0  0  0  0  0  0  0  0  0  0  0  0
   -5.0250    2.3080    2.8353 H   0  0  0  0  0  0  0  0  0  0  0  0
   -3.1220    1.4303    2.3135 C   0  0  0  0  0  0  0  0  0  0  0  0
   -3.2985    0.5200    2.8716 H   0  0  0  0  0  0  0  0  0  0  0  0
    0.2614   -1.3562    0.2590 C   0  0  0  0  0  0  0  0  0  0  0  0
    1.1839   -1.1112   -0.5197 O   0  0  0  0  0  0  0  0  0  0  0  0
    0.2574   -2.4377    1.0485 N   0  0  0  0  0  0  0  0  0  0  0  0
   -0.5593   -2.5988    1.6180 H   0  0  0  0  0  0  0  0  0  0  0  0
    1.3220   -3.4378    1.0783 C   0  0  0  0  0  0  0  0  0  0  0  0
    2.2862   -2.9471    1.2265 H   0  0  0  0  0  0  0  0  0  0  0  0
    1.1509   -4.1464    1.8892 H   0  0  0  0  0  0  0  0  0  0  0  0
    1.3471   -3.9758    0.1287 H   0  0  0  0  0  0  0  0  0  0  0  0
  5  6  2  0  0  0  0
  5  7  1  0  0  0  0
  2  3  1  0  0  0  0
  2  4  1  0  0  0  0
  2  5  1  0  0  0  0
  1  2  1  0  0  0  0
 25 26  2  0  0  0  0
 25 27  1  0  0  0  0
 23 24  1  0  0  0  0
 21 22  1  0  0  0  0
 21 23  2  0  0  0  0
 19 20  1  0  0  0  0
 19 21  1  0  0  0  0
 17 18  1  0  0  0  0
 17 19  2  0  0  0  0
 15 16  1  0  0  0  0
 15 17  1  0  0  0  0
 14 15  2  0  0  0  0
 14 23  1  0  0  0  0
 11 12  1  0  0  0  0
 11 13  1  0  0  0  0
 11 14  1  0  0  0  0
  9 10  1  0  0  0  0
  9 11  1  0  0  0  0
  9 25  1  0  0  0  0
  7  8  1  0  0  0  0
  7  9  1  0  0  0  0
 29 30  1  0  0  0  0
 29 31  1  0  0  0  0
 29 32  1  0  0  0  0
 27 28  1  0  0  0  0
 27 29  1  0  0  0  0
M  END
$$$$
default_name
  -OEChem-01062215323D

 32 32  0     1  0  0  0  0  0999 V2000
   -3.8405   -3.7518    1.6252 H   0  0  0  0  0  0  0  0  0  0  0  0
   -3.7965   -2.8768    0.9782 C   0  0  0  0  0  0  0  0  0  0  0  0
   -4.5465   -2.1527    1.2902 H   0  0  0  0  0  0  0  0  0  0  0  0
   -3.9745   -3.1748   -0.0538 H   0  0  0  0  0  0  0  0  0  0  0  0
   -2.4245   -2.2537    1.0882 C   0  0  0  0  0  0  0  0  0  0  0  0
   -1.5805   -2.7478    1.8242 O   0  0  0  0  0  0  0  0  0  0  0  0
   -2.2045   -1.1637    0.3562 N   0  0  0  0  0  0  0  0  0  0  0  0
   -2.9595   -0.7907   -0.2008 H   0  0  0  0  0  0  0  0  0  0  0  0
   -0.9485   -0.4087    0.3482 C   0  0  1  0  0  0  0  0  0  0  0  0
   -0.9334    0.2328   -0.5344 H   0  0  0  0  0  0  0  0  0  0  0  0
   -0.8853    0.4859    1.5980 C   0  0  0  0  0  0  0  0  0  0  0  0
   -1.0440   -0.1302    2.4842 H   0  0  0  0  0  0  0  0  0  0  0  0
    0.1138    0.9176    1.6738 H   0  0  0  0  0  0  0  0  0  0  0  0
   -1.9144    1.6002    1.6098 C   0  0  0  0  0  0  0  0  0  0  0  0
   -1.6872    2.7886    0.8901 C   0  0  0  0  0  0  0  0  0  0  0  0
   -0.7654    2.9234    0.3420 H   0  0  0  0  0  0  0  0  0  0  0  0
   -2.6645    3.8008    0.8723 C   0  0  0  0  0  0  0  0  0  0  0  0
   -2.4869    4.7136    0.3211 H   0  0  0  0  0  0  0  0  0  0  0  0
   -3.8706    3.6260    1.5718 C   0  0  0  0  0  0  0  0  0  0  0  0
   -4.6204    4.4046    1.5599 H   0  0  0  0  0  0  0  0  0  0  0  0
   -4.1002    2.4403    2.2931 C   0  0  0  0  0  0  0  0  0  0  0  0
   -5.0250    2.3080    2.8353 H   0  0  0  0  0  0  0  0  0  0  0  0
   -3.1220    1.4303    2.3135 C   0  0  0  0  0  0  0  0  0  0  0  0
   -3.2985    0.5200    2.8716 H   0  0  0  0  0  0  0  0  0  0  0  0
    0.2614   -1.3562    0.2590 C   0  0  0  0  0  0  0  0  0  0  0  0
    1.2968   -0.9879   -0.2976 O   0  0  0  0  0  0  0  0  0  0  0  0
    0.1321   -2.5744    0.7997 N   0  0  0  0  0  0  0  0  0  0  0  0
   -0.7654   -2.8215    1.1880 H   0  0  0  0  0  0  0  0  0  0  0  0
    1.1795   -3.5928    0.7918 C   0  0  0  0  0  0  0  0  0  0  0  0
    2.1066   -3.1728    1.1875 H   0  0  0  0  0  0  0  0  0  0  0  0
    0.8813   -4.4450    1.4031 H   0  0  0  0  0  0  0  0  0  0  0  0
    1.3579   -3.9282   -0.2317 H   0  0  0  0  0  0  0  0  0  0  0  0
  5  6  2  0  0  0  0
  5  7  1  0  0  0  0
  2  3  1  0  0  0  0
  2  4  1  0  0  0  0
  2  5  1  0  0  0  0
  1  2  1  0  0  0  0
 25 26  2  0  0  0  0
 25 27  1  0  0  0  0
 23 24  1  0  0  0  0
 21 22  1  0  0  0  0
 21 23  2  0  0  0  0
 19 20  1  0  0  0  0
 19 21  1  0  0  0  0
 17 18  1  0  0  0  0
 17 19  2  0  0  0  0
 15 16  1  0  0  0  0
 15 17  1  0  0  0  0
 14 15  2  0  0  0  0
 14 23  1  0  0  0  0
 11 12  1  0  0  0  0
 11 13  1  0  0  0  0
 11 14  1  0  0  0  0
  9 10  1  0  0  0  0
  9 11  1  0  0  0  0
  9 25  1  0  0  0  0
  7  8  1  0  0  0  0
  7  9  1  0  0  0  0
 29 30  1  0  0  0  0
 29 31  1  0  0  0  0
 29 32  1  0  0  0  0
 27 28  1  0  0  0  0
 27 29  1  0  0  0  0
M  END
$$$$
default_name
  -OEChem-01062215323D

 32 32  0     1  0  0  0  0  0999 V2000
   -3.8405   -3.7518    1.6252 H   0  0  0  0  0  0  0  0  0  0  0  0
   -3.7965   -2.8768    0.9782 C   0  0  0  0  0  0  0  0  0  0  0  0
   -4.5465   -2.1527    1.2902 H   0  0  0  0  0  0  0  0  0  0  0  0
   -3.9745   -3.1748   -0.0538 H   0  0  0  0  0  0  0  0  0  0  0  0
   -2.4245   -2.2537    1.0882 C   0  0  0  0  0  0  0  0  0  0  0  0
   -1.5805   -2.7478    1.8242 O   0  0  0  0  0  0  0  0  0  0  0  0
   -2.2045   -1.1637    0.3562 N   0  0  0  0  0  0  0  0  0  0  0  0
   -2.9595   -0.7907   -0.2008 H   0  0  0  0  0  0  0  0  0  0  0  0
   -0.9485   -0.4087    0.3482 C   0  0  1  0  0  0  0  0  0  0  0  0
   -0.9334    0.2328   -0.5344 H   0  0  0  0  0  0  0  0  0  0  0  0
   -0.8853    0.4859    1.5980 C   0  0  0  0  0  0  0  0  0  0  0  0
   -1.0440   -0.1302    2.4842 H   0  0  0  0  0  0  0  0  0  0  0  0
    0.1138    0.9176    1.6738 H   0  0  0  0  0  0  0  0  0  0  0  0
   -1.9144    1.6002    1.6098 C   0  0  0  0  0  0  0  0  0  0  0  0
   -1.6872    2.7886    0.8901 C   0  0  0  0  0  0  0  0  0  0  0  0
   -0.7654    2.9234    0.3420 H   0  0  0  0  0  0  0  0  0  0  0  0
   -2.6645    3.8008    0.8723 C   0  0  0  0  0  0  0  0  0  0  0  0
   -2.4869    4.7136    0.3211 H   0  0  0  0  0  0  0  0  0  0  0  0
   -3.8706    3.6260    1.5718 C   0  0  0  0  0  0  0  0  0  0  0  0
   -4.6204    4.4046    1.5599 H   0  0  0  0  0  0  0  0  0  0  0  0
   -4.1002    2.4403    2.2931 C   0  0  0  0  0  0  0  0  0  0  0  0
   -5.0250    2.3080    2.8353 H   0  0  0  0  0  0  0  0  0  0  0  0
   -3.1220    1.4303    2.3135 C   0  0  0  0  0  0  0  0  0  0  0  0
   -3.2985    0.5200    2.8716 H   0  0  0  0  0  0  0  0  0  0  0  0
    0.2614   -1.3562    0.2590 C   0  0  0  0  0  0  0  0  0  0  0  0
    1.3723   -0.9157   -0.0400 O   0  0  0  0  0  0  0  0  0  0  0  0
    0.0487   -2.6539    0.5117 N   0  0  0  0  0  0  0  0  0  0  0  0
   -0.8992   -2.9460    0.6946 H   0  0  0  0  0  0  0  0  0  0  0  0
    1.0852   -3.6821    0.4608 C   0  0  0  0  0  0  0  0  0  0  0  0
    1.9359   -3.3802    1.0752 H   0  0  0  0  0  0  0  0  0  0  0  0
    0.6938   -4.6305    0.8299 H   0  0  0  0  0  0  0  0  0  0  0  0
    1.4264   -3.8090   -0.5685 H   0  0  0  0  0  0  0  0  0  0  0  0
  5  6  2  0  0  0  0
  5  7  1  0  0  0  0
  2  3  1  0  0  0  0
  2  4  1  0  0  0  0
  2  5  1  0  0  0  0
  1  2  1  0  0  0  0
 25 26  2  0  0  0  0
 25 27  1  0  0  0  0
 23 24  1  0  0  0  0
 21 22  1  0  0  0  0
 21 23  2  0  0  0  0
 19 20  1  0  0  0  0
 19 21  1  0  0  0  0
 17 18  1  0  0  0  0
 17 19  2  0  0  0  0
 15 16  1  0  0  0  0
 15 17  1  0  0  0  0
 14 15  2  0  0  0  0
 14 23  1  0  0  0  0
 11 12  1  0  0  0  0
 11 13  1  0  0  0  0
 11 14  1  0  0  0  0
  9 10  1  0  0  0  0
  9 11  1  0  0  0  0
  9 25  1  0  0  0  0
  7  8  1  0  0  0  0
  7  9  1  0  0  0  0
 29 30  1  0  0  0  0
 29 31  1  0  0  0  0
 29 32  1  0  0  0  0
 27 28  1  0  0  0  0
 27 29  1  0  0  0  0
M  END
$$$$
default_name
  -OEChem-01062215323D

 32 32  0     1  0  0  0  0  0999 V2000
   -3.8405   -3.7518    1.6252 H   0  0  0  0  0  0  0  0  0  0  0  0
   -3.7965   -2.8768    0.9782 C   0  0  0  0  0  0  0  0  0  0  0  0
   -4.5465   -2.1527    1.2902 H   0  0  0  0  0  0  0  0  0  0  0  0
   -3.9745   -3.1748   -0.0538 H   0  0  0  0  0  0  0  0  0  0  0  0
   -2.4245   -2.2537    1.0882 C   0  0  0  0  0  0  0  0  0  0  0  0
   -1.5805   -2.7478    1.8242 O   0  0  0  0  0  0  0  0  0  0  0  0
   -2.2045   -1.1637    0.3562 N   0  0  0  0  0  0  0  0  0  0  0  0
   -2.9595   -0.7907   -0.2008 H   0  0  0  0  0  0  0  0  0  0  0  0
   -0.9485   -0.4087    0.3482 C   0  0  1  0  0  0  0  0  0  0  0  0
   -0.9334    0.2328   -0.5344 H   0  0  0  0  0  0  0  0  0  0  0  0
   -0.8853    0.4859    1.5980 C   0  0  0  0  0  0  0  0  0  0  0  0
   -1.0440   -0.1302    2.4842 H   0  0  0  0  0  0  0  0  0  0  0  0
    0.1138    0.9176    1.6738 H   0  0  0  0  0  0  0  0  0  0  0  0
   -1.9144    1.6002    1.6098 C   0  0  0  0  0  0  0  0  0  0  0  0
   -1.6872    2.7886    0.8901 C   0  0  0  0  0  0  0  0  0  0  0  0
   -0.7654    2.9234    0.3420 H   0  0  0  0  0  0  0  0  0  0  0  0
   -2.6645    3.8008    0.8723 C   0  0  0  0  0  0  0  0  0  0  0  0
   -2.4869    4.7136    0.3211 H   0  0  0  0  0  0  0  0  0  0  0  0
   -3.8706    3.6260    1.5718 C   0  0  0  0  0  0  0  0  0  0  0  0
   -4.6204    4.4046    1.5599 H   0  0  0  0  0  0  0  0  0  0  0  0
   -4.1002    2.4403    2.2931 C   0  0  0  0  0  0  0  0  0  0  0  0
   -5.0250    2.3080    2.8353 H   0  0  0  0  0  0  0  0  0  0  0  0
   -3.1220    1.4303    2.3135 C   0  0  0  0  0  0  0  0  0  0  0  0
   -3.2985    0.5200    2.8716 H   0  0  0  0  0  0  0  0  0  0  0  0
    0.2614   -1.3562    0.2590 C   0  0  0  0  0  0  0  0  0  0  0  0
    1.4052   -0.8995    0.2355 O   0  0  0  0  0  0  0  0  0  0  0  0
    0.0127   -2.6708    0.2039 N   0  0  0  0  0  0  0  0  0  0  0  0
   -0.9518   -2.9639    0.1714 H   0  0  0  0  0  0  0  0  0  0  0  0
    1.0455   -3.6996    0.1079 C   0  0  0  0  0  0  0  0  0  0  0  0
    1.7859   -3.5551    0.8975 H   0  0  0  0  0  0  0  0  0  0  0  0
    0.6012   -4.6902    0.2086 H   0  0  0  0  0  0  0  0  0  0  0  0
    1.5480   -3.6264   -0.8586 H   0  0  0  0  0  0  0  0  0  0  0  0
  5  6  2  0  0  0  0
  5  7  1  0  0  0  0
  2  3  1  0  0  0  0
  2  4  1  0  0  0  0
  2  5  1  0  0  0  0
  1  2  1  0  0  0  0
 25 26  2  0  0  0  0
 25 27  1  0  0  0  0
 23 24  1  0  0  0  0
 21 22  1  0  0  0  0
 21 23  2  0  0  0  0
 19 20  1  0  0  0  0
 19 21  1  0  0  0  0
 17 18  1  0  0  0  0
 17 19  2  0  0  0  0
 15 16  1  0  0  0  0
 15 17  1  0  0  0  0
 14 15  2  0  0  0  0
 14 23  1  0  0  0  0
 11 12  1  0  0  0  0
 11 13  1  0  0  0  0
 11 14  1  0  0  0  0
  9 10  1  0  0  0  0
  9 11  1  0  0  0  0
  9 25  1  0  0  0  0
  7  8  1  0  0  0  0
  7  9  1  0  0  0  0
 29 30  1  0  0  0  0
 29 31  1  0  0  0  0
 29 32  1  0  0  0  0
 27 28  1  0  0  0  0
 27 29  1  0  0  0  0
M  END
$$$$
default_name
  -OEChem-01062215323D

 32 32  0     1  0  0  0  0  0999 V2000
   -3.8405   -3.7518    1.6252 H   0  0  0  0  0  0  0  0  0  0  0  0
   -3.7965   -2.8768    0.9782 C   0  0  0  0  0  0  0  0  0  0  0  0
   -4.5465   -2.1527    1.2902 H   0  0  0  0  0  0  0  0  0  0  0  0
   -3.9745   -3.1748   -0.0538 H   0  0  0  0  0  0  0  0  0  0  0  0
   -2.4245   -2.2537    1.0882 C   0  0  0  0  0  0  0  0  0  0  0  0
   -1.5805   -2.7478    1.8242 O   0  0  0  0  0  0  0  0  0  0  0  0
   -2.2045   -1.1637    0.3562 N   0  0  0  0  0  0  0  0  0  0  0  0
   -2.9595   -0.7907   -0.2008 H   0  0  0  0  0  0  0  0  0  0  0  0
   -0.9485   -0.4087    0.3482 C   0  0  1  0  0  0  0  0  0  0  0  0
   -0.9334    0.2328   -0.5344 H   0  0  0  0  0  0  0  0  0  0  0  0
   -0.8853    0.4859    1.5980 C   0  0  0  0  0  0  0  0  0  0  0  0
   -1.0440   -0.1302    2.4842 H   0  0  0  0  0  0  0  0  0  0  0  0
    0.1138    0.9176    1.6738 H   0  0  0  0  0  0  0  0  0  0  0  0
   -1.9144    1.6002    1.6098 C   0  0  0  0  0  0  0  0  0  0  0  0
   -1.6872    2.7886    0.8901 C   0  0  0  0  0  0  0  0  0  0  0  0
   -0.7654    2.9234    0.3420 H   0  0  0  0  0  0  0  0  0  0  0  0
   -2.6645    3.8008    0.8723 C   0  0  0  0  0  0  0  0  0  0  0  0
   -2.4869    4.7136    0.3211 H   0  0  0  0  0  0  0  0  0  0  0  0
   -3.8706    3.6260    1.5718 C   0  0  0  0  0  0  0  0  0  0  0  0
   -4.6204    4.4046    1.5599 H   0  0  0  0  0  0  0  0  0  0  0  0
   -4.1002    2.4403    2.2931 C   0  0  0  0  0  0  0  0  0  0  0  0
   -5.0250    2.3080    2.8353 H   0  0  0  0  0  0  0  0  0  0  0  0
   -3.1220    1.4303    2.3135 C   0  0  0  0  0  0  0  0  0  0  0  0
   -3.2985    0.5200    2.8716 H   0  0  0  0  0  0  0  0  0  0  0  0
    0.2614   -1.3562    0.2590 C   0  0  0  0  0  0  0  0  0  0  0  0
    1.3934   -0.9405    0.5102 O   0  0  0  0  0  0  0  0  0  0  0  0
    0.0268   -2.6240   -0.1024 N   0  0  0  0  0  0  0  0  0  0  0  0
   -0.9195   -2.8740   -0.3460 H   0  0  0  0  0  0  0  0  0  0  0  0
    1.0631   -3.6441   -0.2429 C   0  0  0  0  0  0  0  0  0  0  0  0
    1.6666   -3.6856    0.6662 H   0  0  0  0  0  0  0  0  0  0  0  0
    0.6099   -4.6202   -0.4184 H   0  0  0  0  0  0  0  0  0  0  0  0
    1.7144   -3.3929   -1.0823 H   0  0  0  0  0  0  0  0  0  0  0  0
  5  6  2  0  0  0  0
  5  7  1  0  0  0  0
  2  3  1  0  0  0  0
  2  4  1  0  0  0  0
  2  5  1  0  0  0  0
  1  2  1  0  0  0  0
 25 26  2  0  0  0  0
 25 27  1  0  0  0  0
 23 24  1  0  0  0  0
 21 22  1  0  0  0  0
 21 23  2  0  0  0  0
 19 20  1  0  0  0  0
 19 21  1  0  0  0  0
 17 18  1  0  0  0  0
 17 19  2  0  0  0  0
 15 16  1  0  0  0  0
 15 17  1  0  0  0  0
 14 15  2  0  0  0  0
 14 23  1  0  0  0  0
 11 12  1  0  0  0  0
 11 13  1  0  0  0  0
 11 14  1  0  0  0  0
  9 10  1  0  0  0  0
  9 11  1  0  0  0  0
  9 25  1  0  0  0  0
  7  8  1  0  0  0  0
  7  9  1  0  0  0  0
 29 30  1  0  0  0  0
 29 31  1  0  0  0  0
 29 32  1  0  0  0  0
 27 28  1  0  0  0  0
 27 29  1  0  0  0  0
M  END
$$$$
default_name
  -OEChem-01062215323D

 32 32  0     1  0  0  0  0  0999 V2000
   -3.8405   -3.7518    1.6252 H   0  0  0  0  0  0  0  0  0  0  0  0
   -3.7965   -2.8768    0.9782 C   0  0  0  0  0  0  0  0  0  0  0  0
   -4.5465   -2.1527    1.2902 H   0  0  0  0  0  0  0  0  0  0  0  0
   -3.9745   -3.1748   -0.0538 H   0  0  0  0  0  0  0  0  0  0  0  0
   -2.4245   -2.2537    1.0882 C   0  0  0  0  0  0  0  0  0  0  0  0
   -1.5805   -2.7478    1.8242 O   0  0  0  0  0  0  0  0  0  0  0  0
   -2.2045   -1.1637    0.3562 N   0  0  0  0  0  0  0  0  0  0  0  0
   -2.9595   -0.7907   -0.2008 H   0  0  0  0  0  0  0  0  0  0  0  0
   -0.9485   -0.4087    0.3482 C   0  0  1  0  0  0  0  0  0  0  0  0
   -0.9334    0.2328   -0.5344 H   0  0  0  0  0  0  0  0  0  0  0  0
   -0.8853    0.4859    1.5980 C   0  0  0  0  0  0  0  0  0  0  0  0
   -1.0440   -0.1302    2.4842 H   0  0  0  0  0  0  0  0  0  0  0  0
    0.1138    0.9176    1.6738 H   0  0  0  0  0  0  0  0  0  0  0  0
   -1.9144    1.6002    1.6098 C   0  0  0  0  0  0  0  0  0  0  0  0
   -1.6872    2.7886    0.8901 C   0  0  0  0  0  0  0  0  0  0  0  0
   -0.7654    2.9234    0.3420 H   0  0  0  0  0  0  0  0  0  0  0  0
   -2.6645    3.8008    0.8723 C   0  0  0  0  0  0  0  0  0  0  0  0
   -2.4869    4.7136    0.3211 H   0  0  0  0  0  0  0  0  0  0  0  0
   -3.8706    3.6260    1.5718 C   0  0  0  0  0  0  0  0  0  0  0  0
   -4.6204    4.4046    1.5599 H   0  0  0  0  0  0  0  0  0  0  0  0
   -4.1002    2.4403    2.2931 C   0  0  0  0  0  0  0  0  0  0  0  0
   -5.0250    2.3080    2.8353 H   0  0  0  0  0  0  0  0  0  0  0  0
   -3.1220    1.4303    2.3135 C   0  0  0  0  0  0  0  0  0  0  0  0
   -3.2985    0.5200    2.8716 H   0  0  0  0  0  0  0  0  0  0  0  0
    0.2614   -1.3562    0.2590 C   0  0  0  0  0  0  0  0  0  0  0  0
    1.3377   -1.0357    0.7653 O   0  0  0  0  0  0  0  0  0  0  0  0
    0.0899   -2.5167   -0.3866 N   0  0  0  0  0  0  0  0  0  0  0  0
   -0.8045   -2.6823   -0.8224 H   0  0  0  0  0  0  0  0  0  0  0  0
    1.1368   -3.5194   -0.5676 C   0  0  0  0  0  0  0  0  0  0  0  0
    1.5863   -3.7629    0.3973 H   0  0  0  0  0  0  0  0  0  0  0  0
    0.7192   -4.4251   -1.0084 H   0  0  0  0  0  0  0  0  0  0  0  0
    1.9142   -3.1243   -1.2243 H   0  0  0  0  0  0  0  0  0  0  0  0
  5  6  2  0  0  0  0
  5  7  1  0  0  0  0
  2  3  1  0  0  0  0
  2  4  1  0  0  0  0
  2  5  1  0  0  0  0
  1  2  1  0  0  0  0
 25 26  2  0  0  0  0
 25 27  1  0  0  0  0
 23 24  1  0  0  0  0
 21 22  1  0  0  0  0
 21 23  2  0  0  0  0
 19 20  1  0  0  0  0
 19 21  1  0  0  0  0
 17 18  1  0  0  0  0
 17 19  2  0  0  0  0
 15 16  1  0  0  0  0
 15 17  1  0  0  0  0
 14 15  2  0  0  0  0
 14 23  1  0  0  0  0
 11 12  1  0  0  0  0
 11 13  1  0  0  0  0
 11 14  1  0  0  0  0
  9 10  1  0  0  0  0
  9 11  1  0  0  0  0
  9 25  1  0  0  0  0
  7  8  1  0  0  0  0
  7  9  1  0  0  0  0
 29 30  1  0  0  0  0
 29 31  1  0  0  0  0
 29 32  1  0  0  0  0
 27 28  1  0  0  0  0
 27 29  1  0  0  0  0
M  END
$$$$
default_name
  -OEChem-01062215323D

 32 32  0     1  0  0  0  0  0999 V2000
   -3.8405   -3.7518    1.6252 H   0  0  0  0  0  0  0  0  0  0  0  0
   -3.7965   -2.8768    0.9782 C   0  0  0  0  0  0  0  0  0  0  0  0
   -4.5465   -2.1527    1.2902 H   0  0  0  0  0  0  0  0  0  0  0  0
   -3.9745   -3.1748   -0.0538 H   0  0  0  0  0  0  0  0  0  0  0  0
   -2.4245   -2.2537    1.0882 C   0  0  0  0  0  0  0  0  0  0  0  0
   -1.5805   -2.7478    1.8242 O   0  0  0  0  0  0  0  0  0  0  0  0
   -2.2045   -1.1637    0.3562 N   0  0  0  0  0  0  0  0  0  0  0  0
   -2.9595   -0.7907   -0.2008 H   0  0  0  0  0  0  0  0  0  0  0  0
   -0.9485   -0.4087    0.3482 C   0  0  1  0  0  0  0  0  0  0  0  0
   -0.9334    0.2328   -0.5344 H   0  0  0  0  0  0  0  0  0  0  0  0
   -0.8853    0.4859    1.5980 C   0  0  0  0  0  0  0  0  0  0  0  0
   -1.0440   -0.1302    2.4842 H   0  0  0  0  0  0  0  0  0  0  0  0
    0.1138    0.9176    1.6738 H   0  0  0  0  0  0  0  0  0  0  0  0
   -1.9144    1.6002    1.6098 C   0  0  0  0  0  0  0  0  0  0  0  0
   -1.6872    2.7886    0.8901 C   0  0  0  0  0  0  0  0  0  0  0  0
   -0.7654    2.9234    0.3420 H   0  0  0  0  0  0  0  0  0  0  0  0
   -2.6645    3.8008    0.8723 C   0  0  0  0  0  0  0  0  0  0  0  0
   -2.4869    4.7136    0.3211 H   0  0  0  0  0  0  0  0  0  0  0  0
   -3.8706    3.6260    1.5718 C   0  0  0  0  0  0  0  0  0  0  0  0
   -4.6204    4.4046    1.5599 H   0  0  0  0  0  0  0  0  0  0  0  0
   -4.1002    2.4403    2.2931 C   0  0  0  0  0  0  0  0  0  0  0  0
   -5.0250    2.3080    2.8353 H   0  0  0  0  0  0  0  0  0  0  0  0
   -3.1220    1.4303    2.3135 C   0  0  0  0  0  0  0  0  0  0  0  0
   -3.2985    0.5200    2.8716 H   0  0  0  0  0  0  0  0  0  0  0  0
    0.2614   -1.3562    0.2590 C   0  0  0  0  0  0  0  0  0  0  0  0
    1.2418   -1.1787    0.9835 O   0  0  0  0  0  0  0  0  0  0  0  0
    0.1977   -2.3561   -0.6293 N   0  0  0  0  0  0  0  0  0  0  0  0
   -0.6147   -2.4020   -1.2252 H   0  0  0  0  0  0  0  0  0  0  0  0
    1.2616   -3.3340   -0.8442 C   0  0  0  0  0  0  0  0  0  0  0  0
    1.5504   -3.7816    0.1091 H   0  0  0  0  0  0  0  0  0  0  0  0
    0.9216   -4.1182   -1.5212 H   0  0  0  0  0  0  0  0  0  0  0  0
    2.1340   -2.8389   -1.2751 H   0  0  0  0  0  0  0  0  0  0  0  0
  5  6  2  0  0  0  0
  5  7  1  0  0  0  0
  2  3  1  0  0  0  0
  2  4  1  0  0  0  0
  2  5  1  0  0  0  0
  1  2  1  0  0  0  0
 25 26  2  0  0  0  0
 25 27  1  0  0  0  0
 23 24  1  0  0  0  0
 21 22  1  0  0  0  0
 21 23  2  0  0  0  0
 19 20  1  0  0  0  0
 19 21  1  0  0  0  0
 17 18  1  0  0  0  0
 17 19  2  0  0  0  0
 15 16  1  0  0  0  0
 15 17  1  0  0  0  0
 14 15  2  0  0  0  0
 14 23  1  0  0  0  0
 11 12  1  0  0  0  0
 11 13  1  0  0  0  0
 11 14  1  0  0  0  0
  9 10  1  0  0  0  0
  9 11  1  0  0  0  0
  9 25  1  0  0  0  0
  7  8  1  0  0  0  0
  7  9  1  0  0  0  0
 29 30  1  0  0  0  0
 29 31  1  0  0  0  0
 29 32  1  0  0  0  0
 27 28  1  0  0  0  0
 27 29  1  0  0  0  0
M  END
$$$$
default_name
  -OEChem-01062215323D

 32 32  0     1  0  0  0  0  0999 V2000
   -3.8405   -3.7518    1.6252 H   0  0  0  0  0  0  0  0  0  0  0  0
   -3.7965   -2.8768    0.9782 C   0  0  0  0  0  0  0  0  0  0  0  0
   -4.5465   -2.1527    1.2902 H   0  0  0  0  0  0  0  0  0  0  0  0
   -3.9745   -3.1748   -0.0538 H   0  0  0  0  0  0  0  0  0  0  0  0
   -2.4245   -2.2537    1.0882 C   0  0  0  0  0  0  0  0  0  0  0  0
   -1.5805   -2.7478    1.8242 O   0  0  0  0  0  0  0  0  0  0  0  0
   -2.2045   -1.1637    0.3562 N   0  0  0  0  0  0  0  0  0  0  0  0
   -2.9595   -0.7907   -0.2008 H   0  0  0  0  0  0  0  0  0  0  0  0
   -0.9485   -0.4087    0.3482 C   0  0  1  0  0  0  0  0  0  0  0  0
   -0.9334    0.2328   -0.5344 H   0  0  0  0  0  0  0  0  0  0  0  0
   -0.8853    0.4859    1.5980 C   0  0  0  0  0  0  0  0  0  0  0  0
   -1.0440   -0.1302    2.4842 H   0  0  0  0  0  0  0  0  0  0  0  0
    0.1138    0.9176    1.6738 H   0  0  0  0  0  0  0  0  0  0  0  0
   -1.9144    1.6002    1.6098 C   0  0  0  0  0  0  0  0  0  0  0  0
   -1.6872    2.7886    0.8901 C   0  0  0  0  0  0  0  0  0  0  0  0
   -0.7654    2.9234    0.3420 H   0  0  0  0  0  0  0  0  0  0  0  0
   -2.6645    3.8008    0.8723 C   0  0  0  0  0  0  0  0  0  0  0  0
   -2.4869    4.7136    0.3211 H   0  0  0  0  0  0  0  0  0  0  0  0
   -3.8706    3.6260    1.5718 C   0  0  0  0  0  0  0  0  0  0  0  0
   -4.6204    4.4046    1.5599 H   0  0  0  0  0  0  0  0  0  0  0  0
   -4.1002    2.4403    2.2931 C   0  0  0  0  0  0  0  0  0  0  0  0
   -5.0250    2.3080    2.8353 H   0  0  0  0  0  0  0  0  0  0  0  0
   -3.1220    1.4303    2.3135 C   0  0  0  0  0  0  0  0  0  0  0  0
   -3.2985    0.5200    2.8716 H   0  0  0  0  0  0  0  0  0  0  0  0
    0.2614   -1.3562    0.2590 C   0  0  0  0  0  0  0  0  0  0  0  0
    1.1122   -1.3598    1.1499 O   0  0  0  0  0  0  0  0  0  0  0  0
    0.3429   -2.1533   -0.8138 N   0  0  0  0  0  0  0  0  0  0  0  0
   -0.3630   -2.0522   -1.5271 H   0  0  0  0  0  0  0  0  0  0  0  0
    1.4290   -3.1005   -1.0537 C   0  0  0  0  0  0  0  0  0  0  0  0
    1.5613   -3.7406   -0.1788 H   0  0  0  0  0  0  0  0  0  0  0  0
    1.2035   -3.7206   -1.9218 H   0  0  0  0  0  0  0  0  0  0  0  0
    2.3586   -2.5562   -1.2310 H   0  0  0  0  0  0  0  0  0  0  0  0
  5  6  2  0  0  0  0
  5  7  1  0  0  0  0
  2  3  1  0  0  0  0
  2  4  1  0  0  0  0
  2  5  1  0  0  0  0
  1  2  1  0  0  0  0
 25 26  2  0  0  0  0
 25 27  1  0  0  0  0
 23 24  1  0  0  0  0
 21 22  1  0  0  0  0
 21 23  2  0  0  0  0
 19 20  1  0  0  0  0
 19 21  1  0  0  0  0
 17 18  1  0  0  0  0
 17 19  2  0  0  0  0
 15 16  1  0  0  0  0
 15 17  1  0  0  0  0
 14 15  2  0  0  0  0
 14 23  1  0  0  0  0
 11 12  1  0  0  0  0
 11 13  1  0  0  0  0
 11 14  1  0  0  0  0
  9 10  1  0  0  0  0
  9 11  1  0  0  0  0
  9 25  1  0  0  0  0
  7  8  1  0  0  0  0
  7  9  1  0  0  0  0
 29 30  1  0  0  0  0
 29 31  1  0  0  0  0
 29 32  1  0  0  0  0
 27 28  1  0  0  0  0
 27 29  1  0  0  0  0
M  END
$$$$
default_name
  -OEChem-01062215323D

 32 32  0     1  0  0  0  0  0999 V2000
   -3.8405   -3.7518    1.6252 H   0  0  0  0  0  0  0  0  0  0  0  0
   -3.7965   -2.8768    0.9782 C   0  0  0  0  0  0  0  0  0  0  0  0
   -4.5465   -2.1527    1.2902 H   0  0  0  0  0  0  0  0  0  0  0  0
   -3.9745   -3.1748   -0.0538 H   0  0  0  0  0  0  0  0  0  0  0  0
   -2.4245   -2.2537    1.0882 C   0  0  0  0  0  0  0  0  0  0  0  0
   -1.5805   -2.7478    1.8242 O   0  0  0  0  0  0  0  0  0  0  0  0
   -2.2045   -1.1637    0.3562 N   0  0  0  0  0  0  0  0  0  0  0  0
   -2.9595   -0.7907   -0.2008 H   0  0  0  0  0  0  0  0  0  0  0  0
   -0.9485   -0.4087    0.3482 C   0  0  1  0  0  0  0  0  0  0  0  0
   -0.9334    0.2328   -0.5344 H   0  0  0  0  0  0  0  0  0  0  0  0
   -0.8853    0.4859    1.5980 C   0  0  0  0  0  0  0  0  0  0  0  0
   -1.0440   -0.1302    2.4842 H   0  0  0  0  0  0  0  0  0  0  0  0
    0.1138    0.9176    1.6738 H   0  0  0  0  0  0  0  0  0  0  0  0
   -1.9144    1.6002    1.6098 C   0  0  0  0  0  0  0  0  0  0  0  0
   -1.6872    2.7886    0.8901 C   0  0  0  0  0  0  0  0  0  0  0  0
   -0.7654    2.9234    0.3420 H   0  0  0  0  0  0  0  0  0  0  0  0
   -2.6645    3.8008    0.8723 C   0  0  0  0  0  0  0  0  0  0  0  0
   -2.4869    4.7136    0.3211 H   0  0  0  0  0  0  0  0  0  0  0  0
   -3.8706    3.6260    1.5718 C   0  0  0  0  0  0  0  0  0  0  0  0
   -4.6204    4.4046    1.5599 H   0  0  0  0  0  0  0  0  0  0  0  0
   -4.1002    2.4403    2.2931 C   0  0  0  0  0  0  0  0  0  0  0  0
   -5.0250    2.3080    2.8353 H   0  0  0  0  0  0  0  0  0  0  0  0
   -3.1220    1.4303    2.3135 C   0  0  0  0  0  0  0  0  0  0  0  0
   -3.2985    0.5200    2.8716 H   0  0  0  0  0  0  0  0  0  0  0  0
    0.2614   -1.3562    0.2590 C   0  0  0  0  0  0  0  0  0  0  0  0
    0.9578   -1.5667    1.2531 O   0  0  0  0  0  0  0  0  0  0  0  0
    0.5156   -1.9221   -0.9276 N   0  0  0  0  0  0  0  0  0  0  0  0
   -0.0665   -1.6566   -1.7073 H   0  0  0  0  0  0  0  0  0  0  0  0
    1.6275   -2.8349   -1.1819 C   0  0  0  0  0  0  0  0  0  0  0  0
    1.6184   -3.6425   -0.4469 H   0  0  0  0  0  0  0  0  0  0  0  0
    1.5456   -3.2591   -2.1830 H   0  0  0  0  0  0  0  0  0  0  0  0
    2.5727   -2.2955   -1.0952 H   0  0  0  0  0  0  0  0  0  0  0  0
  5  6  2  0  0  0  0
  5  7  1  0  0  0  0
  2  3  1  0  0  0  0
  2  4  1  0  0  0  0
  2  5  1  0  0  0  0
  1  2  1  0  0  0  0
 25 26  2  0  0  0  0
 25 27  1  0  0  0  0
 23 24  1  0  0  0  0
 21 22  1  0  0  0  0
 21 23  2  0  0  0  0
 19 20  1  0  0  0  0
 19 21  1  0  0  0  0
 17 18  1  0  0  0  0
 17 19  2  0  0  0  0
 15 16  1  0  0  0  0
 15 17  1  0  0  0  0
 14 15  2  0  0  0  0
 14 23  1  0  0  0  0
 11 12  1  0  0  0  0
 11 13  1  0  0  0  0
 11 14  1  0  0  0  0
  9 10  1  0  0  0  0
  9 11  1  0  0  0  0
  9 25  1  0  0  0  0
  7  8  1  0  0  0  0
  7  9  1  0  0  0  0
 29 30  1  0  0  0  0
 29 31  1  0  0  0  0
 29 32  1  0  0  0  0
 27 28  1  0  0  0  0
 27 29  1  0  0  0  0
M  END
$$$$
default_name
  -OEChem-01062215323D

 32 32  0     1  0  0  0  0  0999 V2000
   -3.8405   -3.7518    1.6252 H   0  0  0  0  0  0  0  0  0  0  0  0
   -3.7965   -2.8768    0.9782 C   0  0  0  0  0  0  0  0  0  0  0  0
   -4.5465   -2.1527    1.2902 H   0  0  0  0  0  0  0  0  0  0  0  0
   -3.9745   -3.1748   -0.0538 H   0  0  0  0  0  0  0  0  0  0  0  0
   -2.4245   -2.2537    1.0882 C   0  0  0  0  0  0  0  0  0  0  0  0
   -1.5805   -2.7478    1.8242 O   0  0  0  0  0  0  0  0  0  0  0  0
   -2.2045   -1.1637    0.3562 N   0  0  0  0  0  0  0  0  0  0  0  0
   -2.9595   -0.7907   -0.2008 H   0  0  0  0  0  0  0  0  0  0  0  0
   -0.9485   -0.4087    0.3482 C   0  0  1  0  0  0  0  0  0  0  0  0
   -0.9334    0.2328   -0.5344 H   0  0  0  0  0  0  0  0  0  0  0  0
   -0.8853    0.4859    1.5980 C   0  0  0  0  0  0  0  0  0  0  0  0
   -1.0440   -0.1302    2.4842 H   0  0  0  0  0  0  0  0  0  0  0  0
    0.1138    0.9176    1.6738 H   0  0  0  0  0  0  0  0  0  0  0  0
   -1.9144    1.6002    1.6098 C   0  0  0  0  0  0  0  0  0  0  0  0
   -1.6872    2.7886    0.8901 C   0  0  0  0  0  0  0  0  0  0  0  0
   -0.7654    2.9234    0.3420 H   0  0  0  0  0  0  0  0  0  0  0  0
   -2.6645    3.8008    0.8723 C   0  0  0  0  0  0  0  0  0  0  0  0
   -2.4869    4.7136    0.3211 H   0  0  0  0  0  0  0  0  0  0  0  0
   -3.8706    3.6260    1.5718 C   0  0  0  0  0  0  0  0  0  0  0  0
   -4.6204    4.4046    1.5599 H   0  0  0  0  0  0  0  0  0  0  0  0
   -4.1002    2.4403    2.2931 C   0  0  0  0  0  0  0  0  0  0  0  0
   -5.0250    2.3080    2.8353 H   0  0  0  0  0  0  0  0  0  0  0  0
   -3.1220    1.4303    2.3135 C   0  0  0  0  0  0  0  0  0  0  0  0
   -3.2985    0.5200    2.8716 H   0  0  0  0  0  0  0  0  0  0  0  0
    0.2614   -1.3562    0.2590 C   0  0  0  0  0  0  0  0  0  0  0  0
    0.7892   -1.7852    1.2861 O   0  0  0  0  0  0  0  0  0  0  0  0
    0.7040   -1.6781   -0.9631 N   0  0  0  0  0  0  0  0  0  0  0  0
    0.2545   -1.2423   -1.7538 H   0  0  0  0  0  0  0  0  0  0  0  0
    1.8437   -2.5552   -1.2201 C   0  0  0  0  0  0  0  0  0  0  0  0
    1.7177   -3.4940   -0.6767 H   0  0  0  0  0  0  0  0  0  0  0  0
    1.9245   -2.7655   -2.2869 H   0  0  0  0  0  0  0  0  0  0  0  0
    2.7618   -2.0745   -0.8768 H   0  0  0  0  0  0  0  0  0  0  0  0
  5  6  2  0  0  0  0
  5  7  1  0  0  0  0
  2  3  1  0  0  0  0
  2  4  1  0  0  0  0
  2  5  1  0  0  0  0
  1  2  1  0  0  0  0
 25 26  2  0  0  0  0
 25 27  1  0  0  0  0
 23 24  1  0  0  0  0
 21 22  1  0  0  0  0
 21 23  2  0  0  0  0
 19 20  1  0  0  0  0
 19 21  1  0  0  0  0
 17 18  1  0  0  0  0
 17 19  2  0  0  0  0
 15 16  1  0  0  0  0
 15 17  1  0  0  0  0
 14 15  2  0  0  0  0
 14 23  1  0  0  0  0
 11 12  1  0  0  0  0
 11 13  1  0  0  0  0
 11 14  1  0  0  0  0
  9 10  1  0  0  0  0
  9 11  1  0  0  0  0
  9 25  1  0  0  0  0
  7  8  1  0  0  0  0
  7  9  1  0  0  0  0
 29 30  1  0  0  0  0
 29 31  1  0  0  0  0
 29 32  1  0  0  0  0
 27 28  1  0  0  0  0
 27 29  1  0  0  0  0
M  END
$$$$
default_name
  -OEChem-01062215323D

 32 32  0     1  0  0  0  0  0999 V2000
   -3.8405   -3.7518    1.6252 H   0  0  0  0  0  0  0  0  0  0  0  0
   -3.7965   -2.8768    0.9782 C   0  0  0  0  0  0  0  0  0  0  0  0
   -4.5465   -2.1527    1.2902 H   0  0  0  0  0  0  0  0  0  0  0  0
   -3.9745   -3.1748   -0.0538 H   0  0  0  0  0  0  0  0  0  0  0  0
   -2.4245   -2.2537    1.0882 C   0  0  0  0  0  0  0  0  0  0  0  0
   -1.5805   -2.7478    1.8242 O   0  0  0  0  0  0  0  0  0  0  0  0
   -2.2045   -1.1637    0.3562 N   0  0  0  0  0  0  0  0  0  0  0  0
   -2.9595   -0.7907   -0.2008 H   0  0  0  0  0  0  0  0  0  0  0  0
   -0.9485   -0.4087    0.3482 C   0  0  1  0  0  0  0  0  0  0  0  0
   -0.9334    0.2328   -0.5344 H   0  0  0  0  0  0  0  0  0  0  0  0
   -0.8853    0.4859    1.5980 C   0  0  0  0  0  0  0  0  0  0  0  0
   -1.0440   -0.1302    2.4842 H   0  0  0  0  0  0  0  0  0  0  0  0
    0.1138    0.9176    1.6738 H   0  0  0  0  0  0  0  0  0  0  0  0
   -1.9144    1.6002    1.6098 C   0  0  0  0  0  0  0  0  0  0  0  0
   -1.6872    2.7886    0.8901 C   0  0  0  0  0  0  0  0  0  0  0  0
   -0.7654    2.9234    0.3420 H   0  0  0  0  0  0  0  0  0  0  0  0
   -2.6645    3.8008    0.8723 C   0  0  0  0  0  0  0  0  0  0  0  0
   -2.4869    4.7136    0.3211 H   0  0  0  0  0  0  0  0  0  0  0  0
   -3.8706    3.6260    1.5718 C   0  0  0  0  0  0  0  0  0  0  0  0
   -4.6204    4.4046    1.5599 H   0  0  0  0  0  0  0  0  0  0  0  0
   -4.1002    2.4403    2.2931 C   0  0  0  0  0  0  0  0  0  0  0  0
   -5.0250    2.3080    2.8353 H   0  0  0  0  0  0  0  0  0  0  0  0
   -3.1220    1.4303    2.3135 C   0  0  0  0  0  0  0  0  0  0  0  0
   -3.2985    0.5200    2.8716 H   0  0  0  0  0  0  0  0  0  0  0  0
    0.2614   -1.3562    0.2590 C   0  0  0  0  0  0  0  0  0  0  0  0
    0.6177   -2.0004    1.2467 O   0  0  0  0  0  0  0  0  0  0  0  0
    0.8953   -1.4381   -0.9176 N   0  0  0  0  0  0  0  0  0  0  0  0
    0.5782   -0.8374   -1.6632 H   0  0  0  0  0  0  0  0  0  0  0  0
    2.0628   -2.2805   -1.1657 C   0  0  0  0  0  0  0  0  0  0  0  0
    1.8524   -3.3054   -0.8527 H   0  0  0  0  0  0  0  0  0  0  0  0
    2.3145   -2.2731   -2.2265 H   0  0  0  0  0  0  0  0  0  0  0  0
    2.9131   -1.9083   -0.5908 H   0  0  0  0  0  0  0  0  0  0  0  0
  5  6  2  0  0  0  0
  5  7  1  0  0  0  0
  2  3  1  0  0  0  0
  2  4  1  0  0  0  0
  2  5  1  0  0  0  0
  1  2  1  0  0  0  0
 25 26  2  0  0  0  0
 25 27  1  0  0  0  0
 23 24  1  0  0  0  0
 21 22  1  0  0  0  0
 21 23  2  0  0  0  0
 19 20  1  0  0  0  0
 19 21  1  0  0  0  0
 17 18  1  0  0  0  0
 17 19  2  0  0  0  0
 15 16  1  0  0  0  0
 15 17  1  0  0  0  0
 14 15  2  0  0  0  0
 14 23  1  0  0  0  0
 11 12  1  0  0  0  0
 11 13  1  0  0  0  0
 11 14  1  0  0  0  0
  9 10  1  0  0  0  0
  9 11  1  0  0  0  0
  9 25  1  0  0  0  0
  7  8  1  0  0  0  0
  7  9  1  0  0  0  0
 29 30  1  0  0  0  0
 29 31  1  0  0  0  0
 29 32  1  0  0  0  0
 27 28  1  0  0  0  0
 27 29  1  0  0  0  0
M  END
$$$$
default_name
  -OEChem-01062215323D

 32 32  0     1  0  0  0  0  0999 V2000
   -3.8405   -3.7518    1.6252 H   0  0  0  0  0  0  0  0  0  0  0  0
   -3.7965   -2.8768    0.9782 C   0  0  0  0  0  0  0  0  0  0  0  0
   -4.5465   -2.1527    1.2902 H   0  0  0  0  0  0  0  0  0  0  0  0
   -3.9745   -3.1748   -0.0538 H   0  0  0  0  0  0  0  0  0  0  0  0
   -2.4245   -2.2537    1.0882 C   0  0  0  0  0  0  0  0  0  0  0  0
   -1.5805   -2.7478    1.8242 O   0  0  0  0  0  0  0  0  0  0  0  0
   -2.2045   -1.1637    0.3562 N   0  0  0  0  0  0  0  0  0  0  0  0
   -2.9595   -0.7907   -0.2008 H   0  0  0  0  0  0  0  0  0  0  0  0
   -0.9485   -0.4087    0.3482 C   0  0  1  0  0  0  0  0  0  0  0  0
   -0.9334    0.2328   -0.5344 H   0  0  0  0  0  0  0  0  0  0  0  0
   -0.8853    0.4859    1.5980 C   0  0  0  0  0  0  0  0  0  0  0  0
   -1.0440   -0.1302    2.4842 H   0  0  0  0  0  0  0  0  0  0  0  0
    0.1138    0.9176    1.6738 H   0  0  0  0  0  0  0  0  0  0  0  0
   -1.9144    1.6002    1.6098 C   0  0  0  0  0  0  0  0  0  0  0  0
   -1.6872    2.7886    0.8901 C   0  0  0  0  0  0  0  0  0  0  0  0
   -0.7654    2.9234    0.3420 H   0  0  0  0  0  0  0  0  0  0  0  0
   -2.6645    3.8008    0.8723 C   0  0  0  0  0  0  0  0  0  0  0  0
   -2.4869    4.7136    0.3211 H   0  0  0  0  0  0  0  0  0  0  0  0
   -3.8706    3.6260    1.5718 C   0  0  0  0  0  0  0  0  0  0  0  0
   -4.6204    4.4046    1.5599 H   0  0  0  0  0  0  0  0  0  0  0  0
   -4.1002    2.4403    2.2931 C   0  0  0  0  0  0  0  0  0  0  0  0
   -5.0250    2.3080    2.8353 H   0  0  0  0  0  0  0  0  0  0  0  0
   -3.1220    1.4303    2.3135 C   0  0  0  0  0  0  0  0  0  0  0  0
   -3.2985    0.5200    2.8716 H   0  0  0  0  0  0  0  0  0  0  0  0
    0.2614   -1.3562    0.2590 C   0  0  0  0  0  0  0  0  0  0  0  0
    0.4552   -2.1977    1.1375 O   0  0  0  0  0  0  0  0  0  0  0  0
    1.0765   -1.2184   -0.7944 N   0  0  0  0  0  0  0  0  0  0  0  0
    0.8824   -0.4697   -1.4418 H   0  0  0  0  0  0  0  0  0  0  0  0
    2.2699   -2.0296   -1.0223 C   0  0  0  0  0  0  0  0  0  0  0  0
    2.0134   -3.0894   -0.9629 H   0  0  0  0  0  0  0  0  0  0  0  0
    2.6889   -1.8157   -2.0059 H   0  0  0  0  0  0  0  0  0  0  0  0
    3.0161   -1.8083   -0.2567 H   0  0  0  0  0  0  0  0  0  0  0  0
  5  6  2  0  0  0  0
  5  7  1  0  0  0  0
  2  3  1  0  0  0  0
  2  4  1  0  0  0  0
  2  5  1  0  0  0  0
  1  2  1  0  0  0  0
 25 26  2  0  0  0  0
 25 27  1  0  0  0  0
 23 24  1  0  0  0  0
 21 22  1  0  0  0  0
 21 23  2  0  0  0  0
 19 20  1  0  0  0  0
 19 21  1  0  0  0  0
 17 18  1  0  0  0  0
 17 19  2  0  0  0  0
 15 16  1  0  0  0  0
 15 17  1  0  0  0  0
 14 15  2  0  0  0  0
 14 23  1  0  0  0  0
 11 12  1  0  0  0  0
 11 13  1  0  0  0  0
 11 14  1  0  0  0  0
  9 10  1  0  0  0  0
  9 11  1  0  0  0  0
  9 25  1  0  0  0  0
  7  8  1  0  0  0  0
  7  9  1  0  0  0  0
 29 30  1  0  0  0  0
 29 31  1  0  0  0  0
 29 32  1  0  0  0  0
 27 28  1  0  0  0  0
 27 29  1  0  0  0  0
M  END
$$$$
default_name
  -OEChem-01062215323D

 32 32  0     1  0  0  0  0  0999 V2000
   -3.8405   -3.7518    1.6252 H   0  0  0  0  0  0  0  0  0  0  0  0
   -3.7965   -2.8768    0.9782 C   0  0  0  0  0  0  0  0  0  0  0  0
   -4.5465   -2.1527    1.2902 H   0  0  0  0  0  0  0  0  0  0  0  0
   -3.9745   -3.1748   -0.0538 H   0  0  0  0  0  0  0  0  0  0  0  0
   -2.4245   -2.2537    1.0882 C   0  0  0  0  0  0  0  0  0  0  0  0
   -1.5805   -2.7478    1.8242 O   0  0  0  0  0  0  0  0  0  0  0  0
   -2.2045   -1.1637    0.3562 N   0  0  0  0  0  0  0  0  0  0  0  0
   -2.9595   -0.7907   -0.2008 H   0  0  0  0  0  0  0  0  0  0  0  0
   -0.9485   -0.4087    0.3482 C   0  0  1  0  0  0  0  0  0  0  0  0
   -0.9334    0.2328   -0.5344 H   0  0  0  0  0  0  0  0  0  0  0  0
   -0.8853    0.4859    1.5980 C   0  0  0  0  0  0  0  0  0  0  0  0
   -1.0440   -0.1302    2.4842 H   0  0  0  0  0  0  0  0  0  0  0  0
    0.1138    0.9176    1.6738 H   0  0  0  0  0  0  0  0  0  0  0  0
   -1.9144    1.6002    1.6098 C   0  0  0  0  0  0  0  0  0  0  0  0
   -1.6872    2.7886    0.8901 C   0  0  0  0  0  0  0  0  0  0  0  0
   -0.7654    2.9234    0.3420 H   0  0  0  0  0  0  0  0  0  0  0  0
   -2.6645    3.8008    0.8723 C   0  0  0  0  0  0  0  0  0  0  0  0
   -2.4869    4.7136    0.3211 H   0  0  0  0  0  0  0  0  0  0  0  0
   -3.8706    3.6260    1.5718 C   0  0  0  0  0  0  0  0  0  0  0  0
   -4.6204    4.4046    1.5599 H   0  0  0  0  0  0  0  0  0  0  0  0
   -4.1002    2.4403    2.2931 C   0  0  0  0  0  0  0  0  0  0  0  0
   -5.0250    2.3080    2.8353 H   0  0  0  0  0  0  0  0  0  0  0  0
   -3.1220    1.4303    2.3135 C   0  0  0  0  0  0  0  0  0  0  0  0
   -3.2985    0.5200    2.8716 H   0  0  0  0  0  0  0  0  0  0  0  0
    0.2614   -1.3562    0.2590 C   0  0  0  0  0  0  0  0  0  0  0  0
    0.3126   -2.3636    0.9660 O   0  0  0  0  0  0  0  0  0  0  0  0
    1.2351   -1.0339   -0.6019 N   0  0  0  0  0  0  0  0  0  0  0  0
    1.1466   -0.1640   -1.1047 H   0  0  0  0  0  0  0  0  0  0  0  0
    2.4509   -1.8194   -0.7997 C   0  0  0  0  0  0  0  0  0  0  0  0
    2.1898   -2.8607   -0.9997 H   0  0  0  0  0  0  0  0  0  0  0  0
    3.0223   -1.4244   -1.6401 H   0  0  0  0  0  0  0  0  0  0  0  0
    3.0638   -1.7811    0.1029 H   0  0  0  0  0  0  0  0  0  0  0  0
  5  6  2  0  0  0  0
  5  7  1  0  0  0  0
  2  3  1  0  0  0  0
  2  4  1  0  0  0  0
  2  5  1  0  0  0  0
  1  2  1  0  0  0  0
 25 26  2  0  0  0  0
 25 27  1  0  0  0  0
 23 24  1  0  0  0  0
 21 22  1  0  0  0  0
 21 23  2  0  0  0  0
 19 20  1  0  0  0  0
 19 21  1  0  0  0  0
 17 18  1  0  0  0  0
 17 19  2  0  0  0  0
 15 16  1  0  0  0  0
 15 17  1  0  0  0  0
 14 15  2  0  0  0  0
 14 23  1  0  0  0  0
 11 12  1  0  0  0  0
 11 13  1  0  0  0  0
 11 14  1  0  0  0  0
  9 10  1  0  0  0  0
  9 11  1  0  0  0  0
  9 25  1  0  0  0  0
  7  8  1  0  0  0  0
  7  9  1  0  0  0  0
 29 30  1  0  0  0  0
 29 31  1  0  0  0  0
 29 32  1  0  0  0  0
 27 28  1  0  0  0  0
 27 29  1  0  0  0  0
M  END
$$$$
default_name
  -OEChem-01062215323D

 32 32  0     1  0  0  0  0  0999 V2000
   -3.8405   -3.7518    1.6252 H   0  0  0  0  0  0  0  0  0  0  0  0
   -3.7965   -2.8768    0.9782 C   0  0  0  0  0  0  0  0  0  0  0  0
   -4.5465   -2.1527    1.2902 H   0  0  0  0  0  0  0  0  0  0  0  0
   -3.9745   -3.1748   -0.0538 H   0  0  0  0  0  0  0  0  0  0  0  0
   -2.4245   -2.2537    1.0882 C   0  0  0  0  0  0  0  0  0  0  0  0
   -1.5805   -2.7478    1.8242 O   0  0  0  0  0  0  0  0  0  0  0  0
   -2.2045   -1.1637    0.3562 N   0  0  0  0  0  0  0  0  0  0  0  0
   -2.9595   -0.7907   -0.2008 H   0  0  0  0  0  0  0  0  0  0  0  0
   -0.9485   -0.4087    0.3482 C   0  0  1  0  0  0  0  0  0  0  0  0
   -0.9334    0.2328   -0.5344 H   0  0  0  0  0  0  0  0  0  0  0  0
   -0.8853    0.4859    1.5980 C   0  0  0  0  0  0  0  0  0  0  0  0
   -1.0440   -0.1302    2.4842 H   0  0  0  0  0  0  0  0  0  0  0  0
    0.1138    0.9176    1.6738 H   0  0  0  0  0  0  0  0  0  0  0  0
   -1.9144    1.6002    1.6098 C   0  0  0  0  0  0  0  0  0  0  0  0
   -1.6872    2.7886    0.8901 C   0  0  0  0  0  0  0  0  0  0  0  0
   -0.7654    2.9234    0.3420 H   0  0  0  0  0  0  0  0  0  0  0  0
   -2.6645    3.8008    0.8723 C   0  0  0  0  0  0  0  0  0  0  0  0
   -2.4869    4.7136    0.3211 H   0  0  0  0  0  0  0  0  0  0  0  0
   -3.8706    3.6260    1.5718 C   0  0  0  0  0  0  0  0  0  0  0  0
   -4.6204    4.4046    1.5599 H   0  0  0  0  0  0  0  0  0  0  0  0
   -4.1002    2.4403    2.2931 C   0  0  0  0  0  0  0  0  0  0  0  0
   -5.0250    2.3080    2.8353 H   0  0  0  0  0  0  0  0  0  0  0  0
   -3.1220    1.4303    2.3135 C   0  0  0  0  0  0  0  0  0  0  0  0
   -3.2985    0.5200    2.8716 H   0  0  0  0  0  0  0  0  0  0  0  0
    0.2614   -1.3562    0.2590 C   0  0  0  0  0  0  0  0  0  0  0  0
    0.1997   -2.4869    0.7439 O   0  0  0  0  0  0  0  0  0  0  0  0
    1.3604   -0.8973   -0.3531 N   0  0  0  0  0  0  0  0  0  0  0  0
    1.3527    0.0586   -0.6747 H   0  0  0  0  0  0  0  0  0  0  0  0
    2.5934   -1.6644   -0.5132 C   0  0  0  0  0  0  0  0  0  0  0  0
    2.3694   -2.6350   -0.9607 H   0  0  0  0  0  0  0  0  0  0  0  0
    3.2919   -1.1258   -1.1540 H   0  0  0  0  0  0  0  0  0  0  0  0
    3.0531   -1.8287    0.4633 H   0  0  0  0  0  0  0  0  0  0  0  0
  5  6  2  0  0  0  0
  5  7  1  0  0  0  0
  2  3  1  0  0  0  0
  2  4  1  0  0  0  0
  2  5  1  0  0  0  0
  1  2  1  0  0  0  0
 25 26  2  0  0  0  0
 25 27  1  0  0  0  0
 23 24  1  0  0  0  0
 21 22  1  0  0  0  0
 21 23  2  0  0  0  0
 19 20  1  0  0  0  0
 19 21  1  0  0  0  0
 17 18  1  0  0  0  0
 17 19  2  0  0  0  0
 15 16  1  0  0  0  0
 15 17  1  0  0  0  0
 14 15  2  0  0  0  0
 14 23  1  0  0  0  0
 11 12  1  0  0  0  0
 11 13  1  0  0  0  0
 11 14  1  0  0  0  0
  9 10  1  0  0  0  0
  9 11  1  0  0  0  0
  9 25  1  0  0  0  0
  7  8  1  0  0  0  0
  7  9  1  0  0  0  0
 29 30  1  0  0  0  0
 29 31  1  0  0  0  0
 29 32  1  0  0  0  0
 27 28  1  0  0  0  0
 27 29  1  0  0  0  0
M  END
$$$$
default_name
  -OEChem-01062215323D

 32 32  0     1  0  0  0  0  0999 V2000
   -3.8405   -3.7518    1.6252 H   0  0  0  0  0  0  0  0  0  0  0  0
   -3.7965   -2.8768    0.9782 C   0  0  0  0  0  0  0  0  0  0  0  0
   -4.5465   -2.1527    1.2902 H   0  0  0  0  0  0  0  0  0  0  0  0
   -3.9745   -3.1748   -0.0538 H   0  0  0  0  0  0  0  0  0  0  0  0
   -2.4245   -2.2537    1.0882 C   0  0  0  0  0  0  0  0  0  0  0  0
   -1.5805   -2.7478    1.8242 O   0  0  0  0  0  0  0  0  0  0  0  0
   -2.2045   -1.1637    0.3562 N   0  0  0  0  0  0  0  0  0  0  0  0
   -2.9595   -0.7907   -0.2008 H   0  0  0  0  0  0  0  0  0  0  0  0
   -0.9485   -0.4087    0.3482 C   0  0  1  0  0  0  0  0  0  0  0  0
   -0.9334    0.2328   -0.5344 H   0  0  0  0  0  0  0  0  0  0  0  0
   -0.8853    0.4859    1.5980 C   0  0  0  0  0  0  0  0  0  0  0  0
   -1.0440   -0.1302    2.4842 H   0  0  0  0  0  0  0  0  0  0  0  0
    0.1138    0.9176    1.6738 H   0  0  0  0  0  0  0  0  0  0  0  0
   -1.9144    1.6002    1.6098 C   0  0  0  0  0  0  0  0  0  0  0  0
   -1.6872    2.7886    0.8901 C   0  0  0  0  0  0  0  0  0  0  0  0
   -0.7654    2.9234    0.3420 H   0  0  0  0  0  0  0  0  0  0  0  0
   -2.6645    3.8008    0.8723 C   0  0  0  0  0  0  0  0  0  0  0  0
   -2.4869    4.7136    0.3211 H   0  0  0  0  0  0  0  0  0  0  0  0
   -3.8706    3.6260    1.5718 C   0  0  0  0  0  0  0  0  0  0  0  0
   -4.6204    4.4046    1.5599 H   0  0  0  0  0  0  0  0  0  0  0  0
   -4.1002    2.4403    2.2931 C   0  0  0  0  0  0  0  0  0  0  0  0
   -5.0250    2.3080    2.8353 H   0  0  0  0  0  0  0  0  0  0  0  0
   -3.1220    1.4303    2.3135 C   0  0  0  0  0  0  0  0  0  0  0  0
   -3.2985    0.5200    2.8716 H   0  0  0  0  0  0  0  0  0  0  0  0
    0.2614   -1.3562    0.2590 C   0  0  0  0  0  0  0  0  0  0  0  0
    0.1242   -2.5591    0.4863 O   0  0  0  0  0  0  0  0  0  0  0  0
    1.4439   -0.8178   -0.0651 N   0  0  0  0  0  0  0  0  0  0  0  0
    1.4865    0.1832   -0.1813 H   0  0  0  0  0  0  0  0  0  0  0  0
    2.6877   -1.5751   -0.1822 C   0  0  0  0  0  0  0  0  0  0  0  0
    2.5400   -2.4277   -0.8485 H   0  0  0  0  0  0  0  0  0  0  0  0
    3.4794   -0.9403   -0.5808 H   0  0  0  0  0  0  0  0  0  0  0  0
    2.9846   -1.9479    0.8000 H   0  0  0  0  0  0  0  0  0  0  0  0
  5  6  2  0  0  0  0
  5  7  1  0  0  0  0
  2  3  1  0  0  0  0
  2  4  1  0  0  0  0
  2  5  1  0  0  0  0
  1  2  1  0  0  0  0
 25 26  2  0  0  0  0
 25 27  1  0  0  0  0
 23 24  1  0  0  0  0
 21 22  1  0  0  0  0
 21 23  2  0  0  0  0
 19 20  1  0  0  0  0
 19 21  1  0  0  0  0
 17 18  1  0  0  0  0
 17 19  2  0  0  0  0
 15 16  1  0  0  0  0
 15 17  1  0  0  0  0
 14 15  2  0  0  0  0
 14 23  1  0  0  0  0
 11 12  1  0  0  0  0
 11 13  1  0  0  0  0
 11 14  1  0  0  0  0
  9 10  1  0  0  0  0
  9 11  1  0  0  0  0
  9 25  1  0  0  0  0
  7  8  1  0  0  0  0
  7  9  1  0  0  0  0
 29 30  1  0  0  0  0
 29 31  1  0  0  0  0
 29 32  1  0  0  0  0
 27 28  1  0  0  0  0
 27 29  1  0  0  0  0
M  END
$$$$
default_name
  -OEChem-01062215323D

 32 32  0     1  0  0  0  0  0999 V2000
   -3.8405   -3.7518    1.6252 H   0  0  0  0  0  0  0  0  0  0  0  0
   -3.7965   -2.8768    0.9782 C   0  0  0  0  0  0  0  0  0  0  0  0
   -4.5465   -2.1527    1.2902 H   0  0  0  0  0  0  0  0  0  0  0  0
   -3.9745   -3.1748   -0.0538 H   0  0  0  0  0  0  0  0  0  0  0  0
   -2.4245   -2.2537    1.0882 C   0  0  0  0  0  0  0  0  0  0  0  0
   -1.5805   -2.7478    1.8242 O   0  0  0  0  0  0  0  0  0  0  0  0
   -2.2045   -1.1637    0.3562 N   0  0  0  0  0  0  0  0  0  0  0  0
   -2.9595   -0.7907   -0.2008 H   0  0  0  0  0  0  0  0  0  0  0  0
   -0.9485   -0.4087    0.3482 C   0  0  1  0  0  0  0  0  0  0  0  0
   -1.0405    0.4128   -0.3641 H   0  0  0  0  0  0  0  0  0  0  0  0
   -0.7047    0.1870    1.7453 C   0  0  0  0  0  0  0  0  0  0  0  0
   -0.7540   -0.6125    2.4859 H   0  0  0  0  0  0  0  0  0  0  0  0
    0.3026    0.6047    1.7809 H   0  0  0  0  0  0  0  0  0  0  0  0
   -1.7046    1.2567    2.1412 C   0  0  0  0  0  0  0  0  0  0  0  0
   -1.5557    2.5782    1.6792 C   0  0  0  0  0  0  0  0  0  0  0  0
   -0.7130    2.8438    1.0566 H   0  0  0  0  0  0  0  0  0  0  0  0
   -2.5099    3.5557    2.0168 C   0  0  0  0  0  0  0  0  0  0  0  0
   -2.3922    4.5704    1.6632 H   0  0  0  0  0  0  0  0  0  0  0  0
   -3.6148    3.2136    2.8148 C   0  0  0  0  0  0  0  0  0  0  0  0
   -4.3466    3.9652    3.0761 H   0  0  0  0  0  0  0  0  0  0  0  0
   -3.7658    1.8944    3.2793 C   0  0  0  0  0  0  0  0  0  0  0  0
   -4.6122    1.6325    3.8972 H   0  0  0  0  0  0  0  0  0  0  0  0
   -2.8103    0.9185    2.9445 C   0  0  0  0  0  0  0  0  0  0  0  0
   -2.9259   -0.0953    3.3052 H   0  0  0  0  0  0  0  0  0  0  0  0
    0.2230   -1.2962   -0.1095 C   0  0  0  0  0  0  0  0  0  0  0  0
    0.0279   -2.4764   -0.4037 O   0  0  0  0  0  0  0  0  0  0  0  0
    1.4373   -0.7346   -0.1649 N   0  0  0  0  0  0  0  0  0  0  0  0
    1.5258    0.2211    0.1452 H   0  0  0  0  0  0  0  0  0  0  0  0
    2.6516   -1.4394   -0.5687 C   0  0  0  0  0  0  0  0  0  0  0  0
    2.4911   -1.9309   -1.5306 H   0  0  0  0  0  0  0  0  0  0  0  0
    3.4824   -0.7388   -0.6572 H   0  0  0  0  0  0  0  0  0  0  0  0
    2.8990   -2.2001    0.1743 H   0  0  0  0  0  0  0  0  0  0  0  0
  5  6  2  0  0  0  0
  5  7  1  0  0  0  0
  2  3  1  0  0  0  0
  2  4  1  0  0  0  0
  2  5  1  0  0  0  0
  1  2  1  0  0  0  0
 25 26  2  0  0  0  0
 25 27  1  0  0  0  0
 23 24  1  0  0  0  0
 21 22  1  0  0  0  0
 21 23  2  0  0  0  0
 19 20  1  0  0  0  0
 19 21  1  0  0  0  0
 17 18  1  0  0  0  0
 17 19  2  0  0  0  0
 15 16  1  0  0  0  0
 15 17  1  0  0  0  0
 14 15  2  0  0  0  0
 14 23  1  0  0  0  0
 11 12  1  0  0  0  0
 11 13  1  0  0  0  0
 11 14  1  0  0  0  0
  9 10  1  0  0  0  0
  9 11  1  0  0  0  0
  9 25  1  0  0  0  0
  7  8  1  0  0  0  0
  7  9  1  0  0  0  0
 29 30  1  0  0  0  0
 29 31  1  0  0  0  0
 29 32  1  0  0  0  0
 27 28  1  0  0  0  0
 27 29  1  0  0  0  0
M  END
$$$$
default_name
  -OEChem-01062215323D

 32 32  0     1  0  0  0  0  0999 V2000
   -3.8405   -3.7518    1.6252 H   0  0  0  0  0  0  0  0  0  0  0  0
   -3.7965   -2.8768    0.9782 C   0  0  0  0  0  0  0  0  0  0  0  0
   -4.5465   -2.1527    1.2902 H   0  0  0  0  0  0  0  0  0  0  0  0
   -3.9745   -3.1748   -0.0538 H   0  0  0  0  0  0  0  0  0  0  0  0
   -2.4245   -2.2537    1.0882 C   0  0  0  0  0  0  0  0  0  0  0  0
   -1.5805   -2.7478    1.8242 O   0  0  0  0  0  0  0  0  0  0  0  0
   -2.2045   -1.1637    0.3562 N   0  0  0  0  0  0  0  0  0  0  0  0
   -2.9595   -0.7907   -0.2008 H   0  0  0  0  0  0  0  0  0  0  0  0
   -0.9485   -0.4087    0.3482 C   0  0  1  0  0  0  0  0  0  0  0  0
   -1.0405    0.4128   -0.3641 H   0  0  0  0  0  0  0  0  0  0  0  0
   -0.7047    0.1870    1.7453 C   0  0  0  0  0  0  0  0  0  0  0  0
   -0.7540   -0.6125    2.4859 H   0  0  0  0  0  0  0  0  0  0  0  0
    0.3026    0.6047    1.7809 H   0  0  0  0  0  0  0  0  0  0  0  0
   -1.7046    1.2567    2.1412 C   0  0  0  0  0  0  0  0  0  0  0  0
   -1.5557    2.5782    1.6792 C   0  0  0  0  0  0  0  0  0  0  0  0
   -0.7130    2.8438    1.0566 H   0  0  0  0  0  0  0  0  0  0  0  0
   -2.5099    3.5557    2.0168 C   0  0  0  0  0  0  0  0  0  0  0  0
   -2.3922    4.5704    1.6632 H   0  0  0  0  0  0  0  0  0  0  0  0
   -3.6148    3.2136    2.8148 C   0  0  0  0  0  0  0  0  0  0  0  0
   -4.3466    3.9652    3.0761 H   0  0  0  0  0  0  0  0  0  0  0  0
   -3.7658    1.8944    3.2793 C   0  0  0  0  0  0  0  0  0  0  0  0
   -4.6122    1.6325    3.8972 H   0  0  0  0  0  0  0  0  0  0  0  0
   -2.8103    0.9185    2.9445 C   0  0  0  0  0  0  0  0  0  0  0  0
   -2.9259   -0.0953    3.3052 H   0  0  0  0  0  0  0  0  0  0  0  0
    0.2230   -1.2962   -0.1095 C   0  0  0  0  0  0  0  0  0  0  0  0
    0.0037   -2.3753   -0.6615 O   0  0  0  0  0  0  0  0  0  0  0  0
    1.4634   -0.8484    0.1226 N   0  0  0  0  0  0  0  0  0  0  0  0
    1.5612    0.0182    0.6294 H   0  0  0  0  0  0  0  0  0  0  0  0
    2.6799   -1.5716   -0.2398 C   0  0  0  0  0  0  0  0  0  0  0  0
    2.6423   -1.8533   -1.2942 H   0  0  0  0  0  0  0  0  0  0  0  0
    3.5561   -0.9464   -0.0659 H   0  0  0  0  0  0  0  0  0  0  0  0
    2.7600   -2.4797    0.3608 H   0  0  0  0  0  0  0  0  0  0  0  0
  5  6  2  0  0  0  0
  5  7  1  0  0  0  0
  2  3  1  0  0  0  0
  2  4  1  0  0  0  0
  2  5  1  0  0  0  0
  1  2  1  0  0  0  0
 25 26  2  0  0  0  0
 25 27  1  0  0  0  0
 23 24  1  0  0  0  0
 21 22  1  0  0  0  0
 21 23  2  0  0  0  0
 19 20  1  0  0  0  0
 19 21  1  0  0  0  0
 17 18  1  0  0  0  0
 17 19  2  0  0  0  0
 15 16  1  0  0  0  0
 15 17  1  0  0  0  0
 14 15  2  0  0  0  0
 14 23  1  0  0  0  0
 11 12  1  0  0  0  0
 11 13  1  0  0  0  0
 11 14  1  0  0  0  0
  9 10  1  0  0  0  0
  9 11  1  0  0  0  0
  9 25  1  0  0  0  0
  7  8  1  0  0  0  0
  7  9  1  0  0  0  0
 29 30  1  0  0  0  0
 29 31  1  0  0  0  0
 29 32  1  0  0  0  0
 27 28  1  0  0  0  0
 27 29  1  0  0  0  0
M  END
$$$$
default_name
  -OEChem-01062215323D

 32 32  0     1  0  0  0  0  0999 V2000
   -3.8405   -3.7518    1.6252 H   0  0  0  0  0  0  0  0  0  0  0  0
   -3.7965   -2.8768    0.9782 C   0  0  0  0  0  0  0  0  0  0  0  0
   -4.5465   -2.1527    1.2902 H   0  0  0  0  0  0  0  0  0  0  0  0
   -3.9745   -3.1748   -0.0538 H   0  0  0  0  0  0  0  0  0  0  0  0
   -2.4245   -2.2537    1.0882 C   0  0  0  0  0  0  0  0  0  0  0  0
   -1.5805   -2.7478    1.8242 O   0  0  0  0  0  0  0  0  0  0  0  0
   -2.2045   -1.1637    0.3562 N   0  0  0  0  0  0  0  0  0  0  0  0
   -2.9595   -0.7907   -0.2008 H   0  0  0  0  0  0  0  0  0  0  0  0
   -0.9485   -0.4087    0.3482 C   0  0  1  0  0  0  0  0  0  0  0  0
   -1.0405    0.4128   -0.3641 H   0  0  0  0  0  0  0  0  0  0  0  0
   -0.7047    0.1870    1.7453 C   0  0  0  0  0  0  0  0  0  0  0  0
   -0.7540   -0.6125    2.4859 H   0  0  0  0  0  0  0  0  0  0  0  0
    0.3026    0.6047    1.7809 H   0  0  0  0  0  0  0  0  0  0  0  0
   -1.7046    1.2567    2.1412 C   0  0  0  0  0  0  0  0  0  0  0  0
   -1.5557    2.5782    1.6792 C   0  0  0  0  0  0  0  0  0  0  0  0
   -0.7130    2.8438    1.0566 H   0  0  0  0  0  0  0  0  0  0  0  0
   -2.5099    3.5557    2.0168 C   0  0  0  0  0  0  0  0  0  0  0  0
   -2.3922    4.5704    1.6632 H   0  0  0  0  0  0  0  0  0  0  0  0
   -3.6148    3.2136    2.8148 C   0  0  0  0  0  0  0  0  0  0  0  0
   -4.3466    3.9652    3.0761 H   0  0  0  0  0  0  0  0  0  0  0  0
   -3.7658    1.8944    3.2793 C   0  0  0  0  0  0  0  0  0  0  0  0
   -4.6122    1.6325    3.8972 H   0  0  0  0  0  0  0  0  0  0  0  0
   -2.8103    0.9185    2.9445 C   0  0  0  0  0  0  0  0  0  0  0  0
   -2.9259   -0.0953    3.3052 H   0  0  0  0  0  0  0  0  0  0  0  0
    0.2230   -1.2962   -0.1095 C   0  0  0  0  0  0  0  0  0  0  0  0
    0.0265   -2.2251   -0.8943 O   0  0  0  0  0  0  0  0  0  0  0  0
    1.4370   -1.0169    0.3817 N   0  0  0  0  0  0  0  0  0  0  0  0
    1.5076   -0.2760    1.0624 H   0  0  0  0  0  0  0  0  0  0  0  0
    2.6481   -1.7662    0.0560 C   0  0  0  0  0  0  0  0  0  0  0  0
    2.7589   -1.8365   -1.0281 H   0  0  0  0  0  0  0  0  0  0  0  0
    3.5232   -1.2690    0.4753 H   0  0  0  0  0  0  0  0  0  0  0  0
    2.5764   -2.7759    0.4651 H   0  0  0  0  0  0  0  0  0  0  0  0
  5  6  2  0  0  0  0
  5  7  1  0  0  0  0
  2  3  1  0  0  0  0
  2  4  1  0  0  0  0
  2  5  1  0  0  0  0
  1  2  1  0  0  0  0
 25 26  2  0  0  0  0
 25 27  1  0  0  0  0
 23 24  1  0  0  0  0
 21 22  1  0  0  0  0
 21 23  2  0  0  0  0
 19 20  1  0  0  0  0
 19 21  1  0  0  0  0
 17 18  1  0  0  0  0
 17 19  2  0  0  0  0
 15 16  1  0  0  0  0
 15 17  1  0  0  0  0
 14 15  2  0  0  0  0
 14 23  1  0  0  0  0
 11 12  1  0  0  0  0
 11 13  1  0  0  0  0
 11 14  1  0  0  0  0
  9 10  1  0  0  0  0
  9 11  1  0  0  0  0
  9 25  1  0  0  0  0
  7  8  1  0  0  0  0
  7  9  1  0  0  0  0
 29 30  1  0  0  0  0
 29 31  1  0  0  0  0
 29 32  1  0  0  0  0
 27 28  1  0  0  0  0
 27 29  1  0  0  0  0
M  END
$$$$
default_name
  -OEChem-01062215323D

 32 32  0     1  0  0  0  0  0999 V2000
   -3.8405   -3.7518    1.6252 H   0  0  0  0  0  0  0  0  0  0  0  0
   -3.7965   -2.8768    0.9782 C   0  0  0  0  0  0  0  0  0  0  0  0
   -4.5465   -2.1527    1.2902 H   0  0  0  0  0  0  0  0  0  0  0  0
   -3.9745   -3.1748   -0.0538 H   0  0  0  0  0  0  0  0  0  0  0  0
   -2.4245   -2.2537    1.0882 C   0  0  0  0  0  0  0  0  0  0  0  0
   -1.5805   -2.7478    1.8242 O   0  0  0  0  0  0  0  0  0  0  0  0
   -2.2045   -1.1637    0.3562 N   0  0  0  0  0  0  0  0  0  0  0  0
   -2.9595   -0.7907   -0.2008 H   0  0  0  0  0  0  0  0  0  0  0  0
   -0.9485   -0.4087    0.3482 C   0  0  1  0  0  0  0  0  0  0  0  0
   -1.0405    0.4128   -0.3641 H   0  0  0  0  0  0  0  0  0  0  0  0
   -0.7047    0.1870    1.7453 C   0  0  0  0  0  0  0  0  0  0  0  0
   -0.7540   -0.6125    2.4859 H   0  0  0  0  0  0  0  0  0  0  0  0
    0.3026    0.6047    1.7809 H   0  0  0  0  0  0  0  0  0  0  0  0
   -1.7046    1.2567    2.1412 C   0  0  0  0  0  0  0  0  0  0  0  0
   -1.5557    2.5782    1.6792 C   0  0  0  0  0  0  0  0  0  0  0  0
   -0.7130    2.8438    1.0566 H   0  0  0  0  0  0  0  0  0  0  0  0
   -2.5099    3.5557    2.0168 C   0  0  0  0  0  0  0  0  0  0  0  0
   -2.3922    4.5704    1.6632 H   0  0  0  0  0  0  0  0  0  0  0  0
   -3.6148    3.2136    2.8148 C   0  0  0  0  0  0  0  0  0  0  0  0
   -4.3466    3.9652    3.0761 H   0  0  0  0  0  0  0  0  0  0  0  0
   -3.7658    1.8944    3.2793 C   0  0  0  0  0  0  0  0  0  0  0  0
   -4.6122    1.6325    3.8972 H   0  0  0  0  0  0  0  0  0  0  0  0
   -2.8103    0.9185    2.9445 C   0  0  0  0  0  0  0  0  0  0  0  0
   -2.9259   -0.0953    3.3052 H   0  0  0  0  0  0  0  0  0  0  0  0
    0.2230   -1.2962   -0.1095 C   0  0  0  0  0  0  0  0  0  0  0  0
    0.0949   -2.0359   -1.0861 O   0  0  0  0  0  0  0  0  0  0  0  0
    1.3598   -1.2287    0.5949 N   0  0  0  0  0  0  0  0  0  0  0  0
    1.3685   -0.6412    1.4147 H   0  0  0  0  0  0  0  0  0  0  0  0
    2.5582   -2.0101    0.2987 C   0  0  0  0  0  0  0  0  0  0  0  0
    2.8332   -1.8817   -0.7503 H   0  0  0  0  0  0  0  0  0  0  0  0
    3.3858   -1.6848    0.9296 H   0  0  0  0  0  0  0  0  0  0  0  0
    2.3608   -3.0683    0.4802 H   0  0  0  0  0  0  0  0  0  0  0  0
  5  6  2  0  0  0  0
  5  7  1  0  0  0  0
  2  3  1  0  0  0  0
  2  4  1  0  0  0  0
  2  5  1  0  0  0  0
  1  2  1  0  0  0  0
 25 26  2  0  0  0  0
 25 27  1  0  0  0  0
 23 24  1  0  0  0  0
 21 22  1  0  0  0  0
 21 23  2  0  0  0  0
 19 20  1  0  0  0  0
 19 21  1  0  0  0  0
 17 18  1  0  0  0  0
 17 19  2  0  0  0  0
 15 16  1  0  0  0  0
 15 17  1  0  0  0  0
 14 15  2  0  0  0  0
 14 23  1  0  0  0  0
 11 12  1  0  0  0  0
 11 13  1  0  0  0  0
 11 14  1  0  0  0  0
  9 10  1  0  0  0  0
  9 11  1  0  0  0  0
  9 25  1  0  0  0  0
  7  8  1  0  0  0  0
  7  9  1  0  0  0  0
 29 30  1  0  0  0  0
 29 31  1  0  0  0  0
 29 32  1  0  0  0  0
 27 28  1  0  0  0  0
 27 29  1  0  0  0  0
M  END
$$$$
default_name
  -OEChem-01062215323D

 32 32  0     1  0  0  0  0  0999 V2000
   -3.8405   -3.7518    1.6252 H   0  0  0  0  0  0  0  0  0  0  0  0
   -3.7965   -2.8768    0.9782 C   0  0  0  0  0  0  0  0  0  0  0  0
   -4.5465   -2.1527    1.2902 H   0  0  0  0  0  0  0  0  0  0  0  0
   -3.9745   -3.1748   -0.0538 H   0  0  0  0  0  0  0  0  0  0  0  0
   -2.4245   -2.2537    1.0882 C   0  0  0  0  0  0  0  0  0  0  0  0
   -1.5805   -2.7478    1.8242 O   0  0  0  0  0  0  0  0  0  0  0  0
   -2.2045   -1.1637    0.3562 N   0  0  0  0  0  0  0  0  0  0  0  0
   -2.9595   -0.7907   -0.2008 H   0  0  0  0  0  0  0  0  0  0  0  0
   -0.9485   -0.4087    0.3482 C   0  0  1  0  0  0  0  0  0  0  0  0
   -1.0405    0.4128   -0.3641 H   0  0  0  0  0  0  0  0  0  0  0  0
   -0.7047    0.1870    1.7453 C   0  0  0  0  0  0  0  0  0  0  0  0
   -0.7540   -0.6125    2.4859 H   0  0  0  0  0  0  0  0  0  0  0  0
    0.3026    0.6047    1.7809 H   0  0  0  0  0  0  0  0  0  0  0  0
   -1.7046    1.2567    2.1412 C   0  0  0  0  0  0  0  0  0  0  0  0
   -1.5557    2.5782    1.6792 C   0  0  0  0  0  0  0  0  0  0  0  0
   -0.7130    2.8438    1.0566 H   0  0  0  0  0  0  0  0  0  0  0  0
   -2.5099    3.5557    2.0168 C   0  0  0  0  0  0  0  0  0  0  0  0
   -2.3922    4.5704    1.6632 H   0  0  0  0  0  0  0  0  0  0  0  0
   -3.6148    3.2136    2.8148 C   0  0  0  0  0  0  0  0  0  0  0  0
   -4.3466    3.9652    3.0761 H   0  0  0  0  0  0  0  0  0  0  0  0
   -3.7658    1.8944    3.2793 C   0  0  0  0  0  0  0  0  0  0  0  0
   -4.6122    1.6325    3.8972 H   0  0  0  0  0  0  0  0  0  0  0  0
   -2.8103    0.9185    2.9445 C   0  0  0  0  0  0  0  0  0  0  0  0
   -2.9259   -0.0953    3.3052 H   0  0  0  0  0  0  0  0  0  0  0  0
    0.2230   -1.2962   -0.1095 C   0  0  0  0  0  0  0  0  0  0  0  0
    0.2041   -1.8207   -1.2240 O   0  0  0  0  0  0  0  0  0  0  0  0
    1.2372   -1.4694    0.7475 N   0  0  0  0  0  0  0  0  0  0  0  0
    1.1536   -1.0528    1.6623 H   0  0  0  0  0  0  0  0  0  0  0  0
    2.4164   -2.2865    0.4716 C   0  0  0  0  0  0  0  0  0  0  0  0
    2.8600   -1.9859   -0.4798 H   0  0  0  0  0  0  0  0  0  0  0  0
    3.1533   -2.1652    1.2661 H   0  0  0  0  0  0  0  0  0  0  0  0
    2.1277   -3.3372    0.4049 H   0  0  0  0  0  0  0  0  0  0  0  0
  5  6  2  0  0  0  0
  5  7  1  0  0  0  0
  2  3  1  0  0  0  0
  2  4  1  0  0  0  0
  2  5  1  0  0  0  0
  1  2  1  0  0  0  0
 25 26  2  0  0  0  0
 25 27  1  0  0  0  0
 23 24  1  0  0  0  0
 21 22  1  0  0  0  0
 21 23  2  0  0  0  0
 19 20  1  0  0  0  0
 19 21  1  0  0  0  0
 17 18  1  0  0  0  0
 17 19  2  0  0  0  0
 15 16  1  0  0  0  0
 15 17  1  0  0  0  0
 14 15  2  0  0  0  0
 14 23  1  0  0  0  0
 11 12  1  0  0  0  0
 11 13  1  0  0  0  0
 11 14  1  0  0  0  0
  9 10  1  0  0  0  0
  9 11  1  0  0  0  0
  9 25  1  0  0  0  0
  7  8  1  0  0  0  0
  7  9  1  0  0  0  0
 29 30  1  0  0  0  0
 29 31  1  0  0  0  0
 29 32  1  0  0  0  0
 27 28  1  0  0  0  0
 27 29  1  0  0  0  0
M  END
$$$$
default_name
  -OEChem-01062215323D

 32 32  0     1  0  0  0  0  0999 V2000
   -3.8405   -3.7518    1.6252 H   0  0  0  0  0  0  0  0  0  0  0  0
   -3.7965   -2.8768    0.9782 C   0  0  0  0  0  0  0  0  0  0  0  0
   -4.5465   -2.1527    1.2902 H   0  0  0  0  0  0  0  0  0  0  0  0
   -3.9745   -3.1748   -0.0538 H   0  0  0  0  0  0  0  0  0  0  0  0
   -2.4245   -2.2537    1.0882 C   0  0  0  0  0  0  0  0  0  0  0  0
   -1.5805   -2.7478    1.8242 O   0  0  0  0  0  0  0  0  0  0  0  0
   -2.2045   -1.1637    0.3562 N   0  0  0  0  0  0  0  0  0  0  0  0
   -2.9595   -0.7907   -0.2008 H   0  0  0  0  0  0  0  0  0  0  0  0
   -0.9485   -0.4087    0.3482 C   0  0  1  0  0  0  0  0  0  0  0  0
   -1.0405    0.4128   -0.3641 H   0  0  0  0  0  0  0  0  0  0  0  0
   -0.7047    0.1870    1.7453 C   0  0  0  0  0  0  0  0  0  0  0  0
   -0.7540   -0.6125    2.4859 H   0  0  0  0  0  0  0  0  0  0  0  0
    0.3026    0.6047    1.7809 H   0  0  0  0  0  0  0  0  0  0  0  0
   -1.7046    1.2567    2.1412 C   0  0  0  0  0  0  0  0  0  0  0  0
   -1.5557    2.5782    1.6792 C   0  0  0  0  0  0  0  0  0  0  0  0
   -0.7130    2.8438    1.0566 H   0  0  0  0  0  0  0  0  0  0  0  0
   -2.5099    3.5557    2.0168 C   0  0  0  0  0  0  0  0  0  0  0  0
   -2.3922    4.5704    1.6632 H   0  0  0  0  0  0  0  0  0  0  0  0
   -3.6148    3.2136    2.8148 C   0  0  0  0  0  0  0  0  0  0  0  0
   -4.3466    3.9652    3.0761 H   0  0  0  0  0  0  0  0  0  0  0  0
   -3.7658    1.8944    3.2793 C   0  0  0  0  0  0  0  0  0  0  0  0
   -4.6122    1.6325    3.8972 H   0  0  0  0  0  0  0  0  0  0  0  0
   -2.8103    0.9185    2.9445 C   0  0  0  0  0  0  0  0  0  0  0  0
   -2.9259   -0.0953    3.3052 H   0  0  0  0  0  0  0  0  0  0  0  0
    0.2230   -1.2962   -0.1095 C   0  0  0  0  0  0  0  0  0  0  0  0
    0.3467   -1.5940   -1.2984 O   0  0  0  0  0  0  0  0  0  0  0  0
    1.0774   -1.7225    0.8293 N   0  0  0  0  0  0  0  0  0  0  0  0
    0.8773   -1.4825    1.7883 H   0  0  0  0  0  0  0  0  0  0  0  0
    2.2323   -2.5766    0.5631 C   0  0  0  0  0  0  0  0  0  0  0  0
    2.8376   -2.1418   -0.2351 H   0  0  0  0  0  0  0  0  0  0  0  0
    2.8415   -2.6777    1.4617 H   0  0  0  0  0  0  0  0  0  0  0  0
    1.8931   -3.5642    0.2445 H   0  0  0  0  0  0  0  0  0  0  0  0
  5  6  2  0  0  0  0
  5  7  1  0  0  0  0
  2  3  1  0  0  0  0
  2  4  1  0  0  0  0
  2  5  1  0  0  0  0
  1  2  1  0  0  0  0
 25 26  2  0  0  0  0
 25 27  1  0  0  0  0
 23 24  1  0  0  0  0
 21 22  1  0  0  0  0
 21 23  2  0  0  0  0
 19 20  1  0  0  0  0
 19 21  1  0  0  0  0
 17 18  1  0  0  0  0
 17 19  2  0  0  0  0
 15 16  1  0  0  0  0
 15 17  1  0  0  0  0
 14 15  2  0  0  0  0
 14 23  1  0  0  0  0
 11 12  1  0  0  0  0
 11 13  1  0  0  0  0
 11 14  1  0  0  0  0
  9 10  1  0  0  0  0
  9 11  1  0  0  0  0
  9 25  1  0  0  0  0
  7  8  1  0  0  0  0
  7  9  1  0  0  0  0
 29 30  1  0  0  0  0
 29 31  1  0  0  0  0
 29 32  1  0  0  0  0
 27 28  1  0  0  0  0
 27 29  1  0  0  0  0
M  END
$$$$
default_name
  -OEChem-01062215323D

 32 32  0     1  0  0  0  0  0999 V2000
   -3.8405   -3.7518    1.6252 H   0  0  0  0  0  0  0  0  0  0  0  0
   -3.7965   -2.8768    0.9782 C   0  0  0  0  0  0  0  0  0  0  0  0
   -4.5465   -2.1527    1.2902 H   0  0  0  0  0  0  0  0  0  0  0  0
   -3.9745   -3.1748   -0.0538 H   0  0  0  0  0  0  0  0  0  0  0  0
   -2.4245   -2.2537    1.0882 C   0  0  0  0  0  0  0  0  0  0  0  0
   -1.5805   -2.7478    1.8242 O   0  0  0  0  0  0  0  0  0  0  0  0
   -2.2045   -1.1637    0.3562 N   0  0  0  0  0  0  0  0  0  0  0  0
   -2.9595   -0.7907   -0.2008 H   0  0  0  0  0  0  0  0  0  0  0  0
   -0.9485   -0.4087    0.3482 C   0  0  1  0  0  0  0  0  0  0  0  0
   -1.0405    0.4128   -0.3641 H   0  0  0  0  0  0  0  0  0  0  0  0
   -0.7047    0.1870    1.7453 C   0  0  0  0  0  0  0  0  0  0  0  0
   -0.7540   -0.6125    2.4859 H   0  0  0  0  0  0  0  0  0  0  0  0
    0.3026    0.6047    1.7809 H   0  0  0  0  0  0  0  0  0  0  0  0
   -1.7046    1.2567    2.1412 C   0  0  0  0  0  0  0  0  0  0  0  0
   -1.5557    2.5782    1.6792 C   0  0  0  0  0  0  0  0  0  0  0  0
   -0.7130    2.8438    1.0566 H   0  0  0  0  0  0  0  0  0  0  0  0
   -2.5099    3.5557    2.0168 C   0  0  0  0  0  0  0  0  0  0  0  0
   -2.3922    4.5704    1.6632 H   0  0  0  0  0  0  0  0  0  0  0  0
   -3.6148    3.2136    2.8148 C   0  0  0  0  0  0  0  0  0  0  0  0
   -4.3466    3.9652    3.0761 H   0  0  0  0  0  0  0  0  0  0  0  0
   -3.7658    1.8944    3.2793 C   0  0  0  0  0  0  0  0  0  0  0  0
   -4.6122    1.6325    3.8972 H   0  0  0  0  0  0  0  0  0  0  0  0
   -2.8103    0.9185    2.9445 C   0  0  0  0  0  0  0  0  0  0  0  0
   -2.9259   -0.0953    3.3052 H   0  0  0  0  0  0  0  0  0  0  0  0
    0.2230   -1.2962   -0.1095 C   0  0  0  0  0  0  0  0  0  0  0  0
    0.5131   -1.3714   -1.3044 O   0  0  0  0  0  0  0  0  0  0  0  0
    0.8914   -1.9708    0.8346 N   0  0  0  0  0  0  0  0  0  0  0  0
    0.5585   -1.9011    1.7841 H   0  0  0  0  0  0  0  0  0  0  0  0
    2.0186   -2.8607    0.5668 C   0  0  0  0  0  0  0  0  0  0  0  0
    2.7674   -2.3388   -0.0327 H   0  0  0  0  0  0  0  0  0  0  0  0
    2.4717   -3.1873    1.5032 H   0  0  0  0  0  0  0  0  0  0  0  0
    1.6730   -3.7338    0.0098 H   0  0  0  0  0  0  0  0  0  0  0  0
  5  6  2  0  0  0  0
  5  7  1  0  0  0  0
  2  3  1  0  0  0  0
  2  4  1  0  0  0  0
  2  5  1  0  0  0  0
  1  2  1  0  0  0  0
 25 26  2  0  0  0  0
 25 27  1  0  0  0  0
 23 24  1  0  0  0  0
 21 22  1  0  0  0  0
 21 23  2  0  0  0  0
 19 20  1  0  0  0  0
 19 21  1  0  0  0  0
 17 18  1  0  0  0  0
 17 19  2  0  0  0  0
 15 16  1  0  0  0  0
 15 17  1  0  0  0  0
 14 15  2  0  0  0  0
 14 23  1  0  0  0  0
 11 12  1  0  0  0  0
 11 13  1  0  0  0  0
 11 14  1  0  0  0  0
  9 10  1  0  0  0  0
  9 11  1  0  0  0  0
  9 25  1  0  0  0  0
  7  8  1  0  0  0  0
  7  9  1  0  0  0  0
 29 30  1  0  0  0  0
 29 31  1  0  0  0  0
 29 32  1  0  0  0  0
 27 28  1  0  0  0  0
 27 29  1  0  0  0  0
M  END
$$$$
default_name
  -OEChem-01062215323D

 32 32  0     1  0  0  0  0  0999 V2000
   -3.8405   -3.7518    1.6252 H   0  0  0  0  0  0  0  0  0  0  0  0
   -3.7965   -2.8768    0.9782 C   0  0  0  0  0  0  0  0  0  0  0  0
   -4.5465   -2.1527    1.2902 H   0  0  0  0  0  0  0  0  0  0  0  0
   -3.9745   -3.1748   -0.0538 H   0  0  0  0  0  0  0  0  0  0  0  0
   -2.4245   -2.2537    1.0882 C   0  0  0  0  0  0  0  0  0  0  0  0
   -1.5805   -2.7478    1.8242 O   0  0  0  0  0  0  0  0  0  0  0  0
   -2.2045   -1.1637    0.3562 N   0  0  0  0  0  0  0  0  0  0  0  0
   -2.9595   -0.7907   -0.2008 H   0  0  0  0  0  0  0  0  0  0  0  0
   -0.9485   -0.4087    0.3482 C   0  0  1  0  0  0  0  0  0  0  0  0
   -1.0405    0.4128   -0.3641 H   0  0  0  0  0  0  0  0  0  0  0  0
   -0.7047    0.1870    1.7453 C   0  0  0  0  0  0  0  0  0  0  0  0
   -0.7540   -0.6125    2.4859 H   0  0  0  0  0  0  0  0  0  0  0  0
    0.3026    0.6047    1.7809 H   0  0  0  0  0  0  0  0  0  0  0  0
   -1.7046    1.2567    2.1412 C   0  0  0  0  0  0  0  0  0  0  0  0
   -1.5557    2.5782    1.6792 C   0  0  0  0  0  0  0  0  0  0  0  0
   -0.7130    2.8438    1.0566 H   0  0  0  0  0  0  0  0  0  0  0  0
   -2.5099    3.5557    2.0168 C   0  0  0  0  0  0  0  0  0  0  0  0
   -2.3922    4.5704    1.6632 H   0  0  0  0  0  0  0  0  0  0  0  0
   -3.6148    3.2136    2.8148 C   0  0  0  0  0  0  0  0  0  0  0  0
   -4.3466    3.9652    3.0761 H   0  0  0  0  0  0  0  0  0  0  0  0
   -3.7658    1.8944    3.2793 C   0  0  0  0  0  0  0  0  0  0  0  0
   -4.6122    1.6325    3.8972 H   0  0  0  0  0  0  0  0  0  0  0  0
   -2.8103    0.9185    2.9445 C   0  0  0  0  0  0  0  0  0  0  0  0
   -2.9259   -0.0953    3.3052 H   0  0  0  0  0  0  0  0  0  0  0  0
    0.2230   -1.2962   -0.1095 C   0  0  0  0  0  0  0  0  0  0  0  0
    0.6917   -1.1679   -1.2415 O   0  0  0  0  0  0  0  0  0  0  0  0
    0.6918   -2.1973    0.7630 N   0  0  0  0  0  0  0  0  0  0  0  0
    0.2190   -2.2801    1.6501 H   0  0  0  0  0  0  0  0  0  0  0  0
    1.7897   -3.1195    0.4826 C   0  0  0  0  0  0  0  0  0  0  0  0
    2.6542   -2.5637    0.1135 H   0  0  0  0  0  0  0  0  0  0  0  0
    2.0691   -3.6592    1.3878 H   0  0  0  0  0  0  0  0  0  0  0  0
    1.4823   -3.8344   -0.2831 H   0  0  0  0  0  0  0  0  0  0  0  0
  5  6  2  0  0  0  0
  5  7  1  0  0  0  0
  2  3  1  0  0  0  0
  2  4  1  0  0  0  0
  2  5  1  0  0  0  0
  1  2  1  0  0  0  0
 25 26  2  0  0  0  0
 25 27  1  0  0  0  0
 23 24  1  0  0  0  0
 21 22  1  0  0  0  0
 21 23  2  0  0  0  0
 19 20  1  0  0  0  0
 19 21  1  0  0  0  0
 17 18  1  0  0  0  0
 17 19  2  0  0  0  0
 15 16  1  0  0  0  0
 15 17  1  0  0  0  0
 14 15  2  0  0  0  0
 14 23  1  0  0  0  0
 11 12  1  0  0  0  0
 11 13  1  0  0  0  0
 11 14  1  0  0  0  0
  9 10  1  0  0  0  0
  9 11  1  0  0  0  0
  9 25  1  0  0  0  0
  7  8  1  0  0  0  0
  7  9  1  0  0  0  0
 29 30  1  0  0  0  0
 29 31  1  0  0  0  0
 29 32  1  0  0  0  0
 27 28  1  0  0  0  0
 27 29  1  0  0  0  0
M  END
$$$$
default_name
  -OEChem-01062215323D

 32 32  0     1  0  0  0  0  0999 V2000
   -3.8405   -3.7518    1.6252 H   0  0  0  0  0  0  0  0  0  0  0  0
   -3.7965   -2.8768    0.9782 C   0  0  0  0  0  0  0  0  0  0  0  0
   -4.5465   -2.1527    1.2902 H   0  0  0  0  0  0  0  0  0  0  0  0
   -3.9745   -3.1748   -0.0538 H   0  0  0  0  0  0  0  0  0  0  0  0
   -2.4245   -2.2537    1.0882 C   0  0  0  0  0  0  0  0  0  0  0  0
   -1.5805   -2.7478    1.8242 O   0  0  0  0  0  0  0  0  0  0  0  0
   -2.2045   -1.1637    0.3562 N   0  0  0  0  0  0  0  0  0  0  0  0
   -2.9595   -0.7907   -0.2008 H   0  0  0  0  0  0  0  0  0  0  0  0
   -0.9485   -0.4087    0.3482 C   0  0  1  0  0  0  0  0  0  0  0  0
   -1.0405    0.4128   -0.3641 H   0  0  0  0  0  0  0  0  0  0  0  0
   -0.7047    0.1870    1.7453 C   0  0  0  0  0  0  0  0  0  0  0  0
   -0.7540   -0.6125    2.4859 H   0  0  0  0  0  0  0  0  0  0  0  0
    0.3026    0.6047    1.7809 H   0  0  0  0  0  0  0  0  0  0  0  0
   -1.7046    1.2567    2.1412 C   0  0  0  0  0  0  0  0  0  0  0  0
   -1.5557    2.5782    1.6792 C   0  0  0  0  0  0  0  0  0  0  0  0
   -0.7130    2.8438    1.0566 H   0  0  0  0  0  0  0  0  0  0  0  0
   -2.5099    3.5557    2.0168 C   0  0  0  0  0  0  0  0  0  0  0  0
   -2.3922    4.5704    1.6632 H   0  0  0  0  0  0  0  0  0  0  0  0
   -3.6148    3.2136    2.8148 C   0  0  0  0  0  0  0  0  0  0  0  0
   -4.3466    3.9652    3.0761 H   0  0  0  0  0  0  0  0  0  0  0  0
   -3.7658    1.8944    3.2793 C   0  0  0  0  0  0  0  0  0  0  0  0
   -4.6122    1.6325    3.8972 H   0  0  0  0  0  0  0  0  0  0  0  0
   -2.8103    0.9185    2.9445 C   0  0  0  0  0  0  0  0  0  0  0  0
   -2.9259   -0.0953    3.3052 H   0  0  0  0  0  0  0  0  0  0  0  0
    0.2230   -1.2962   -0.1095 C   0  0  0  0  0  0  0  0  0  0  0  0
    0.8706   -0.9976   -1.1140 O   0  0  0  0  0  0  0  0  0  0  0  0
    0.4923   -2.3867    0.6195 N   0  0  0  0  0  0  0  0  0  0  0  0
   -0.1180   -2.5937    1.3953 H   0  0  0  0  0  0  0  0  0  0  0  0
    1.5612   -3.3351    0.3161 C   0  0  0  0  0  0  0  0  0  0  0  0
    2.5057   -2.8009    0.1935 H   0  0  0  0  0  0  0  0  0  0  0  0
    1.6612   -4.0613    1.1233 H   0  0  0  0  0  0  0  0  0  0  0  0
    1.3341   -3.8592   -0.6143 H   0  0  0  0  0  0  0  0  0  0  0  0
  5  6  2  0  0  0  0
  5  7  1  0  0  0  0
  2  3  1  0  0  0  0
  2  4  1  0  0  0  0
  2  5  1  0  0  0  0
  1  2  1  0  0  0  0
 25 26  2  0  0  0  0
 25 27  1  0  0  0  0
 23 24  1  0  0  0  0
 21 22  1  0  0  0  0
 21 23  2  0  0  0  0
 19 20  1  0  0  0  0
 19 21  1  0  0  0  0
 17 18  1  0  0  0  0
 17 19  2  0  0  0  0
 15 16  1  0  0  0  0
 15 17  1  0  0  0  0
 14 15  2  0  0  0  0
 14 23  1  0  0  0  0
 11 12  1  0  0  0  0
 11 13  1  0  0  0  0
 11 14  1  0  0  0  0
  9 10  1  0  0  0  0
  9 11  1  0  0  0  0
  9 25  1  0  0  0  0
  7  8  1  0  0  0  0
  7  9  1  0  0  0  0
 29 30  1  0  0  0  0
 29 31  1  0  0  0  0
 29 32  1  0  0  0  0
 27 28  1  0  0  0  0
 27 29  1  0  0  0  0
M  END
$$$$
default_name
  -OEChem-01062215323D

 32 32  0     1  0  0  0  0  0999 V2000
   -3.8405   -3.7518    1.6252 H   0  0  0  0  0  0  0  0  0  0  0  0
   -3.7965   -2.8768    0.9782 C   0  0  0  0  0  0  0  0  0  0  0  0
   -4.5465   -2.1527    1.2902 H   0  0  0  0  0  0  0  0  0  0  0  0
   -3.9745   -3.1748   -0.0538 H   0  0  0  0  0  0  0  0  0  0  0  0
   -2.4245   -2.2537    1.0882 C   0  0  0  0  0  0  0  0  0  0  0  0
   -1.5805   -2.7478    1.8242 O   0  0  0  0  0  0  0  0  0  0  0  0
   -2.2045   -1.1637    0.3562 N   0  0  0  0  0  0  0  0  0  0  0  0
   -2.9595   -0.7907   -0.2008 H   0  0  0  0  0  0  0  0  0  0  0  0
   -0.9485   -0.4087    0.3482 C   0  0  1  0  0  0  0  0  0  0  0  0
   -1.0405    0.4128   -0.3641 H   0  0  0  0  0  0  0  0  0  0  0  0
   -0.7047    0.1870    1.7453 C   0  0  0  0  0  0  0  0  0  0  0  0
   -0.7540   -0.6125    2.4859 H   0  0  0  0  0  0  0  0  0  0  0  0
    0.3026    0.6047    1.7809 H   0  0  0  0  0  0  0  0  0  0  0  0
   -1.7046    1.2567    2.1412 C   0  0  0  0  0  0  0  0  0  0  0  0
   -1.5557    2.5782    1.6792 C   0  0  0  0  0  0  0  0  0  0  0  0
   -0.7130    2.8438    1.0566 H   0  0  0  0  0  0  0  0  0  0  0  0
   -2.5099    3.5557    2.0168 C   0  0  0  0  0  0  0  0  0  0  0  0
   -2.3922    4.5704    1.6632 H   0  0  0  0  0  0  0  0  0  0  0  0
   -3.6148    3.2136    2.8148 C   0  0  0  0  0  0  0  0  0  0  0  0
   -4.3466    3.9652    3.0761 H   0  0  0  0  0  0  0  0  0  0  0  0
   -3.7658    1.8944    3.2793 C   0  0  0  0  0  0  0  0  0  0  0  0
   -4.6122    1.6325    3.8972 H   0  0  0  0  0  0  0  0  0  0  0  0
   -2.8103    0.9185    2.9445 C   0  0  0  0  0  0  0  0  0  0  0  0
   -2.9259   -0.0953    3.3052 H   0  0  0  0  0  0  0  0  0  0  0  0
    0.2230   -1.2962   -0.1095 C   0  0  0  0  0  0  0  0  0  0  0  0
    1.0374   -0.8719   -0.9306 O   0  0  0  0  0  0  0  0  0  0  0  0
    0.3064   -2.5259    0.4138 N   0  0  0  0  0  0  0  0  0  0  0  0
   -0.4298   -2.8205    1.0371 H   0  0  0  0  0  0  0  0  0  0  0  0
    1.3488   -3.4931    0.0787 C   0  0  0  0  0  0  0  0  0  0  0  0
    2.3321   -3.0344    0.2019 H   0  0  0  0  0  0  0  0  0  0  0  0
    1.2756   -4.3662    0.7277 H   0  0  0  0  0  0  0  0  0  0  0  0
    1.2384   -3.8065   -0.9612 H   0  0  0  0  0  0  0  0  0  0  0  0
  5  6  2  0  0  0  0
  5  7  1  0  0  0  0
  2  3  1  0  0  0  0
  2  4  1  0  0  0  0
  2  5  1  0  0  0  0
  1  2  1  0  0  0  0
 25 26  2  0  0  0  0
 25 27  1  0  0  0  0
 23 24  1  0  0  0  0
 21 22  1  0  0  0  0
 21 23  2  0  0  0  0
 19 20  1  0  0  0  0
 19 21  1  0  0  0  0
 17 18  1  0  0  0  0
 17 19  2  0  0  0  0
 15 16  1  0  0  0  0
 15 17  1  0  0  0  0
 14 15  2  0  0  0  0
 14 23  1  0  0  0  0
 11 12  1  0  0  0  0
 11 13  1  0  0  0  0
 11 14  1  0  0  0  0
  9 10  1  0  0  0  0
  9 11  1  0  0  0  0
  9 25  1  0  0  0  0
  7  8  1  0  0  0  0
  7  9  1  0  0  0  0
 29 30  1  0  0  0  0
 29 31  1  0  0  0  0
 29 32  1  0  0  0  0
 27 28  1  0  0  0  0
 27 29  1  0  0  0  0
M  END
$$$$
default_name
  -OEChem-01062215323D

 32 32  0     1  0  0  0  0  0999 V2000
   -3.8405   -3.7518    1.6252 H   0  0  0  0  0  0  0  0  0  0  0  0
   -3.7965   -2.8768    0.9782 C   0  0  0  0  0  0  0  0  0  0  0  0
   -4.5465   -2.1527    1.2902 H   0  0  0  0  0  0  0  0  0  0  0  0
   -3.9745   -3.1748   -0.0538 H   0  0  0  0  0  0  0  0  0  0  0  0
   -2.4245   -2.2537    1.0882 C   0  0  0  0  0  0  0  0  0  0  0  0
   -1.5805   -2.7478    1.8242 O   0  0  0  0  0  0  0  0  0  0  0  0
   -2.2045   -1.1637    0.3562 N   0  0  0  0  0  0  0  0  0  0  0  0
   -2.9595   -0.7907   -0.2008 H   0  0  0  0  0  0  0  0  0  0  0  0
   -0.9485   -0.4087    0.3482 C   0  0  1  0  0  0  0  0  0  0  0  0
   -1.0405    0.4128   -0.3641 H   0  0  0  0  0  0  0  0  0  0  0  0
   -0.7047    0.1870    1.7453 C   0  0  0  0  0  0  0  0  0  0  0  0
   -0.7540   -0.6125    2.4859 H   0  0  0  0  0  0  0  0  0  0  0  0
    0.3026    0.6047    1.7809 H   0  0  0  0  0  0  0  0  0  0  0  0
   -1.7046    1.2567    2.1412 C   0  0  0  0  0  0  0  0  0  0  0  0
   -1.5557    2.5782    1.6792 C   0  0  0  0  0  0  0  0  0  0  0  0
   -0.7130    2.8438    1.0566 H   0  0  0  0  0  0  0  0  0  0  0  0
   -2.5099    3.5557    2.0168 C   0  0  0  0  0  0  0  0  0  0  0  0
   -2.3922    4.5704    1.6632 H   0  0  0  0  0  0  0  0  0  0  0  0
   -3.6148    3.2136    2.8148 C   0  0  0  0  0  0  0  0  0  0  0  0
   -4.3466    3.9652    3.0761 H   0  0  0  0  0  0  0  0  0  0  0  0
   -3.7658    1.8944    3.2793 C   0  0  0  0  0  0  0  0  0  0  0  0
   -4.6122    1.6325    3.8972 H   0  0  0  0  0  0  0  0  0  0  0  0
   -2.8103    0.9185    2.9445 C   0  0  0  0  0  0  0  0  0  0  0  0
   -2.9259   -0.0953    3.3052 H   0  0  0  0  0  0  0  0  0  0  0  0
    0.2230   -1.2962   -0.1095 C   0  0  0  0  0  0  0  0  0  0  0  0
    1.1809   -0.7995   -0.7038 O   0  0  0  0  0  0  0  0  0  0  0  0
    0.1468   -2.6056    0.1599 N   0  0  0  0  0  0  0  0  0  0  0  0
   -0.6949   -2.9450    0.6000 H   0  0  0  0  0  0  0  0  0  0  0  0
    1.1669   -3.5826   -0.2134 C   0  0  0  0  0  0  0  0  0  0  0  0
    2.1452   -3.2482    0.1381 H   0  0  0  0  0  0  0  0  0  0  0  0
    0.9388   -4.5531    0.2279 H   0  0  0  0  0  0  0  0  0  0  0  0
    1.2018   -3.6800   -1.3002 H   0  0  0  0  0  0  0  0  0  0  0  0
  5  6  2  0  0  0  0
  5  7  1  0  0  0  0
  2  3  1  0  0  0  0
  2  4  1  0  0  0  0
  2  5  1  0  0  0  0
  1  2  1  0  0  0  0
 25 26  2  0  0  0  0
 25 27  1  0  0  0  0
 23 24  1  0  0  0  0
 21 22  1  0  0  0  0
 21 23  2  0  0  0  0
 19 20  1  0  0  0  0
 19 21  1  0  0  0  0
 17 18  1  0  0  0  0
 17 19  2  0  0  0  0
 15 16  1  0  0  0  0
 15 17  1  0  0  0  0
 14 15  2  0  0  0  0
 14 23  1  0  0  0  0
 11 12  1  0  0  0  0
 11 13  1  0  0  0  0
 11 14  1  0  0  0  0
  9 10  1  0  0  0  0
  9 11  1  0  0  0  0
  9 25  1  0  0  0  0
  7  8  1  0  0  0  0
  7  9  1  0  0  0  0
 29 30  1  0  0  0  0
 29 31  1  0  0  0  0
 29 32  1  0  0  0  0
 27 28  1  0  0  0  0
 27 29  1  0  0  0  0
M  END
$$$$
default_name
  -OEChem-01062215323D

 32 32  0     1  0  0  0  0  0999 V2000
   -3.8405   -3.7518    1.6252 H   0  0  0  0  0  0  0  0  0  0  0  0
   -3.7965   -2.8768    0.9782 C   0  0  0  0  0  0  0  0  0  0  0  0
   -4.5465   -2.1527    1.2902 H   0  0  0  0  0  0  0  0  0  0  0  0
   -3.9745   -3.1748   -0.0538 H   0  0  0  0  0  0  0  0  0  0  0  0
   -2.4245   -2.2537    1.0882 C   0  0  0  0  0  0  0  0  0  0  0  0
   -1.5805   -2.7478    1.8242 O   0  0  0  0  0  0  0  0  0  0  0  0
   -2.2045   -1.1637    0.3562 N   0  0  0  0  0  0  0  0  0  0  0  0
   -2.9595   -0.7907   -0.2008 H   0  0  0  0  0  0  0  0  0  0  0  0
   -0.9485   -0.4087    0.3482 C   0  0  1  0  0  0  0  0  0  0  0  0
   -1.0405    0.4128   -0.3641 H   0  0  0  0  0  0  0  0  0  0  0  0
   -0.7047    0.1870    1.7453 C   0  0  0  0  0  0  0  0  0  0  0  0
   -0.7540   -0.6125    2.4859 H   0  0  0  0  0  0  0  0  0  0  0  0
    0.3026    0.6047    1.7809 H   0  0  0  0  0  0  0  0  0  0  0  0
   -1.7046    1.2567    2.1412 C   0  0  0  0  0  0  0  0  0  0  0  0
   -1.5557    2.5782    1.6792 C   0  0  0  0  0  0  0  0  0  0  0  0
   -0.7130    2.8438    1.0566 H   0  0  0  0  0  0  0  0  0  0  0  0
   -2.5099    3.5557    2.0168 C   0  0  0  0  0  0  0  0  0  0  0  0
   -2.3922    4.5704    1.6632 H   0  0  0  0  0  0  0  0  0  0  0  0
   -3.6148    3.2136    2.8148 C   0  0  0  0  0  0  0  0  0  0  0  0
   -4.3466    3.9652    3.0761 H   0  0  0  0  0  0  0  0  0  0  0  0
   -3.7658    1.8944    3.2793 C   0  0  0  0  0  0  0  0  0  0  0  0
   -4.6122    1.6325    3.8972 H   0  0  0  0  0  0  0  0  0  0  0  0
   -2.8103    0.9185    2.9445 C   0  0  0  0  0  0  0  0  0  0  0  0
   -2.9259   -0.0953    3.3052 H   0  0  0  0  0  0  0  0  0  0  0  0
    0.2230   -1.2962   -0.1095 C   0  0  0  0  0  0  0  0  0  0  0  0
    1.2912   -0.7853   -0.4490 O   0  0  0  0  0  0  0  0  0  0  0  0
    0.0245   -2.6203   -0.1248 N   0  0  0  0  0  0  0  0  0  0  0  0
   -0.8953   -2.9587    0.1137 H   0  0  0  0  0  0  0  0  0  0  0  0
    1.0279   -3.5974   -0.5404 C   0  0  0  0  0  0  0  0  0  0  0  0
    1.9578   -3.4278    0.0065 H   0  0  0  0  0  0  0  0  0  0  0  0
    0.6736   -4.6093   -0.3418 H   0  0  0  0  0  0  0  0  0  0  0  0
    1.2268   -3.4881   -1.6082 H   0  0  0  0  0  0  0  0  0  0  0  0
  5  6  2  0  0  0  0
  5  7  1  0  0  0  0
  2  3  1  0  0  0  0
  2  4  1  0  0  0  0
  2  5  1  0  0  0  0
  1  2  1  0  0  0  0
 25 26  2  0  0  0  0
 25 27  1  0  0  0  0
 23 24  1  0  0  0  0
 21 22  1  0  0  0  0
 21 23  2  0  0  0  0
 19 20  1  0  0  0  0
 19 21  1  0  0  0  0
 17 18  1  0  0  0  0
 17 19  2  0  0  0  0
 15 16  1  0  0  0  0
 15 17  1  0  0  0  0
 14 15  2  0  0  0  0
 14 23  1  0  0  0  0
 11 12  1  0  0  0  0
 11 13  1  0  0  0  0
 11 14  1  0  0  0  0
  9 10  1  0  0  0  0
  9 11  1  0  0  0  0
  9 25  1  0  0  0  0
  7  8  1  0  0  0  0
  7  9  1  0  0  0  0
 29 30  1  0  0  0  0
 29 31  1  0  0  0  0
 29 32  1  0  0  0  0
 27 28  1  0  0  0  0
 27 29  1  0  0  0  0
M  END
$$$$
default_name
  -OEChem-01062215323D

 32 32  0     1  0  0  0  0  0999 V2000
   -3.8405   -3.7518    1.6252 H   0  0  0  0  0  0  0  0  0  0  0  0
   -3.7965   -2.8768    0.9782 C   0  0  0  0  0  0  0  0  0  0  0  0
   -4.5465   -2.1527    1.2902 H   0  0  0  0  0  0  0  0  0  0  0  0
   -3.9745   -3.1748   -0.0538 H   0  0  0  0  0  0  0  0  0  0  0  0
   -2.4245   -2.2537    1.0882 C   0  0  0  0  0  0  0  0  0  0  0  0
   -1.5805   -2.7478    1.8242 O   0  0  0  0  0  0  0  0  0  0  0  0
   -2.2045   -1.1637    0.3562 N   0  0  0  0  0  0  0  0  0  0  0  0
   -2.9595   -0.7907   -0.2008 H   0  0  0  0  0  0  0  0  0  0  0  0
   -0.9485   -0.4087    0.3482 C   0  0  1  0  0  0  0  0  0  0  0  0
   -1.0405    0.4128   -0.3641 H   0  0  0  0  0  0  0  0  0  0  0  0
   -0.7047    0.1870    1.7453 C   0  0  0  0  0  0  0  0  0  0  0  0
   -0.7540   -0.6125    2.4859 H   0  0  0  0  0  0  0  0  0  0  0  0
    0.3026    0.6047    1.7809 H   0  0  0  0  0  0  0  0  0  0  0  0
   -1.7046    1.2567    2.1412 C   0  0  0  0  0  0  0  0  0  0  0  0
   -1.5557    2.5782    1.6792 C   0  0  0  0  0  0  0  0  0  0  0  0
   -0.7130    2.8438    1.0566 H   0  0  0  0  0  0  0  0  0  0  0  0
   -2.5099    3.5557    2.0168 C   0  0  0  0  0  0  0  0  0  0  0  0
   -2.3922    4.5704    1.6632 H   0  0  0  0  0  0  0  0  0  0  0  0
   -3.6148    3.2136    2.8148 C   0  0  0  0  0  0  0  0  0  0  0  0
   -4.3466    3.9652    3.0761 H   0  0  0  0  0  0  0  0  0  0  0  0
   -3.7658    1.8944    3.2793 C   0  0  0  0  0  0  0  0  0  0  0  0
   -4.6122    1.6325    3.8972 H   0  0  0  0  0  0  0  0  0  0  0  0
   -2.8103    0.9185    2.9445 C   0  0  0  0  0  0  0  0  0  0  0  0
   -2.9259   -0.0953    3.3052 H   0  0  0  0  0  0  0  0  0  0  0  0
    0.2230   -1.2962   -0.1095 C   0  0  0  0  0  0  0  0  0  0  0  0
    1.3609   -0.8302   -0.1837 O   0  0  0  0  0  0  0  0  0  0  0  0
   -0.0524   -2.5691   -0.4210 N   0  0  0  0  0  0  0  0  0  0  0  0
   -1.0174   -2.8608   -0.3887 H   0  0  0  0  0  0  0  0  0  0  0  0
    0.9413   -3.5367   -0.8798 C   0  0  0  0  0  0  0  0  0  0  0  0
    1.7825   -3.5610   -0.1839 H   0  0  0  0  0  0  0  0  0  0  0  0
    0.4981   -4.5310   -0.9428 H   0  0  0  0  0  0  0  0  0  0  0  0
    1.3117   -3.2441   -1.8642 H   0  0  0  0  0  0  0  0  0  0  0  0
  5  6  2  0  0  0  0
  5  7  1  0  0  0  0
  2  3  1  0  0  0  0
  2  4  1  0  0  0  0
  2  5  1  0  0  0  0
  1  2  1  0  0  0  0
 25 26  2  0  0  0  0
 25 27  1  0  0  0  0
 23 24  1  0  0  0  0
 21 22  1  0  0  0  0
 21 23  2  0  0  0  0
 19 20  1  0  0  0  0
 19 21  1  0  0  0  0
 17 18  1  0  0  0  0
 17 19  2  0  0  0  0
 15 16  1  0  0  0  0
 15 17  1  0  0  0  0
 14 15  2  0  0  0  0
 14 23  1  0  0  0  0
 11 12  1  0  0  0  0
 11 13  1  0  0  0  0
 11 14  1  0  0  0  0
  9 10  1  0  0  0  0
  9 11  1  0  0  0  0
  9 25  1  0  0  0  0
  7  8  1  0  0  0  0
  7  9  1  0  0  0  0
 29 30  1  0  0  0  0
 29 31  1  0  0  0  0
 29 32  1  0  0  0  0
 27 28  1  0  0  0  0
 27 29  1  0  0  0  0
M  END
$$$$
default_name
  -OEChem-01062215323D

 32 32  0     1  0  0  0  0  0999 V2000
   -3.8405   -3.7518    1.6252 H   0  0  0  0  0  0  0  0  0  0  0  0
   -3.7965   -2.8768    0.9782 C   0  0  0  0  0  0  0  0  0  0  0  0
   -4.5465   -2.1527    1.2902 H   0  0  0  0  0  0  0  0  0  0  0  0
   -3.9745   -3.1748   -0.0538 H   0  0  0  0  0  0  0  0  0  0  0  0
   -2.4245   -2.2537    1.0882 C   0  0  0  0  0  0  0  0  0  0  0  0
   -1.5805   -2.7478    1.8242 O   0  0  0  0  0  0  0  0  0  0  0  0
   -2.2045   -1.1637    0.3562 N   0  0  0  0  0  0  0  0  0  0  0  0
   -2.9595   -0.7907   -0.2008 H   0  0  0  0  0  0  0  0  0  0  0  0
   -0.9485   -0.4087    0.3482 C   0  0  1  0  0  0  0  0  0  0  0  0
   -1.0405    0.4128   -0.3641 H   0  0  0  0  0  0  0  0  0  0  0  0
   -0.7047    0.1870    1.7453 C   0  0  0  0  0  0  0  0  0  0  0  0
   -0.7540   -0.6125    2.4859 H   0  0  0  0  0  0  0  0  0  0  0  0
    0.3026    0.6047    1.7809 H   0  0  0  0  0  0  0  0  0  0  0  0
   -1.7046    1.2567    2.1412 C   0  0  0  0  0  0  0  0  0  0  0  0
   -1.5557    2.5782    1.6792 C   0  0  0  0  0  0  0  0  0  0  0  0
   -0.7130    2.8438    1.0566 H   0  0  0  0  0  0  0  0  0  0  0  0
   -2.5099    3.5557    2.0168 C   0  0  0  0  0  0  0  0  0  0  0  0
   -2.3922    4.5704    1.6632 H   0  0  0  0  0  0  0  0  0  0  0  0
   -3.6148    3.2136    2.8148 C   0  0  0  0  0  0  0  0  0  0  0  0
   -4.3466    3.9652    3.0761 H   0  0  0  0  0  0  0  0  0  0  0  0
   -3.7658    1.8944    3.2793 C   0  0  0  0  0  0  0  0  0  0  0  0
   -4.6122    1.6325    3.8972 H   0  0  0  0  0  0  0  0  0  0  0  0
   -2.8103    0.9185    2.9445 C   0  0  0  0  0  0  0  0  0  0  0  0
   -2.9259   -0.0953    3.3052 H   0  0  0  0  0  0  0  0  0  0  0  0
    0.2230   -1.2962   -0.1095 C   0  0  0  0  0  0  0  0  0  0  0  0
    1.3851   -0.9312    0.0741 O   0  0  0  0  0  0  0  0  0  0  0  0
   -0.0785   -2.4552   -0.7085 N   0  0  0  0  0  0  0  0  0  0  0  0
   -1.0528   -2.6578   -0.8729 H   0  0  0  0  0  0  0  0  0  0  0  0
    0.9129   -3.4045   -1.2087 C   0  0  0  0  0  0  0  0  0  0  0  0
    1.6314   -3.6386   -0.4203 H   0  0  0  0  0  0  0  0  0  0  0  0
    0.4244   -4.3234   -1.5341 H   0  0  0  0  0  0  0  0  0  0  0  0
    1.4507   -2.9644   -2.0507 H   0  0  0  0  0  0  0  0  0  0  0  0
  5  6  2  0  0  0  0
  5  7  1  0  0  0  0
  2  3  1  0  0  0  0
  2  4  1  0  0  0  0
  2  5  1  0  0  0  0
  1  2  1  0  0  0  0
 25 26  2  0  0  0  0
 25 27  1  0  0  0  0
 23 24  1  0  0  0  0
 21 22  1  0  0  0  0
 21 23  2  0  0  0  0
 19 20  1  0  0  0  0
 19 21  1  0  0  0  0
 17 18  1  0  0  0  0
 17 19  2  0  0  0  0
 15 16  1  0  0  0  0
 15 17  1  0  0  0  0
 14 15  2  0  0  0  0
 14 23  1  0  0  0  0
 11 12  1  0  0  0  0
 11 13  1  0  0  0  0
 11 14  1  0  0  0  0
  9 10  1  0  0  0  0
  9 11  1  0  0  0  0
  9 25  1  0  0  0  0
  7  8  1  0  0  0  0
  7  9  1  0  0  0  0
 29 30  1  0  0  0  0
 29 31  1  0  0  0  0
 29 32  1  0  0  0  0
 27 28  1  0  0  0  0
 27 29  1  0  0  0  0
M  END
$$$$
default_name
  -OEChem-01062215323D

 32 32  0     1  0  0  0  0  0999 V2000
   -3.8405   -3.7518    1.6252 H   0  0  0  0  0  0  0  0  0  0  0  0
   -3.7965   -2.8768    0.9782 C   0  0  0  0  0  0  0  0  0  0  0  0
   -4.5465   -2.1527    1.2902 H   0  0  0  0  0  0  0  0  0  0  0  0
   -3.9745   -3.1748   -0.0538 H   0  0  0  0  0  0  0  0  0  0  0  0
   -2.4245   -2.2537    1.0882 C   0  0  0  0  0  0  0  0  0  0  0  0
   -1.5805   -2.7478    1.8242 O   0  0  0  0  0  0  0  0  0  0  0  0
   -2.2045   -1.1637    0.3562 N   0  0  0  0  0  0  0  0  0  0  0  0
   -2.9595   -0.7907   -0.2008 H   0  0  0  0  0  0  0  0  0  0  0  0
   -0.9485   -0.4087    0.3482 C   0  0  1  0  0  0  0  0  0  0  0  0
   -1.0405    0.4128   -0.3641 H   0  0  0  0  0  0  0  0  0  0  0  0
   -0.7047    0.1870    1.7453 C   0  0  0  0  0  0  0  0  0  0  0  0
   -0.7540   -0.6125    2.4859 H   0  0  0  0  0  0  0  0  0  0  0  0
    0.3026    0.6047    1.7809 H   0  0  0  0  0  0  0  0  0  0  0  0
   -1.7046    1.2567    2.1412 C   0  0  0  0  0  0  0  0  0  0  0  0
   -1.5557    2.5782    1.6792 C   0  0  0  0  0  0  0  0  0  0  0  0
   -0.7130    2.8438    1.0566 H   0  0  0  0  0  0  0  0  0  0  0  0
   -2.5099    3.5557    2.0168 C   0  0  0  0  0  0  0  0  0  0  0  0
   -2.3922    4.5704    1.6632 H   0  0  0  0  0  0  0  0  0  0  0  0
   -3.6148    3.2136    2.8148 C   0  0  0  0  0  0  0  0  0  0  0  0
   -4.3466    3.9652    3.0761 H   0  0  0  0  0  0  0  0  0  0  0  0
   -3.7658    1.8944    3.2793 C   0  0  0  0  0  0  0  0  0  0  0  0
   -4.6122    1.6325    3.8972 H   0  0  0  0  0  0  0  0  0  0  0  0
   -2.8103    0.9185    2.9445 C   0  0  0  0  0  0  0  0  0  0  0  0
   -2.9259   -0.0953    3.3052 H   0  0  0  0  0  0  0  0  0  0  0  0
    0.2230   -1.2962   -0.1095 C   0  0  0  0  0  0  0  0  0  0  0  0
    1.3622   -1.0814    0.3069 O   0  0  0  0  0  0  0  0  0  0  0  0
   -0.0521   -2.2867   -0.9676 N   0  0  0  0  0  0  0  0  0  0  0  0
   -0.9992   -2.3637   -1.3058 H   0  0  0  0  0  0  0  0  0  0  0  0
    0.9448   -3.2099   -1.5045 C   0  0  0  0  0  0  0  0  0  0  0  0
    1.5147   -3.6553   -0.6864 H   0  0  0  0  0  0  0  0  0  0  0  0
    0.4573   -4.0008   -2.0753 H   0  0  0  0  0  0  0  0  0  0  0  0
    1.6342   -2.6683   -2.1550 H   0  0  0  0  0  0  0  0  0  0  0  0
  5  6  2  0  0  0  0
  5  7  1  0  0  0  0
  2  3  1  0  0  0  0
  2  4  1  0  0  0  0
  2  5  1  0  0  0  0
  1  2  1  0  0  0  0
 25 26  2  0  0  0  0
 25 27  1  0  0  0  0
 23 24  1  0  0  0  0
 21 22  1  0  0  0  0
 21 23  2  0  0  0  0
 19 20  1  0  0  0  0
 19 21  1  0  0  0  0
 17 18  1  0  0  0  0
 17 19  2  0  0  0  0
 15 16  1  0  0  0  0
 15 17  1  0  0  0  0
 14 15  2  0  0  0  0
 14 23  1  0  0  0  0
 11 12  1  0  0  0  0
 11 13  1  0  0  0  0
 11 14  1  0  0  0  0
  9 10  1  0  0  0  0
  9 11  1  0  0  0  0
  9 25  1  0  0  0  0
  7  8  1  0  0  0  0
  7  9  1  0  0  0  0
 29 30  1  0  0  0  0
 29 31  1  0  0  0  0
 29 32  1  0  0  0  0
 27 28  1  0  0  0  0
 27 29  1  0  0  0  0
M  END
$$$$
default_name
  -OEChem-01062215323D

 32 32  0     1  0  0  0  0  0999 V2000
   -3.8405   -3.7518    1.6252 H   0  0  0  0  0  0  0  0  0  0  0  0
   -3.7965   -2.8768    0.9782 C   0  0  0  0  0  0  0  0  0  0  0  0
   -4.5465   -2.1527    1.2902 H   0  0  0  0  0  0  0  0  0  0  0  0
   -3.9745   -3.1748   -0.0538 H   0  0  0  0  0  0  0  0  0  0  0  0
   -2.4245   -2.2537    1.0882 C   0  0  0  0  0  0  0  0  0  0  0  0
   -1.5805   -2.7478    1.8242 O   0  0  0  0  0  0  0  0  0  0  0  0
   -2.2045   -1.1637    0.3562 N   0  0  0  0  0  0  0  0  0  0  0  0
   -2.9595   -0.7907   -0.2008 H   0  0  0  0  0  0  0  0  0  0  0  0
   -0.9485   -0.4087    0.3482 C   0  0  1  0  0  0  0  0  0  0  0  0
   -1.0405    0.4128   -0.3641 H   0  0  0  0  0  0  0  0  0  0  0  0
   -0.7047    0.1870    1.7453 C   0  0  0  0  0  0  0  0  0  0  0  0
   -0.7540   -0.6125    2.4859 H   0  0  0  0  0  0  0  0  0  0  0  0
    0.3026    0.6047    1.7809 H   0  0  0  0  0  0  0  0  0  0  0  0
   -1.7046    1.2567    2.1412 C   0  0  0  0  0  0  0  0  0  0  0  0
   -1.5557    2.5782    1.6792 C   0  0  0  0  0  0  0  0  0  0  0  0
   -0.7130    2.8438    1.0566 H   0  0  0  0  0  0  0  0  0  0  0  0
   -2.5099    3.5557    2.0168 C   0  0  0  0  0  0  0  0  0  0  0  0
   -2.3922    4.5704    1.6632 H   0  0  0  0  0  0  0  0  0  0  0  0
   -3.6148    3.2136    2.8148 C   0  0  0  0  0  0  0  0  0  0  0  0
   -4.3466    3.9652    3.0761 H   0  0  0  0  0  0  0  0  0  0  0  0
   -3.7658    1.8944    3.2793 C   0  0  0  0  0  0  0  0  0  0  0  0
   -4.6122    1.6325    3.8972 H   0  0  0  0  0  0  0  0  0  0  0  0
   -2.8103    0.9185    2.9445 C   0  0  0  0  0  0  0  0  0  0  0  0
   -2.9259   -0.0953    3.3052 H   0  0  0  0  0  0  0  0  0  0  0  0
    0.2230   -1.2962   -0.1095 C   0  0  0  0  0  0  0  0  0  0  0  0
    1.2939   -1.2706    0.4987 O   0  0  0  0  0  0  0  0  0  0  0  0
    0.0251   -2.0749   -1.1808 N   0  0  0  0  0  0  0  0  0  0  0  0
   -0.8601   -1.9984   -1.6581 H   0  0  0  0  0  0  0  0  0  0  0  0
    1.0346   -2.9661   -1.7472 C   0  0  0  0  0  0  0  0  0  0  0  0
    1.4404   -3.6101   -0.9642 H   0  0  0  0  0  0  0  0  0  0  0  0
    0.5947   -3.5850   -2.5296 H   0  0  0  0  0  0  0  0  0  0  0  0
    1.8499   -2.3758   -2.1701 H   0  0  0  0  0  0  0  0  0  0  0  0
  5  6  2  0  0  0  0
  5  7  1  0  0  0  0
  2  3  1  0  0  0  0
  2  4  1  0  0  0  0
  2  5  1  0  0  0  0
  1  2  1  0  0  0  0
 25 26  2  0  0  0  0
 25 27  1  0  0  0  0
 23 24  1  0  0  0  0
 21 22  1  0  0  0  0
 21 23  2  0  0  0  0
 19 20  1  0  0  0  0
 19 21  1  0  0  0  0
 17 18  1  0  0  0  0
 17 19  2  0  0  0  0
 15 16  1  0  0  0  0
 15 17  1  0  0  0  0
 14 15  2  0  0  0  0
 14 23  1  0  0  0  0
 11 12  1  0  0  0  0
 11 13  1  0  0  0  0
 11 14  1  0  0  0  0
  9 10  1  0  0  0  0
  9 11  1  0  0  0  0
  9 25  1  0  0  0  0
  7  8  1  0  0  0  0
  7  9  1  0  0  0  0
 29 30  1  0  0  0  0
 29 31  1  0  0  0  0
 29 32  1  0  0  0  0
 27 28  1  0  0  0  0
 27 29  1  0  0  0  0
M  END
$$$$
default_name
  -OEChem-01062215323D

 32 32  0     1  0  0  0  0  0999 V2000
   -3.8405   -3.7518    1.6252 H   0  0  0  0  0  0  0  0  0  0  0  0
   -3.7965   -2.8768    0.9782 C   0  0  0  0  0  0  0  0  0  0  0  0
   -4.5465   -2.1527    1.2902 H   0  0  0  0  0  0  0  0  0  0  0  0
   -3.9745   -3.1748   -0.0538 H   0  0  0  0  0  0  0  0  0  0  0  0
   -2.4245   -2.2537    1.0882 C   0  0  0  0  0  0  0  0  0  0  0  0
   -1.5805   -2.7478    1.8242 O   0  0  0  0  0  0  0  0  0  0  0  0
   -2.2045   -1.1637    0.3562 N   0  0  0  0  0  0  0  0  0  0  0  0
   -2.9595   -0.7907   -0.2008 H   0  0  0  0  0  0  0  0  0  0  0  0
   -0.9485   -0.4087    0.3482 C   0  0  1  0  0  0  0  0  0  0  0  0
   -1.0405    0.4128   -0.3641 H   0  0  0  0  0  0  0  0  0  0  0  0
   -0.7047    0.1870    1.7453 C   0  0  0  0  0  0  0  0  0  0  0  0
   -0.7540   -0.6125    2.4859 H   0  0  0  0  0  0  0  0  0  0  0  0
    0.3026    0.6047    1.7809 H   0  0  0  0  0  0  0  0  0  0  0  0
   -1.7046    1.2567    2.1412 C   0  0  0  0  0  0  0  0  0  0  0  0
   -1.5557    2.5782    1.6792 C   0  0  0  0  0  0  0  0  0  0  0  0
   -0.7130    2.8438    1.0566 H   0  0  0  0  0  0  0  0  0  0  0  0
   -2.5099    3.5557    2.0168 C   0  0  0  0  0  0  0  0  0  0  0  0
   -2.3922    4.5704    1.6632 H   0  0  0  0  0  0  0  0  0  0  0  0
   -3.6148    3.2136    2.8148 C   0  0  0  0  0  0  0  0  0  0  0  0
   -4.3466    3.9652    3.0761 H   0  0  0  0  0  0  0  0  0  0  0  0
   -3.7658    1.8944    3.2793 C   0  0  0  0  0  0  0  0  0  0  0  0
   -4.6122    1.6325    3.8972 H   0  0  0  0  0  0  0  0  0  0  0  0
   -2.8103    0.9185    2.9445 C   0  0  0  0  0  0  0  0  0  0  0  0
   -2.9259   -0.0953    3.3052 H   0  0  0  0  0  0  0  0  0  0  0  0
    0.2230   -1.2962   -0.1095 C   0  0  0  0  0  0  0  0  0  0  0  0
    1.1847   -1.4858    0.6366 O   0  0  0  0  0  0  0  0  0  0  0  0
    0.1478   -1.8342   -1.3334 N   0  0  0  0  0  0  0  0  0  0  0  0
   -0.6451   -1.5869   -1.9057 H   0  0  0  0  0  0  0  0  0  0  0  0
    1.1765   -2.6897   -1.9202 C   0  0  0  0  0  0  0  0  0  0  0  0
    1.4136   -3.5060   -1.2347 H   0  0  0  0  0  0  0  0  0  0  0  0
    0.8272   -3.1046   -2.8661 H   0  0  0  0  0  0  0  0  0  0  0  0
    2.0830   -2.1069   -2.0949 H   0  0  0  0  0  0  0  0  0  0  0  0
  5  6  2  0  0  0  0
  5  7  1  0  0  0  0
  2  3  1  0  0  0  0
  2  4  1  0  0  0  0
  2  5  1  0  0  0  0
  1  2  1  0  0  0  0
 25 26  2  0  0  0  0
 25 27  1  0  0  0  0
 23 24  1  0  0  0  0
 21 22  1  0  0  0  0
 21 23  2  0  0  0  0
 19 20  1  0  0  0  0
 19 21  1  0  0  0  0
 17 18  1  0  0  0  0
 17 19  2  0  0  0  0
 15 16  1  0  0  0  0
 15 17  1  0  0  0  0
 14 15  2  0  0  0  0
 14 23  1  0  0  0  0
 11 12  1  0  0  0  0
 11 13  1  0  0  0  0
 11 14  1  0  0  0  0
  9 10  1  0  0  0  0
  9 11  1  0  0  0  0
  9 25  1  0  0  0  0
  7  8  1  0  0  0  0
  7  9  1  0  0  0  0
 29 30  1  0  0  0  0
 29 31  1  0  0  0  0
 29 32  1  0  0  0  0
 27 28  1  0  0  0  0
 27 29  1  0  0  0  0
M  END
$$$$
default_name
  -OEChem-01062215323D

 32 32  0     1  0  0  0  0  0999 V2000
   -3.8405   -3.7518    1.6252 H   0  0  0  0  0  0  0  0  0  0  0  0
   -3.7965   -2.8768    0.9782 C   0  0  0  0  0  0  0  0  0  0  0  0
   -4.5465   -2.1527    1.2902 H   0  0  0  0  0  0  0  0  0  0  0  0
   -3.9745   -3.1748   -0.0538 H   0  0  0  0  0  0  0  0  0  0  0  0
   -2.4245   -2.2537    1.0882 C   0  0  0  0  0  0  0  0  0  0  0  0
   -1.5805   -2.7478    1.8242 O   0  0  0  0  0  0  0  0  0  0  0  0
   -2.2045   -1.1637    0.3562 N   0  0  0  0  0  0  0  0  0  0  0  0
   -2.9595   -0.7907   -0.2008 H   0  0  0  0  0  0  0  0  0  0  0  0
   -0.9485   -0.4087    0.3482 C   0  0  1  0  0  0  0  0  0  0  0  0
   -1.0405    0.4128   -0.3641 H   0  0  0  0  0  0  0  0  0  0  0  0
   -0.7047    0.1870    1.7453 C   0  0  0  0  0  0  0  0  0  0  0  0
   -0.7540   -0.6125    2.4859 H   0  0  0  0  0  0  0  0  0  0  0  0
    0.3026    0.6047    1.7809 H   0  0  0  0  0  0  0  0  0  0  0  0
   -1.7046    1.2567    2.1412 C   0  0  0  0  0  0  0  0  0  0  0  0
   -1.5557    2.5782    1.6792 C   0  0  0  0  0  0  0  0  0  0  0  0
   -0.7130    2.8438    1.0566 H   0  0  0  0  0  0  0  0  0  0  0  0
   -2.5099    3.5557    2.0168 C   0  0  0  0  0  0  0  0  0  0  0  0
   -2.3922    4.5704    1.6632 H   0  0  0  0  0  0  0  0  0  0  0  0
   -3.6148    3.2136    2.8148 C   0  0  0  0  0  0  0  0  0  0  0  0
   -4.3466    3.9652    3.0761 H   0  0  0  0  0  0  0  0  0  0  0  0
   -3.7658    1.8944    3.2793 C   0  0  0  0  0  0  0  0  0  0  0  0
   -4.6122    1.6325    3.8972 H   0  0  0  0  0  0  0  0  0  0  0  0
   -2.8103    0.9185    2.9445 C   0  0  0  0  0  0  0  0  0  0  0  0
   -2.9259   -0.0953    3.3052 H   0  0  0  0  0  0  0  0  0  0  0  0
    0.2230   -1.2962   -0.1095 C   0  0  0  0  0  0  0  0  0  0  0  0
    1.0420   -1.7125    0.7110 O   0  0  0  0  0  0  0  0  0  0  0  0
    0.3075   -1.5811   -1.4152 N   0  0  0  0  0  0  0  0  0  0  0  0
   -0.3688   -1.1572   -2.0317 H   0  0  0  0  0  0  0  0  0  0  0  0
    1.3605   -2.3995   -2.0116 C   0  0  0  0  0  0  0  0  0  0  0  0
    1.4361   -3.3501   -1.4795 H   0  0  0  0  0  0  0  0  0  0  0  0
    1.1390   -2.5921   -3.0617 H   0  0  0  0  0  0  0  0  0  0  0  0
    2.3176   -1.8800   -1.9344 H   0  0  0  0  0  0  0  0  0  0  0  0
  5  6  2  0  0  0  0
  5  7  1  0  0  0  0
  2  3  1  0  0  0  0
  2  4  1  0  0  0  0
  2  5  1  0  0  0  0
  1  2  1  0  0  0  0
 25 26  2  0  0  0  0
 25 27  1  0  0  0  0
 23 24  1  0  0  0  0
 21 22  1  0  0  0  0
 21 23  2  0  0  0  0
 19 20  1  0  0  0  0
 19 21  1  0  0  0  0
 17 18  1  0  0  0  0
 17 19  2  0  0  0  0
 15 16  1  0  0  0  0
 15 17  1  0  0  0  0
 14 15  2  0  0  0  0
 14 23  1  0  0  0  0
 11 12  1  0  0  0  0
 11 13  1  0  0  0  0
 11 14  1  0  0  0  0
  9 10  1  0  0  0  0
  9 11  1  0  0  0  0
  9 25  1  0  0  0  0
  7  8  1  0  0  0  0
  7  9  1  0  0  0  0
 29 30  1  0  0  0  0
 29 31  1  0  0  0  0
 29 32  1  0  0  0  0
 27 28  1  0  0  0  0
 27 29  1  0  0  0  0
M  END
$$$$
default_name
  -OEChem-01062215323D

 32 32  0     1  0  0  0  0  0999 V2000
   -3.8405   -3.7518    1.6252 H   0  0  0  0  0  0  0  0  0  0  0  0
   -3.7965   -2.8768    0.9782 C   0  0  0  0  0  0  0  0  0  0  0  0
   -4.5465   -2.1527    1.2902 H   0  0  0  0  0  0  0  0  0  0  0  0
   -3.9745   -3.1748   -0.0538 H   0  0  0  0  0  0  0  0  0  0  0  0
   -2.4245   -2.2537    1.0882 C   0  0  0  0  0  0  0  0  0  0  0  0
   -1.5805   -2.7478    1.8242 O   0  0  0  0  0  0  0  0  0  0  0  0
   -2.2045   -1.1637    0.3562 N   0  0  0  0  0  0  0  0  0  0  0  0
   -2.9595   -0.7907   -0.2008 H   0  0  0  0  0  0  0  0  0  0  0  0
   -0.9485   -0.4087    0.3482 C   0  0  1  0  0  0  0  0  0  0  0  0
   -1.0405    0.4128   -0.3641 H   0  0  0  0  0  0  0  0  0  0  0  0
   -0.7047    0.1870    1.7453 C   0  0  0  0  0  0  0  0  0  0  0  0
   -0.7540   -0.6125    2.4859 H   0  0  0  0  0  0  0  0  0  0  0  0
    0.3026    0.6047    1.7809 H   0  0  0  0  0  0  0  0  0  0  0  0
   -1.7046    1.2567    2.1412 C   0  0  0  0  0  0  0  0  0  0  0  0
   -1.5557    2.5782    1.6792 C   0  0  0  0  0  0  0  0  0  0  0  0
   -0.7130    2.8438    1.0566 H   0  0  0  0  0  0  0  0  0  0  0  0
   -2.5099    3.5557    2.0168 C   0  0  0  0  0  0  0  0  0  0  0  0
   -2.3922    4.5704    1.6632 H   0  0  0  0  0  0  0  0  0  0  0  0
   -3.6148    3.2136    2.8148 C   0  0  0  0  0  0  0  0  0  0  0  0
   -4.3466    3.9652    3.0761 H   0  0  0  0  0  0  0  0  0  0  0  0
   -3.7658    1.8944    3.2793 C   0  0  0  0  0  0  0  0  0  0  0  0
   -4.6122    1.6325    3.8972 H   0  0  0  0  0  0  0  0  0  0  0  0
   -2.8103    0.9185    2.9445 C   0  0  0  0  0  0  0  0  0  0  0  0
   -2.9259   -0.0953    3.3052 H   0  0  0  0  0  0  0  0  0  0  0  0
    0.2230   -1.2962   -0.1095 C   0  0  0  0  0  0  0  0  0  0  0  0
    0.8757   -1.9352    0.7170 O   0  0  0  0  0  0  0  0  0  0  0  0
    0.4936   -1.3328   -1.4205 N   0  0  0  0  0  0  0  0  0  0  0  0
   -0.0501   -0.7385   -2.0276 H   0  0  0  0  0  0  0  0  0  0  0  0
    1.5743   -2.1154   -2.0154 C   0  0  0  0  0  0  0  0  0  0  0  0
    1.5063   -3.1530   -1.6818 H   0  0  0  0  0  0  0  0  0  0  0  0
    1.5088   -2.0825   -3.1033 H   0  0  0  0  0  0  0  0  0  0  0  0
    2.5377   -1.7104   -1.6998 H   0  0  0  0  0  0  0  0  0  0  0  0
  5  6  2  0  0  0  0
  5  7  1  0  0  0  0
  2  3  1  0  0  0  0
  2  4  1  0  0  0  0
  2  5  1  0  0  0  0
  1  2  1  0  0  0  0
 25 26  2  0  0  0  0
 25 27  1  0  0  0  0
 23 24  1  0  0  0  0
 21 22  1  0  0  0  0
 21 23  2  0  0  0  0
 19 20  1  0  0  0  0
 19 21  1  0  0  0  0
 17 18  1  0  0  0  0
 17 19  2  0  0  0  0
 15 16  1  0  0  0  0
 15 17  1  0  0  0  0
 14 15  2  0  0  0  0
 14 23  1  0  0  0  0
 11 12  1  0  0  0  0
 11 13  1  0  0  0  0
 11 14  1  0  0  0  0
  9 10  1  0  0  0  0
  9 11  1  0  0  0  0
  9 25  1  0  0  0  0
  7  8  1  0  0  0  0
  7  9  1  0  0  0  0
 29 30  1  0  0  0  0
 29 31  1  0  0  0  0
 29 32  1  0  0  0  0
 27 28  1  0  0  0  0
 27 29  1  0  0  0  0
M  END
$$$$
default_name
  -OEChem-01062215323D

 32 32  0     1  0  0  0  0  0999 V2000
   -3.8405   -3.7518    1.6252 H   0  0  0  0  0  0  0  0  0  0  0  0
   -3.7965   -2.8768    0.9782 C   0  0  0  0  0  0  0  0  0  0  0  0
   -4.5465   -2.1527    1.2902 H   0  0  0  0  0  0  0  0  0  0  0  0
   -3.9745   -3.1748   -0.0538 H   0  0  0  0  0  0  0  0  0  0  0  0
   -2.4245   -2.2537    1.0882 C   0  0  0  0  0  0  0  0  0  0  0  0
   -1.5805   -2.7478    1.8242 O   0  0  0  0  0  0  0  0  0  0  0  0
   -2.2045   -1.1637    0.3562 N   0  0  0  0  0  0  0  0  0  0  0  0
   -2.9595   -0.7907   -0.2008 H   0  0  0  0  0  0  0  0  0  0  0  0
   -0.9485   -0.4087    0.3482 C   0  0  1  0  0  0  0  0  0  0  0  0
   -1.0405    0.4128   -0.3641 H   0  0  0  0  0  0  0  0  0  0  0  0
   -0.7047    0.1870    1.7453 C   0  0  0  0  0  0  0  0  0  0  0  0
   -0.7540   -0.6125    2.4859 H   0  0  0  0  0  0  0  0  0  0  0  0
    0.3026    0.6047    1.7809 H   0  0  0  0  0  0  0  0  0  0  0  0
   -1.7046    1.2567    2.1412 C   0  0  0  0  0  0  0  0  0  0  0  0
   -1.5557    2.5782    1.6792 C   0  0  0  0  0  0  0  0  0  0  0  0
   -0.7130    2.8438    1.0566 H   0  0  0  0  0  0  0  0  0  0  0  0
   -2.5099    3.5557    2.0168 C   0  0  0  0  0  0  0  0  0  0  0  0
   -2.3922    4.5704    1.6632 H   0  0  0  0  0  0  0  0  0  0  0  0
   -3.6148    3.2136    2.8148 C   0  0  0  0  0  0  0  0  0  0  0  0
   -4.3466    3.9652    3.0761 H   0  0  0  0  0  0  0  0  0  0  0  0
   -3.7658    1.8944    3.2793 C   0  0  0  0  0  0  0  0  0  0  0  0
   -4.6122    1.6325    3.8972 H   0  0  0  0  0  0  0  0  0  0  0  0
   -2.8103    0.9185    2.9445 C   0  0  0  0  0  0  0  0  0  0  0  0
   -2.9259   -0.0953    3.3052 H   0  0  0  0  0  0  0  0  0  0  0  0
    0.2230   -1.2962   -0.1095 C   0  0  0  0  0  0  0  0  0  0  0  0
    0.6970   -2.1386    0.6541 O   0  0  0  0  0  0  0  0  0  0  0  0
    0.6931   -1.1063   -1.3489 N   0  0  0  0  0  0  0  0  0  0  0  0
    0.2894   -0.3595   -1.8935 H   0  0  0  0  0  0  0  0  0  0  0  0
    1.8032   -1.8567   -1.9311 C   0  0  0  0  0  0  0  0  0  0  0  0
    1.6195   -2.9282   -1.8280 H   0  0  0  0  0  0  0  0  0  0  0  0
    1.9114   -1.6106   -2.9878 H   0  0  0  0  0  0  0  0  0  0  0  0
    2.7284   -1.6098   -1.4068 H   0  0  0  0  0  0  0  0  0  0  0  0
  5  6  2  0  0  0  0
  5  7  1  0  0  0  0
  2  3  1  0  0  0  0
  2  4  1  0  0  0  0
  2  5  1  0  0  0  0
  1  2  1  0  0  0  0
 25 26  2  0  0  0  0
 25 27  1  0  0  0  0
 23 24  1  0  0  0  0
 21 22  1  0  0  0  0
 21 23  2  0  0  0  0
 19 20  1  0  0  0  0
 19 21  1  0  0  0  0
 17 18  1  0  0  0  0
 17 19  2  0  0  0  0
 15 16  1  0  0  0  0
 15 17  1  0  0  0  0
 14 15  2  0  0  0  0
 14 23  1  0  0  0  0
 11 12  1  0  0  0  0
 11 13  1  0  0  0  0
 11 14  1  0  0  0  0
  9 10  1  0  0  0  0
  9 11  1  0  0  0  0
  9 25  1  0  0  0  0
  7  8  1  0  0  0  0
  7  9  1  0  0  0  0
 29 30  1  0  0  0  0
 29 31  1  0  0  0  0
 29 32  1  0  0  0  0
 27 28  1  0  0  0  0
 27 29  1  0  0  0  0
M  END
$$$$
default_name
  -OEChem-01062215323D

 32 32  0     1  0  0  0  0  0999 V2000
   -3.8405   -3.7518    1.6252 H   0  0  0  0  0  0  0  0  0  0  0  0
   -3.7965   -2.8768    0.9782 C   0  0  0  0  0  0  0  0  0  0  0  0
   -4.5465   -2.1527    1.2902 H   0  0  0  0  0  0  0  0  0  0  0  0
   -3.9745   -3.1748   -0.0538 H   0  0  0  0  0  0  0  0  0  0  0  0
   -2.4245   -2.2537    1.0882 C   0  0  0  0  0  0  0  0  0  0  0  0
   -1.5805   -2.7478    1.8242 O   0  0  0  0  0  0  0  0  0  0  0  0
   -2.2045   -1.1637    0.3562 N   0  0  0  0  0  0  0  0  0  0  0  0
   -2.9595   -0.7907   -0.2008 H   0  0  0  0  0  0  0  0  0  0  0  0
   -0.9485   -0.4087    0.3482 C   0  0  1  0  0  0  0  0  0  0  0  0
   -1.0405    0.4128   -0.3641 H   0  0  0  0  0  0  0  0  0  0  0  0
   -0.7047    0.1870    1.7453 C   0  0  0  0  0  0  0  0  0  0  0  0
   -0.7540   -0.6125    2.4859 H   0  0  0  0  0  0  0  0  0  0  0  0
    0.3026    0.6047    1.7809 H   0  0  0  0  0  0  0  0  0  0  0  0
   -1.7046    1.2567    2.1412 C   0  0  0  0  0  0  0  0  0  0  0  0
   -1.5557    2.5782    1.6792 C   0  0  0  0  0  0  0  0  0  0  0  0
   -0.7130    2.8438    1.0566 H   0  0  0  0  0  0  0  0  0  0  0  0
   -2.5099    3.5557    2.0168 C   0  0  0  0  0  0  0  0  0  0  0  0
   -2.3922    4.5704    1.6632 H   0  0  0  0  0  0  0  0  0  0  0  0
   -3.6148    3.2136    2.8148 C   0  0  0  0  0  0  0  0  0  0  0  0
   -4.3466    3.9652    3.0761 H   0  0  0  0  0  0  0  0  0  0  0  0
   -3.7658    1.8944    3.2793 C   0  0  0  0  0  0  0  0  0  0  0  0
   -4.6122    1.6325    3.8972 H   0  0  0  0  0  0  0  0  0  0  0  0
   -2.8103    0.9185    2.9445 C   0  0  0  0  0  0  0  0  0  0  0  0
   -2.9259   -0.0953    3.3052 H   0  0  0  0  0  0  0  0  0  0  0  0
    0.2230   -1.2962   -0.1095 C   0  0  0  0  0  0  0  0  0  0  0  0
    0.5182   -2.3089    0.5266 O   0  0  0  0  0  0  0  0  0  0  0  0
    0.8926   -0.9170   -1.2054 N   0  0  0  0  0  0  0  0  0  0  0  0
    0.6265   -0.0459   -1.6388 H   0  0  0  0  0  0  0  0  0  0  0  0
    2.0316   -1.6410   -1.7646 C   0  0  0  0  0  0  0  0  0  0  0  0
    1.7679   -2.6910   -1.9080 H   0  0  0  0  0  0  0  0  0  0  0  0
    2.3193   -1.2085   -2.7233 H   0  0  0  0  0  0  0  0  0  0  0  0
    2.8766   -1.5850   -1.0756 H   0  0  0  0  0  0  0  0  0  0  0  0
  5  6  2  0  0  0  0
  5  7  1  0  0  0  0
  2  3  1  0  0  0  0
  2  4  1  0  0  0  0
  2  5  1  0  0  0  0
  1  2  1  0  0  0  0
 25 26  2  0  0  0  0
 25 27  1  0  0  0  0
 23 24  1  0  0  0  0
 21 22  1  0  0  0  0
 21 23  2  0  0  0  0
 19 20  1  0  0  0  0
 19 21  1  0  0  0  0
 17 18  1  0  0  0  0
 17 19  2  0  0  0  0
 15 16  1  0  0  0  0
 15 17  1  0  0  0  0
 14 15  2  0  0  0  0
 14 23  1  0  0  0  0
 11 12  1  0  0  0  0
 11 13  1  0  0  0  0
 11 14  1  0  0  0  0
  9 10  1  0  0  0  0
  9 11  1  0  0  0  0
  9 25  1  0  0  0  0
  7  8  1  0  0  0  0
  7  9  1  0  0  0  0
 29 30  1  0  0  0  0
 29 31  1  0  0  0  0
 29 32  1  0  0  0  0
 27 28  1  0  0  0  0
 27 29  1  0  0  0  0
M  END
$$$$
default_name
  -OEChem-01062215323D

 32 32  0     1  0  0  0  0  0999 V2000
   -3.8405   -3.7518    1.6252 H   0  0  0  0  0  0  0  0  0  0  0  0
   -3.7965   -2.8768    0.9782 C   0  0  0  0  0  0  0  0  0  0  0  0
   -4.5465   -2.1527    1.2902 H   0  0  0  0  0  0  0  0  0  0  0  0
   -3.9745   -3.1748   -0.0538 H   0  0  0  0  0  0  0  0  0  0  0  0
   -2.4245   -2.2537    1.0882 C   0  0  0  0  0  0  0  0  0  0  0  0
   -1.5805   -2.7478    1.8242 O   0  0  0  0  0  0  0  0  0  0  0  0
   -2.2045   -1.1637    0.3562 N   0  0  0  0  0  0  0  0  0  0  0  0
   -2.9595   -0.7907   -0.2008 H   0  0  0  0  0  0  0  0  0  0  0  0
   -0.9485   -0.4087    0.3482 C   0  0  1  0  0  0  0  0  0  0  0  0
   -1.0405    0.4128   -0.3641 H   0  0  0  0  0  0  0  0  0  0  0  0
   -0.7047    0.1870    1.7453 C   0  0  0  0  0  0  0  0  0  0  0  0
   -0.7540   -0.6125    2.4859 H   0  0  0  0  0  0  0  0  0  0  0  0
    0.3026    0.6047    1.7809 H   0  0  0  0  0  0  0  0  0  0  0  0
   -1.7046    1.2567    2.1412 C   0  0  0  0  0  0  0  0  0  0  0  0
   -1.5557    2.5782    1.6792 C   0  0  0  0  0  0  0  0  0  0  0  0
   -0.7130    2.8438    1.0566 H   0  0  0  0  0  0  0  0  0  0  0  0
   -2.5099    3.5557    2.0168 C   0  0  0  0  0  0  0  0  0  0  0  0
   -2.3922    4.5704    1.6632 H   0  0  0  0  0  0  0  0  0  0  0  0
   -3.6148    3.2136    2.8148 C   0  0  0  0  0  0  0  0  0  0  0  0
   -4.3466    3.9652    3.0761 H   0  0  0  0  0  0  0  0  0  0  0  0
   -3.7658    1.8944    3.2793 C   0  0  0  0  0  0  0  0  0  0  0  0
   -4.6122    1.6325    3.8972 H   0  0  0  0  0  0  0  0  0  0  0  0
   -2.8103    0.9185    2.9445 C   0  0  0  0  0  0  0  0  0  0  0  0
   -2.9259   -0.0953    3.3052 H   0  0  0  0  0  0  0  0  0  0  0  0
    0.2230   -1.2962   -0.1095 C   0  0  0  0  0  0  0  0  0  0  0  0
    0.3513   -2.4346    0.3432 O   0  0  0  0  0  0  0  0  0  0  0  0
    1.0785   -0.7777   -0.9997 N   0  0  0  0  0  0  0  0  0  0  0  0
    0.9382    0.1808   -1.2806 H   0  0  0  0  0  0  0  0  0  0  0  0
    2.2440   -1.4830   -1.5272 C   0  0  0  0  0  0  0  0  0  0  0  0
    1.9415   -2.4575   -1.9164 H   0  0  0  0  0  0  0  0  0  0  0  0
    2.7049   -0.9036   -2.3277 H   0  0  0  0  0  0  0  0  0  0  0  0
    2.9723   -1.6376   -0.7287 H   0  0  0  0  0  0  0  0  0  0  0  0
  5  6  2  0  0  0  0
  5  7  1  0  0  0  0
  2  3  1  0  0  0  0
  2  4  1  0  0  0  0
  2  5  1  0  0  0  0
  1  2  1  0  0  0  0
 25 26  2  0  0  0  0
 25 27  1  0  0  0  0
 23 24  1  0  0  0  0
 21 22  1  0  0  0  0
 21 23  2  0  0  0  0
 19 20  1  0  0  0  0
 19 21  1  0  0  0  0
 17 18  1  0  0  0  0
 17 19  2  0  0  0  0
 15 16  1  0  0  0  0
 15 17  1  0  0  0  0
 14 15  2  0  0  0  0
 14 23  1  0  0  0  0
 11 12  1  0  0  0  0
 11 13  1  0  0  0  0
 11 14  1  0  0  0  0
  9 10  1  0  0  0  0
  9 11  1  0  0  0  0
  9 25  1  0  0  0  0
  7  8  1  0  0  0  0
  7  9  1  0  0  0  0
 29 30  1  0  0  0  0
 29 31  1  0  0  0  0
 29 32  1  0  0  0  0
 27 28  1  0  0  0  0
 27 29  1  0  0  0  0
M  END
$$$$
default_name
  -OEChem-01062215323D

 32 32  0     1  0  0  0  0  0999 V2000
   -3.8405   -3.7518    1.6252 H   0  0  0  0  0  0  0  0  0  0  0  0
   -3.7965   -2.8768    0.9782 C   0  0  0  0  0  0  0  0  0  0  0  0
   -4.5465   -2.1527    1.2902 H   0  0  0  0  0  0  0  0  0  0  0  0
   -3.9745   -3.1748   -0.0538 H   0  0  0  0  0  0  0  0  0  0  0  0
   -2.4245   -2.2537    1.0882 C   0  0  0  0  0  0  0  0  0  0  0  0
   -1.5805   -2.7478    1.8242 O   0  0  0  0  0  0  0  0  0  0  0  0
   -2.2045   -1.1637    0.3562 N   0  0  0  0  0  0  0  0  0  0  0  0
   -2.9595   -0.7907   -0.2008 H   0  0  0  0  0  0  0  0  0  0  0  0
   -0.9485   -0.4087    0.3482 C   0  0  1  0  0  0  0  0  0  0  0  0
   -1.0405    0.4128   -0.3641 H   0  0  0  0  0  0  0  0  0  0  0  0
   -0.7047    0.1870    1.7453 C   0  0  0  0  0  0  0  0  0  0  0  0
   -0.7540   -0.6125    2.4859 H   0  0  0  0  0  0  0  0  0  0  0  0
    0.3026    0.6047    1.7809 H   0  0  0  0  0  0  0  0  0  0  0  0
   -1.7046    1.2567    2.1412 C   0  0  0  0  0  0  0  0  0  0  0  0
   -1.5557    2.5782    1.6792 C   0  0  0  0  0  0  0  0  0  0  0  0
   -0.7130    2.8438    1.0566 H   0  0  0  0  0  0  0  0  0  0  0  0
   -2.5099    3.5557    2.0168 C   0  0  0  0  0  0  0  0  0  0  0  0
   -2.3922    4.5704    1.6632 H   0  0  0  0  0  0  0  0  0  0  0  0
   -3.6148    3.2136    2.8148 C   0  0  0  0  0  0  0  0  0  0  0  0
   -4.3466    3.9652    3.0761 H   0  0  0  0  0  0  0  0  0  0  0  0
   -3.7658    1.8944    3.2793 C   0  0  0  0  0  0  0  0  0  0  0  0
   -4.6122    1.6325    3.8972 H   0  0  0  0  0  0  0  0  0  0  0  0
   -2.8103    0.9185    2.9445 C   0  0  0  0  0  0  0  0  0  0  0  0
   -2.9259   -0.0953    3.3052 H   0  0  0  0  0  0  0  0  0  0  0  0
    0.2230   -1.2962   -0.1095 C   0  0  0  0  0  0  0  0  0  0  0  0
    0.2079   -2.5070    0.1164 O   0  0  0  0  0  0  0  0  0  0  0  0
    1.2381   -0.6980   -0.7458 N   0  0  0  0  0  0  0  0  0  0  0  0
    1.2033    0.3053   -0.8435 H   0  0  0  0  0  0  0  0  0  0  0  0
    2.4259   -1.3936   -1.2351 C   0  0  0  0  0  0  0  0  0  0  0  0
    2.1284   -2.2436   -1.8527 H   0  0  0  0  0  0  0  0  0  0  0  0
    3.0417   -0.7167   -1.8279 H   0  0  0  0  0  0  0  0  0  0  0  0
    3.0088   -1.7642   -0.3897 H   0  0  0  0  0  0  0  0  0  0  0  0
  5  6  2  0  0  0  0
  5  7  1  0  0  0  0
  2  3  1  0  0  0  0
  2  4  1  0  0  0  0
  2  5  1  0  0  0  0
  1  2  1  0  0  0  0
 25 26  2  0  0  0  0
 25 27  1  0  0  0  0
 23 24  1  0  0  0  0
 21 22  1  0  0  0  0
 21 23  2  0  0  0  0
 19 20  1  0  0  0  0
 19 21  1  0  0  0  0
 17 18  1  0  0  0  0
 17 19  2  0  0  0  0
 15 16  1  0  0  0  0
 15 17  1  0  0  0  0
 14 15  2  0  0  0  0
 14 23  1  0  0  0  0
 11 12  1  0  0  0  0
 11 13  1  0  0  0  0
 11 14  1  0  0  0  0
  9 10  1  0  0  0  0
  9 11  1  0  0  0  0
  9 25  1  0  0  0  0
  7  8  1  0  0  0  0
  7  9  1  0  0  0  0
 29 30  1  0  0  0  0
 29 31  1  0  0  0  0
 29 32  1  0  0  0  0
 27 28  1  0  0  0  0
 27 29  1  0  0  0  0
M  END
$$$$
default_name
  -OEChem-01062215323D

 32 32  0     1  0  0  0  0  0999 V2000
   -3.8405   -3.7518    1.6252 H   0  0  0  0  0  0  0  0  0  0  0  0
   -3.7965   -2.8768    0.9782 C   0  0  0  0  0  0  0  0  0  0  0  0
   -4.5465   -2.1527    1.2902 H   0  0  0  0  0  0  0  0  0  0  0  0
   -3.9745   -3.1748   -0.0538 H   0  0  0  0  0  0  0  0  0  0  0  0
   -2.4245   -2.2537    1.0882 C   0  0  0  0  0  0  0  0  0  0  0  0
   -1.5805   -2.7478    1.8242 O   0  0  0  0  0  0  0  0  0  0  0  0
   -2.2045   -1.1637    0.3562 N   0  0  0  0  0  0  0  0  0  0  0  0
   -2.9595   -0.7907   -0.2008 H   0  0  0  0  0  0  0  0  0  0  0  0
   -0.9485   -0.4087    0.3482 C   0  0  1  0  0  0  0  0  0  0  0  0
   -1.0405    0.4128   -0.3641 H   0  0  0  0  0  0  0  0  0  0  0  0
   -0.7047    0.1870    1.7453 C   0  0  0  0  0  0  0  0  0  0  0  0
   -0.7540   -0.6125    2.4859 H   0  0  0  0  0  0  0  0  0  0  0  0
    0.3026    0.6047    1.7809 H   0  0  0  0  0  0  0  0  0  0  0  0
   -1.7046    1.2567    2.1412 C   0  0  0  0  0  0  0  0  0  0  0  0
   -1.5557    2.5782    1.6792 C   0  0  0  0  0  0  0  0  0  0  0  0
   -0.7130    2.8438    1.0566 H   0  0  0  0  0  0  0  0  0  0  0  0
   -2.5099    3.5557    2.0168 C   0  0  0  0  0  0  0  0  0  0  0  0
   -2.3922    4.5704    1.6632 H   0  0  0  0  0  0  0  0  0  0  0  0
   -3.6148    3.2136    2.8148 C   0  0  0  0  0  0  0  0  0  0  0  0
   -4.3466    3.9652    3.0761 H   0  0  0  0  0  0  0  0  0  0  0  0
   -3.7658    1.8944    3.2793 C   0  0  0  0  0  0  0  0  0  0  0  0
   -4.6122    1.6325    3.8972 H   0  0  0  0  0  0  0  0  0  0  0  0
   -2.8103    0.9185    2.9445 C   0  0  0  0  0  0  0  0  0  0  0  0
   -2.9259   -0.0953    3.3052 H   0  0  0  0  0  0  0  0  0  0  0  0
    0.2230   -1.2962   -0.1095 C   0  0  0  0  0  0  0  0  0  0  0  0
    0.0975   -2.5213   -0.1384 O   0  0  0  0  0  0  0  0  0  0  0  0
    1.3605   -0.6833   -0.4611 N   0  0  0  0  0  0  0  0  0  0  0  0
    1.4037    0.3191   -0.3571 H   0  0  0  0  0  0  0  0  0  0  0  0
    2.5649   -1.3787   -0.9082 C   0  0  0  0  0  0  0  0  0  0  0  0
    2.3159   -2.0640   -1.7211 H   0  0  0  0  0  0  0  0  0  0  0  0
    3.3069   -0.6605   -1.2582 H   0  0  0  0  0  0  0  0  0  0  0  0
    2.9838   -1.9560   -0.0817 H   0  0  0  0  0  0  0  0  0  0  0  0
  5  6  2  0  0  0  0
  5  7  1  0  0  0  0
  2  3  1  0  0  0  0
  2  4  1  0  0  0  0
  2  5  1  0  0  0  0
  1  2  1  0  0  0  0
 25 26  2  0  0  0  0
 25 27  1  0  0  0  0
 23 24  1  0  0  0  0
 21 22  1  0  0  0  0
 21 23  2  0  0  0  0
 19 20  1  0  0  0  0
 19 21  1  0  0  0  0
 17 18  1  0  0  0  0
 17 19  2  0  0  0  0
 15 16  1  0  0  0  0
 15 17  1  0  0  0  0
 14 15  2  0  0  0  0
 14 23  1  0  0  0  0
 11 12  1  0  0  0  0
 11 13  1  0  0  0  0
 11 14  1  0  0  0  0
  9 10  1  0  0  0  0
  9 11  1  0  0  0  0
  9 25  1  0  0  0  0
  7  8  1  0  0  0  0
  7  9  1  0  0  0  0
 29 30  1  0  0  0  0
 29 31  1  0  0  0  0
 29 32  1  0  0  0  0
 27 28  1  0  0  0  0
 27 29  1  0  0  0  0
M  END
$$$$
default_name
  -OEChem-01062215323D

 32 32  0     1  0  0  0  0  0999 V2000
   -3.8405   -3.7518    1.6252 H   0  0  0  0  0  0  0  0  0  0  0  0
   -3.7965   -2.8768    0.9782 C   0  0  0  0  0  0  0  0  0  0  0  0
   -4.5465   -2.1527    1.2902 H   0  0  0  0  0  0  0  0  0  0  0  0
   -3.9745   -3.1748   -0.0538 H   0  0  0  0  0  0  0  0  0  0  0  0
   -2.4245   -2.2537    1.0882 C   0  0  0  0  0  0  0  0  0  0  0  0
   -1.5805   -2.7478    1.8242 O   0  0  0  0  0  0  0  0  0  0  0  0
   -2.2045   -1.1637    0.3562 N   0  0  0  0  0  0  0  0  0  0  0  0
   -2.9595   -0.7907   -0.2008 H   0  0  0  0  0  0  0  0  0  0  0  0
   -0.9485   -0.4087    0.3482 C   0  0  1  0  0  0  0  0  0  0  0  0
   -1.1210    0.5490   -0.1454 H   0  0  0  0  0  0  0  0  0  0  0  0
   -0.5110   -0.1347    1.7973 C   0  0  0  0  0  0  0  0  0  0  0  0
   -0.4744   -1.0792    2.3419 H   0  0  0  0  0  0  0  0  0  0  0  0
    0.4987    0.2785    1.7898 H   0  0  0  0  0  0  0  0  0  0  0  0
   -1.4316    0.8068    2.5503 C   0  0  0  0  0  0  0  0  0  0  0  0
   -1.3238    2.1998    2.3772 C   0  0  0  0  0  0  0  0  0  0  0  0
   -0.5672    2.6084    1.7222 H   0  0  0  0  0  0  0  0  0  0  0  0
   -2.2082    3.0649    3.0475 C   0  0  0  0  0  0  0  0  0  0  0  0
   -2.1221    4.1343    2.9151 H   0  0  0  0  0  0  0  0  0  0  0  0
   -3.2026    2.5392    3.8899 C   0  0  0  0  0  0  0  0  0  0  0  0
   -3.8806    3.2040    4.4066 H   0  0  0  0  0  0  0  0  0  0  0  0
   -3.3120    1.1478    4.0662 C   0  0  0  0  0  0  0  0  0  0  0  0
   -4.0728    0.7439    4.7179 H   0  0  0  0  0  0  0  0  0  0  0  0
   -2.4259    0.2837    3.3988 C   0  0  0  0  0  0  0  0  0  0  0  0
   -2.5090   -0.7863    3.5380 H   0  0  0  0  0  0  0  0  0  0  0  0
    0.1368   -1.1564   -0.4471 C   0  0  0  0  0  0  0  0  0  0  0  0
   -0.1151   -2.2444   -0.9669 O   0  0  0  0  0  0  0  0  0  0  0  0
    1.3421   -0.5800   -0.5381 N   0  0  0  0  0  0  0  0  0  0  0  0
    1.4868    0.2841   -0.0385 H   0  0  0  0  0  0  0  0  0  0  0  0
    2.4799   -1.1610   -1.2466 C   0  0  0  0  0  0  0  0  0  0  0  0
    2.1848   -1.4290   -2.2633 H   0  0  0  0  0  0  0  0  0  0  0  0
    3.3029   -0.4470   -1.2876 H   0  0  0  0  0  0  0  0  0  0  0  0
    2.8115   -2.0642   -0.7307 H   0  0  0  0  0  0  0  0  0  0  0  0
  5  6  2  0  0  0  0
  5  7  1  0  0  0  0
  2  3  1  0  0  0  0
  2  4  1  0  0  0  0
  2  5  1  0  0  0  0
  1  2  1  0  0  0  0
 25 26  2  0  0  0  0
 25 27  1  0  0  0  0
 23 24  1  0  0  0  0
 21 22  1  0  0  0  0
 21 23  2  0  0  0  0
 19 20  1  0  0  0  0
 19 21  1  0  0  0  0
 17 18  1  0  0  0  0
 17 19  2  0  0  0  0
 15 16  1  0  0  0  0
 15 17  1  0  0  0  0
 14 15  2  0  0  0  0
 14 23  1  0  0  0  0
 11 12  1  0  0  0  0
 11 13  1  0  0  0  0
 11 14  1  0  0  0  0
  9 10  1  0  0  0  0
  9 11  1  0  0  0  0
  9 25  1  0  0  0  0
  7  8  1  0  0  0  0
  7  9  1  0  0  0  0
 29 30  1  0  0  0  0
 29 31  1  0  0  0  0
 29 32  1  0  0  0  0
 27 28  1  0  0  0  0
 27 29  1  0  0  0  0
M  END
$$$$
default_name
  -OEChem-01062215323D

 32 32  0     1  0  0  0  0  0999 V2000
   -3.8405   -3.7518    1.6252 H   0  0  0  0  0  0  0  0  0  0  0  0
   -3.7965   -2.8768    0.9782 C   0  0  0  0  0  0  0  0  0  0  0  0
   -4.5465   -2.1527    1.2902 H   0  0  0  0  0  0  0  0  0  0  0  0
   -3.9745   -3.1748   -0.0538 H   0  0  0  0  0  0  0  0  0  0  0  0
   -2.4245   -2.2537    1.0882 C   0  0  0  0  0  0  0  0  0  0  0  0
   -1.5805   -2.7478    1.8242 O   0  0  0  0  0  0  0  0  0  0  0  0
   -2.2045   -1.1637    0.3562 N   0  0  0  0  0  0  0  0  0  0  0  0
   -2.9595   -0.7907   -0.2008 H   0  0  0  0  0  0  0  0  0  0  0  0
   -0.9485   -0.4087    0.3482 C   0  0  1  0  0  0  0  0  0  0  0  0
   -1.1210    0.5490   -0.1454 H   0  0  0  0  0  0  0  0  0  0  0  0
   -0.5110   -0.1347    1.7973 C   0  0  0  0  0  0  0  0  0  0  0  0
   -0.4744   -1.0792    2.3419 H   0  0  0  0  0  0  0  0  0  0  0  0
    0.4987    0.2785    1.7898 H   0  0  0  0  0  0  0  0  0  0  0  0
   -1.4316    0.8068    2.5503 C   0  0  0  0  0  0  0  0  0  0  0  0
   -1.3238    2.1998    2.3772 C   0  0  0  0  0  0  0  0  0  0  0  0
   -0.5672    2.6084    1.7222 H   0  0  0  0  0  0  0  0  0  0  0  0
   -2.2082    3.0649    3.0475 C   0  0  0  0  0  0  0  0  0  0  0  0
   -2.1221    4.1343    2.9151 H   0  0  0  0  0  0  0  0  0  0  0  0
   -3.2026    2.5392    3.8899 C   0  0  0  0  0  0  0  0  0  0  0  0
   -3.8806    3.2040    4.4066 H   0  0  0  0  0  0  0  0  0  0  0  0
   -3.3120    1.1478    4.0662 C   0  0  0  0  0  0  0  0  0  0  0  0
   -4.0728    0.7439    4.7179 H   0  0  0  0  0  0  0  0  0  0  0  0
   -2.4259    0.2837    3.3988 C   0  0  0  0  0  0  0  0  0  0  0  0
   -2.5090   -0.7863    3.5380 H   0  0  0  0  0  0  0  0  0  0  0  0
    0.1368   -1.1564   -0.4471 C   0  0  0  0  0  0  0  0  0  0  0  0
   -0.1718   -2.0891   -1.1903 O   0  0  0  0  0  0  0  0  0  0  0  0
    1.4043   -0.7544   -0.2892 N   0  0  0  0  0  0  0  0  0  0  0  0
    1.5830   -0.0207    0.3794 H   0  0  0  0  0  0  0  0  0  0  0  0
    2.5497   -1.3625   -0.9620 C   0  0  0  0  0  0  0  0  0  0  0  0
    2.3673   -1.4037   -2.0379 H   0  0  0  0  0  0  0  0  0  0  0  0
    3.4514   -0.7796   -0.7724 H   0  0  0  0  0  0  0  0  0  0  0  0
    2.6941   -2.3801   -0.5939 H   0  0  0  0  0  0  0  0  0  0  0  0
  5  6  2  0  0  0  0
  5  7  1  0  0  0  0
  2  3  1  0  0  0  0
  2  4  1  0  0  0  0
  2  5  1  0  0  0  0
  1  2  1  0  0  0  0
 25 26  2  0  0  0  0
 25 27  1  0  0  0  0
 23 24  1  0  0  0  0
 21 22  1  0  0  0  0
 21 23  2  0  0  0  0
 19 20  1  0  0  0  0
 19 21  1  0  0  0  0
 17 18  1  0  0  0  0
 17 19  2  0  0  0  0
 15 16  1  0  0  0  0
 15 17  1  0  0  0  0
 14 15  2  0  0  0  0
 14 23  1  0  0  0  0
 11 12  1  0  0  0  0
 11 13  1  0  0  0  0
 11 14  1  0  0  0  0
  9 10  1  0  0  0  0
  9 11  1  0  0  0  0
  9 25  1  0  0  0  0
  7  8  1  0  0  0  0
  7  9  1  0  0  0  0
 29 30  1  0  0  0  0
 29 31  1  0  0  0  0
 29 32  1  0  0  0  0
 27 28  1  0  0  0  0
 27 29  1  0  0  0  0
M  END
$$$$
default_name
  -OEChem-01062215323D

 32 32  0     1  0  0  0  0  0999 V2000
   -3.8405   -3.7518    1.6252 H   0  0  0  0  0  0  0  0  0  0  0  0
   -3.7965   -2.8768    0.9782 C   0  0  0  0  0  0  0  0  0  0  0  0
   -4.5465   -2.1527    1.2902 H   0  0  0  0  0  0  0  0  0  0  0  0
   -3.9745   -3.1748   -0.0538 H   0  0  0  0  0  0  0  0  0  0  0  0
   -2.4245   -2.2537    1.0882 C   0  0  0  0  0  0  0  0  0  0  0  0
   -1.5805   -2.7478    1.8242 O   0  0  0  0  0  0  0  0  0  0  0  0
   -2.2045   -1.1637    0.3562 N   0  0  0  0  0  0  0  0  0  0  0  0
   -2.9595   -0.7907   -0.2008 H   0  0  0  0  0  0  0  0  0  0  0  0
   -0.9485   -0.4087    0.3482 C   0  0  1  0  0  0  0  0  0  0  0  0
   -1.1210    0.5490   -0.1454 H   0  0  0  0  0  0  0  0  0  0  0  0
   -0.5110   -0.1347    1.7973 C   0  0  0  0  0  0  0  0  0  0  0  0
   -0.4744   -1.0792    2.3419 H   0  0  0  0  0  0  0  0  0  0  0  0
    0.4987    0.2785    1.7898 H   0  0  0  0  0  0  0  0  0  0  0  0
   -1.4316    0.8068    2.5503 C   0  0  0  0  0  0  0  0  0  0  0  0
   -1.3238    2.1998    2.3772 C   0  0  0  0  0  0  0  0  0  0  0  0
   -0.5672    2.6084    1.7222 H   0  0  0  0  0  0  0  0  0  0  0  0
   -2.2082    3.0649    3.0475 C   0  0  0  0  0  0  0  0  0  0  0  0
   -2.1221    4.1343    2.9151 H   0  0  0  0  0  0  0  0  0  0  0  0
   -3.2026    2.5392    3.8899 C   0  0  0  0  0  0  0  0  0  0  0  0
   -3.8806    3.2040    4.4066 H   0  0  0  0  0  0  0  0  0  0  0  0
   -3.3120    1.1478    4.0662 C   0  0  0  0  0  0  0  0  0  0  0  0
   -4.0728    0.7439    4.7179 H   0  0  0  0  0  0  0  0  0  0  0  0
   -2.4259    0.2837    3.3988 C   0  0  0  0  0  0  0  0  0  0  0  0
   -2.5090   -0.7863    3.5380 H   0  0  0  0  0  0  0  0  0  0  0  0
    0.1368   -1.1564   -0.4471 C   0  0  0  0  0  0  0  0  0  0  0  0
   -0.1777   -1.8906   -1.3849 O   0  0  0  0  0  0  0  0  0  0  0  0
    1.4099   -0.9766   -0.0727 N   0  0  0  0  0  0  0  0  0  0  0  0
    1.5827   -0.4043    0.7396 H   0  0  0  0  0  0  0  0  0  0  0  0
    2.5543   -1.6184   -0.7152 C   0  0  0  0  0  0  0  0  0  0  0  0
    2.5186   -1.4448   -1.7927 H   0  0  0  0  0  0  0  0  0  0  0  0
    3.4855   -1.2147   -0.3167 H   0  0  0  0  0  0  0  0  0  0  0  0
    2.5212   -2.6945   -0.5343 H   0  0  0  0  0  0  0  0  0  0  0  0
  5  6  2  0  0  0  0
  5  7  1  0  0  0  0
  2  3  1  0  0  0  0
  2  4  1  0  0  0  0
  2  5  1  0  0  0  0
  1  2  1  0  0  0  0
 25 26  2  0  0  0  0
 25 27  1  0  0  0  0
 23 24  1  0  0  0  0
 21 22  1  0  0  0  0
 21 23  2  0  0  0  0
 19 20  1  0  0  0  0
 19 21  1  0  0  0  0
 17 18  1  0  0  0  0
 17 19  2  0  0  0  0
 15 16  1  0  0  0  0
 15 17  1  0  0  0  0
 14 15  2  0  0  0  0
 14 23  1  0  0  0  0
 11 12  1  0  0  0  0
 11 13  1  0  0  0  0
 11 14  1  0  0  0  0
  9 10  1  0  0  0  0
  9 11  1  0  0  0  0
  9 25  1  0  0  0  0
  7  8  1  0  0  0  0
  7  9  1  0  0  0  0
 29 30  1  0  0  0  0
 29 31  1  0  0  0  0
 29 32  1  0  0  0  0
 27 28  1  0  0  0  0
 27 29  1  0  0  0  0
M  END
$$$$
default_name
  -OEChem-01062215323D

 32 32  0     1  0  0  0  0  0999 V2000
   -3.8405   -3.7518    1.6252 H   0  0  0  0  0  0  0  0  0  0  0  0
   -3.7965   -2.8768    0.9782 C   0  0  0  0  0  0  0  0  0  0  0  0
   -4.5465   -2.1527    1.2902 H   0  0  0  0  0  0  0  0  0  0  0  0
   -3.9745   -3.1748   -0.0538 H   0  0  0  0  0  0  0  0  0  0  0  0
   -2.4245   -2.2537    1.0882 C   0  0  0  0  0  0  0  0  0  0  0  0
   -1.5805   -2.7478    1.8242 O   0  0  0  0  0  0  0  0  0  0  0  0
   -2.2045   -1.1637    0.3562 N   0  0  0  0  0  0  0  0  0  0  0  0
   -2.9595   -0.7907   -0.2008 H   0  0  0  0  0  0  0  0  0  0  0  0
   -0.9485   -0.4087    0.3482 C   0  0  1  0  0  0  0  0  0  0  0  0
   -1.1210    0.5490   -0.1454 H   0  0  0  0  0  0  0  0  0  0  0  0
   -0.5110   -0.1347    1.7973 C   0  0  0  0  0  0  0  0  0  0  0  0
   -0.4744   -1.0792    2.3419 H   0  0  0  0  0  0  0  0  0  0  0  0
    0.4987    0.2785    1.7898 H   0  0  0  0  0  0  0  0  0  0  0  0
   -1.4316    0.8068    2.5503 C   0  0  0  0  0  0  0  0  0  0  0  0
   -1.3238    2.1998    2.3772 C   0  0  0  0  0  0  0  0  0  0  0  0
   -0.5672    2.6084    1.7222 H   0  0  0  0  0  0  0  0  0  0  0  0
   -2.2082    3.0649    3.0475 C   0  0  0  0  0  0  0  0  0  0  0  0
   -2.1221    4.1343    2.9151 H   0  0  0  0  0  0  0  0  0  0  0  0
   -3.2026    2.5392    3.8899 C   0  0  0  0  0  0  0  0  0  0  0  0
   -3.8806    3.2040    4.4066 H   0  0  0  0  0  0  0  0  0  0  0  0
   -3.3120    1.1478    4.0662 C   0  0  0  0  0  0  0  0  0  0  0  0
   -4.0728    0.7439    4.7179 H   0  0  0  0  0  0  0  0  0  0  0  0
   -2.4259    0.2837    3.3988 C   0  0  0  0  0  0  0  0  0  0  0  0
   -2.5090   -0.7863    3.5380 H   0  0  0  0  0  0  0  0  0  0  0  0
    0.1368   -1.1564   -0.4471 C   0  0  0  0  0  0  0  0  0  0  0  0
   -0.1324   -1.6627   -1.5373 O   0  0  0  0  0  0  0  0  0  0  0  0
    1.3583   -1.2315    0.0965 N   0  0  0  0  0  0  0  0  0  0  0  0
    1.4858   -0.8405    1.0175 H   0  0  0  0  0  0  0  0  0  0  0  0
    2.4935   -1.9112   -0.5228 C   0  0  0  0  0  0  0  0  0  0  0  0
    2.6285   -1.5495   -1.5444 H   0  0  0  0  0  0  0  0  0  0  0  0
    3.4030   -1.7228    0.0483 H   0  0  0  0  0  0  0  0  0  0  0  0
    2.3046   -2.9859   -0.5558 H   0  0  0  0  0  0  0  0  0  0  0  0
  5  6  2  0  0  0  0
  5  7  1  0  0  0  0
  2  3  1  0  0  0  0
  2  4  1  0  0  0  0
  2  5  1  0  0  0  0
  1  2  1  0  0  0  0
 25 26  2  0  0  0  0
 25 27  1  0  0  0  0
 23 24  1  0  0  0  0
 21 22  1  0  0  0  0
 21 23  2  0  0  0  0
 19 20  1  0  0  0  0
 19 21  1  0  0  0  0
 17 18  1  0  0  0  0
 17 19  2  0  0  0  0
 15 16  1  0  0  0  0
 15 17  1  0  0  0  0
 14 15  2  0  0  0  0
 14 23  1  0  0  0  0
 11 12  1  0  0  0  0
 11 13  1  0  0  0  0
 11 14  1  0  0  0  0
  9 10  1  0  0  0  0
  9 11  1  0  0  0  0
  9 25  1  0  0  0  0
  7  8  1  0  0  0  0
  7  9  1  0  0  0  0
 29 30  1  0  0  0  0
 29 31  1  0  0  0  0
 29 32  1  0  0  0  0
 27 28  1  0  0  0  0
 27 29  1  0  0  0  0
M  END
$$$$
default_name
  -OEChem-01062215323D

 32 32  0     1  0  0  0  0  0999 V2000
   -3.8405   -3.7518    1.6252 H   0  0  0  0  0  0  0  0  0  0  0  0
   -3.7965   -2.8768    0.9782 C   0  0  0  0  0  0  0  0  0  0  0  0
   -4.5465   -2.1527    1.2902 H   0  0  0  0  0  0  0  0  0  0  0  0
   -3.9745   -3.1748   -0.0538 H   0  0  0  0  0  0  0  0  0  0  0  0
   -2.4245   -2.2537    1.0882 C   0  0  0  0  0  0  0  0  0  0  0  0
   -1.5805   -2.7478    1.8242 O   0  0  0  0  0  0  0  0  0  0  0  0
   -2.2045   -1.1637    0.3562 N   0  0  0  0  0  0  0  0  0  0  0  0
   -2.9595   -0.7907   -0.2008 H   0  0  0  0  0  0  0  0  0  0  0  0
   -0.9485   -0.4087    0.3482 C   0  0  1  0  0  0  0  0  0  0  0  0
   -1.1210    0.5490   -0.1454 H   0  0  0  0  0  0  0  0  0  0  0  0
   -0.5110   -0.1347    1.7973 C   0  0  0  0  0  0  0  0  0  0  0  0
   -0.4744   -1.0792    2.3419 H   0  0  0  0  0  0  0  0  0  0  0  0
    0.4987    0.2785    1.7898 H   0  0  0  0  0  0  0  0  0  0  0  0
   -1.4316    0.8068    2.5503 C   0  0  0  0  0  0  0  0  0  0  0  0
   -1.3238    2.1998    2.3772 C   0  0  0  0  0  0  0  0  0  0  0  0
   -0.5672    2.6084    1.7222 H   0  0  0  0  0  0  0  0  0  0  0  0
   -2.2082    3.0649    3.0475 C   0  0  0  0  0  0  0  0  0  0  0  0
   -2.1221    4.1343    2.9151 H   0  0  0  0  0  0  0  0  0  0  0  0
   -3.2026    2.5392    3.8899 C   0  0  0  0  0  0  0  0  0  0  0  0
   -3.8806    3.2040    4.4066 H   0  0  0  0  0  0  0  0  0  0  0  0
   -3.3120    1.1478    4.0662 C   0  0  0  0  0  0  0  0  0  0  0  0
   -4.0728    0.7439    4.7179 H   0  0  0  0  0  0  0  0  0  0  0  0
   -2.4259    0.2837    3.3988 C   0  0  0  0  0  0  0  0  0  0  0  0
   -2.5090   -0.7863    3.5380 H   0  0  0  0  0  0  0  0  0  0  0  0
    0.1368   -1.1564   -0.4471 C   0  0  0  0  0  0  0  0  0  0  0  0
   -0.0389   -1.4207   -1.6373 O   0  0  0  0  0  0  0  0  0  0  0  0
    1.2531   -1.5017    0.2070 N   0  0  0  0  0  0  0  0  0  0  0  0
    1.2989   -1.2996    1.1941 H   0  0  0  0  0  0  0  0  0  0  0  0
    2.3715   -2.2210   -0.3981 C   0  0  0  0  0  0  0  0  0  0  0  0
    2.6894   -1.7107   -1.3098 H   0  0  0  0  0  0  0  0  0  0  0  0
    3.2095   -2.2690    0.2978 H   0  0  0  0  0  0  0  0  0  0  0  0
    2.0592   -3.2346   -0.6570 H   0  0  0  0  0  0  0  0  0  0  0  0
  5  6  2  0  0  0  0
  5  7  1  0  0  0  0
  2  3  1  0  0  0  0
  2  4  1  0  0  0  0
  2  5  1  0  0  0  0
  1  2  1  0  0  0  0
 25 26  2  0  0  0  0
 25 27  1  0  0  0  0
 23 24  1  0  0  0  0
 21 22  1  0  0  0  0
 21 23  2  0  0  0  0
 19 20  1  0  0  0  0
 19 21  1  0  0  0  0
 17 18  1  0  0  0  0
 17 19  2  0  0  0  0
 15 16  1  0  0  0  0
 15 17  1  0  0  0  0
 14 15  2  0  0  0  0
 14 23  1  0  0  0  0
 11 12  1  0  0  0  0
 11 13  1  0  0  0  0
 11 14  1  0  0  0  0
  9 10  1  0  0  0  0
  9 11  1  0  0  0  0
  9 25  1  0  0  0  0
  7  8  1  0  0  0  0
  7  9  1  0  0  0  0
 29 30  1  0  0  0  0
 29 31  1  0  0  0  0
 29 32  1  0  0  0  0
 27 28  1  0  0  0  0
 27 29  1  0  0  0  0
M  END
$$$$
default_name
  -OEChem-01062215323D

 32 32  0     1  0  0  0  0  0999 V2000
   -3.8405   -3.7518    1.6252 H   0  0  0  0  0  0  0  0  0  0  0  0
   -3.7965   -2.8768    0.9782 C   0  0  0  0  0  0  0  0  0  0  0  0
   -4.5465   -2.1527    1.2902 H   0  0  0  0  0  0  0  0  0  0  0  0
   -3.9745   -3.1748   -0.0538 H   0  0  0  0  0  0  0  0  0  0  0  0
   -2.4245   -2.2537    1.0882 C   0  0  0  0  0  0  0  0  0  0  0  0
   -1.5805   -2.7478    1.8242 O   0  0  0  0  0  0  0  0  0  0  0  0
   -2.2045   -1.1637    0.3562 N   0  0  0  0  0  0  0  0  0  0  0  0
   -2.9595   -0.7907   -0.2008 H   0  0  0  0  0  0  0  0  0  0  0  0
   -0.9485   -0.4087    0.3482 C   0  0  1  0  0  0  0  0  0  0  0  0
   -1.1210    0.5490   -0.1454 H   0  0  0  0  0  0  0  0  0  0  0  0
   -0.5110   -0.1347    1.7973 C   0  0  0  0  0  0  0  0  0  0  0  0
   -0.4744   -1.0792    2.3419 H   0  0  0  0  0  0  0  0  0  0  0  0
    0.4987    0.2785    1.7898 H   0  0  0  0  0  0  0  0  0  0  0  0
   -1.4316    0.8068    2.5503 C   0  0  0  0  0  0  0  0  0  0  0  0
   -1.3238    2.1998    2.3772 C   0  0  0  0  0  0  0  0  0  0  0  0
   -0.5672    2.6084    1.7222 H   0  0  0  0  0  0  0  0  0  0  0  0
   -2.2082    3.0649    3.0475 C   0  0  0  0  0  0  0  0  0  0  0  0
   -2.1221    4.1343    2.9151 H   0  0  0  0  0  0  0  0  0  0  0  0
   -3.2026    2.5392    3.8899 C   0  0  0  0  0  0  0  0  0  0  0  0
   -3.8806    3.2040    4.4066 H   0  0  0  0  0  0  0  0  0  0  0  0
   -3.3120    1.1478    4.0662 C   0  0  0  0  0  0  0  0  0  0  0  0
   -4.0728    0.7439    4.7179 H   0  0  0  0  0  0  0  0  0  0  0  0
   -2.4259    0.2837    3.3988 C   0  0  0  0  0  0  0  0  0  0  0  0
   -2.5090   -0.7863    3.5380 H   0  0  0  0  0  0  0  0  0  0  0  0
    0.1368   -1.1564   -0.4471 C   0  0  0  0  0  0  0  0  0  0  0  0
    0.0962   -1.1813   -1.6780 O   0  0  0  0  0  0  0  0  0  0  0  0
    1.1015   -1.7688    0.2511 N   0  0  0  0  0  0  0  0  0  0  0  0
    1.0349   -1.7503    1.2574 H   0  0  0  0  0  0  0  0  0  0  0  0
    2.1965   -2.5267   -0.3495 C   0  0  0  0  0  0  0  0  0  0  0  0
    2.6971   -1.9173   -1.1049 H   0  0  0  0  0  0  0  0  0  0  0  0
    2.9182   -2.8164    0.4147 H   0  0  0  0  0  0  0  0  0  0  0  0
    1.8016   -3.4235   -0.8310 H   0  0  0  0  0  0  0  0  0  0  0  0
  5  6  2  0  0  0  0
  5  7  1  0  0  0  0
  2  3  1  0  0  0  0
  2  4  1  0  0  0  0
  2  5  1  0  0  0  0
  1  2  1  0  0  0  0
 25 26  2  0  0  0  0
 25 27  1  0  0  0  0
 23 24  1  0  0  0  0
 21 22  1  0  0  0  0
 21 23  2  0  0  0  0
 19 20  1  0  0  0  0
 19 21  1  0  0  0  0
 17 18  1  0  0  0  0
 17 19  2  0  0  0  0
 15 16  1  0  0  0  0
 15 17  1  0  0  0  0
 14 15  2  0  0  0  0
 14 23  1  0  0  0  0
 11 12  1  0  0  0  0
 11 13  1  0  0  0  0
 11 14  1  0  0  0  0
  9 10  1  0  0  0  0
  9 11  1  0  0  0  0
  9 25  1  0  0  0  0
  7  8  1  0  0  0  0
  7  9  1  0  0  0  0
 29 30  1  0  0  0  0
 29 31  1  0  0  0  0
 29 32  1  0  0  0  0
 27 28  1  0  0  0  0
 27 29  1  0  0  0  0
M  END
$$$$
default_name
  -OEChem-01062215323D

 32 32  0     1  0  0  0  0  0999 V2000
   -3.8405   -3.7518    1.6252 H   0  0  0  0  0  0  0  0  0  0  0  0
   -3.7965   -2.8768    0.9782 C   0  0  0  0  0  0  0  0  0  0  0  0
   -4.5465   -2.1527    1.2902 H   0  0  0  0  0  0  0  0  0  0  0  0
   -3.9745   -3.1748   -0.0538 H   0  0  0  0  0  0  0  0  0  0  0  0
   -2.4245   -2.2537    1.0882 C   0  0  0  0  0  0  0  0  0  0  0  0
   -1.5805   -2.7478    1.8242 O   0  0  0  0  0  0  0  0  0  0  0  0
   -2.2045   -1.1637    0.3562 N   0  0  0  0  0  0  0  0  0  0  0  0
   -2.9595   -0.7907   -0.2008 H   0  0  0  0  0  0  0  0  0  0  0  0
   -0.9485   -0.4087    0.3482 C   0  0  1  0  0  0  0  0  0  0  0  0
   -1.1210    0.5490   -0.1454 H   0  0  0  0  0  0  0  0  0  0  0  0
   -0.5110   -0.1347    1.7973 C   0  0  0  0  0  0  0  0  0  0  0  0
   -0.4744   -1.0792    2.3419 H   0  0  0  0  0  0  0  0  0  0  0  0
    0.4987    0.2785    1.7898 H   0  0  0  0  0  0  0  0  0  0  0  0
   -1.4316    0.8068    2.5503 C   0  0  0  0  0  0  0  0  0  0  0  0
   -1.3238    2.1998    2.3772 C   0  0  0  0  0  0  0  0  0  0  0  0
   -0.5672    2.6084    1.7222 H   0  0  0  0  0  0  0  0  0  0  0  0
   -2.2082    3.0649    3.0475 C   0  0  0  0  0  0  0  0  0  0  0  0
   -2.1221    4.1343    2.9151 H   0  0  0  0  0  0  0  0  0  0  0  0
   -3.2026    2.5392    3.8899 C   0  0  0  0  0  0  0  0  0  0  0  0
   -3.8806    3.2040    4.4066 H   0  0  0  0  0  0  0  0  0  0  0  0
   -3.3120    1.1478    4.0662 C   0  0  0  0  0  0  0  0  0  0  0  0
   -4.0728    0.7439    4.7179 H   0  0  0  0  0  0  0  0  0  0  0  0
   -2.4259    0.2837    3.3988 C   0  0  0  0  0  0  0  0  0  0  0  0
   -2.5090   -0.7863    3.5380 H   0  0  0  0  0  0  0  0  0  0  0  0
    0.1368   -1.1564   -0.4471 C   0  0  0  0  0  0  0  0  0  0  0  0
    0.2639   -0.9606   -1.6566 O   0  0  0  0  0  0  0  0  0  0  0  0
    0.9138   -2.0145    0.2260 N   0  0  0  0  0  0  0  0  0  0  0  0
    0.7116   -2.1619    1.2031 H   0  0  0  0  0  0  0  0  0  0  0  0
    1.9805   -2.8074   -0.3804 C   0  0  0  0  0  0  0  0  0  0  0  0
    2.6513   -2.1553   -0.9437 H   0  0  0  0  0  0  0  0  0  0  0  0
    2.5489   -3.3274    0.3912 H   0  0  0  0  0  0  0  0  0  0  0  0
    1.5495   -3.5397   -1.0659 H   0  0  0  0  0  0  0  0  0  0  0  0
  5  6  2  0  0  0  0
  5  7  1  0  0  0  0
  2  3  1  0  0  0  0
  2  4  1  0  0  0  0
  2  5  1  0  0  0  0
  1  2  1  0  0  0  0
 25 26  2  0  0  0  0
 25 27  1  0  0  0  0
 23 24  1  0  0  0  0
 21 22  1  0  0  0  0
 21 23  2  0  0  0  0
 19 20  1  0  0  0  0
 19 21  1  0  0  0  0
 17 18  1  0  0  0  0
 17 19  2  0  0  0  0
 15 16  1  0  0  0  0
 15 17  1  0  0  0  0
 14 15  2  0  0  0  0
 14 23  1  0  0  0  0
 11 12  1  0  0  0  0
 11 13  1  0  0  0  0
 11 14  1  0  0  0  0
  9 10  1  0  0  0  0
  9 11  1  0  0  0  0
  9 25  1  0  0  0  0
  7  8  1  0  0  0  0
  7  9  1  0  0  0  0
 29 30  1  0  0  0  0
 29 31  1  0  0  0  0
 29 32  1  0  0  0  0
 27 28  1  0  0  0  0
 27 29  1  0  0  0  0
M  END
$$$$
default_name
  -OEChem-01062215323D

 32 32  0     1  0  0  0  0  0999 V2000
   -3.8405   -3.7518    1.6252 H   0  0  0  0  0  0  0  0  0  0  0  0
   -3.7965   -2.8768    0.9782 C   0  0  0  0  0  0  0  0  0  0  0  0
   -4.5465   -2.1527    1.2902 H   0  0  0  0  0  0  0  0  0  0  0  0
   -3.9745   -3.1748   -0.0538 H   0  0  0  0  0  0  0  0  0  0  0  0
   -2.4245   -2.2537    1.0882 C   0  0  0  0  0  0  0  0  0  0  0  0
   -1.5805   -2.7478    1.8242 O   0  0  0  0  0  0  0  0  0  0  0  0
   -2.2045   -1.1637    0.3562 N   0  0  0  0  0  0  0  0  0  0  0  0
   -2.9595   -0.7907   -0.2008 H   0  0  0  0  0  0  0  0  0  0  0  0
   -0.9485   -0.4087    0.3482 C   0  0  1  0  0  0  0  0  0  0  0  0
   -1.1210    0.5490   -0.1454 H   0  0  0  0  0  0  0  0  0  0  0  0
   -0.5110   -0.1347    1.7973 C   0  0  0  0  0  0  0  0  0  0  0  0
   -0.4744   -1.0792    2.3419 H   0  0  0  0  0  0  0  0  0  0  0  0
    0.4987    0.2785    1.7898 H   0  0  0  0  0  0  0  0  0  0  0  0
   -1.4316    0.8068    2.5503 C   0  0  0  0  0  0  0  0  0  0  0  0
   -1.3238    2.1998    2.3772 C   0  0  0  0  0  0  0  0  0  0  0  0
   -0.5672    2.6084    1.7222 H   0  0  0  0  0  0  0  0  0  0  0  0
   -2.2082    3.0649    3.0475 C   0  0  0  0  0  0  0  0  0  0  0  0
   -2.1221    4.1343    2.9151 H   0  0  0  0  0  0  0  0  0  0  0  0
   -3.2026    2.5392    3.8899 C   0  0  0  0  0  0  0  0  0  0  0  0
   -3.8806    3.2040    4.4066 H   0  0  0  0  0  0  0  0  0  0  0  0
   -3.3120    1.1478    4.0662 C   0  0  0  0  0  0  0  0  0  0  0  0
   -4.0728    0.7439    4.7179 H   0  0  0  0  0  0  0  0  0  0  0  0
   -2.4259    0.2837    3.3988 C   0  0  0  0  0  0  0  0  0  0  0  0
   -2.5090   -0.7863    3.5380 H   0  0  0  0  0  0  0  0  0  0  0  0
    0.1368   -1.1564   -0.4471 C   0  0  0  0  0  0  0  0  0  0  0  0
    0.4527   -0.7738   -1.5746 O   0  0  0  0  0  0  0  0  0  0  0  0
    0.7028   -2.2222    0.1333 N   0  0  0  0  0  0  0  0  0  0  0  0
    0.3511   -2.5063    1.0349 H   0  0  0  0  0  0  0  0  0  0  0  0
    1.7382   -3.0441   -0.4886 C   0  0  0  0  0  0  0  0  0  0  0  0
    2.5549   -2.4085   -0.8373 H   0  0  0  0  0  0  0  0  0  0  0  0
    2.1268   -3.7674    0.2288 H   0  0  0  0  0  0  0  0  0  0  0  0
    1.3198   -3.5754   -1.3456 H   0  0  0  0  0  0  0  0  0  0  0  0
  5  6  2  0  0  0  0
  5  7  1  0  0  0  0
  2  3  1  0  0  0  0
  2  4  1  0  0  0  0
  2  5  1  0  0  0  0
  1  2  1  0  0  0  0
 25 26  2  0  0  0  0
 25 27  1  0  0  0  0
 23 24  1  0  0  0  0
 21 22  1  0  0  0  0
 21 23  2  0  0  0  0
 19 20  1  0  0  0  0
 19 21  1  0  0  0  0
 17 18  1  0  0  0  0
 17 19  2  0  0  0  0
 15 16  1  0  0  0  0
 15 17  1  0  0  0  0
 14 15  2  0  0  0  0
 14 23  1  0  0  0  0
 11 12  1  0  0  0  0
 11 13  1  0  0  0  0
 11 14  1  0  0  0  0
  9 10  1  0  0  0  0
  9 11  1  0  0  0  0
  9 25  1  0  0  0  0
  7  8  1  0  0  0  0
  7  9  1  0  0  0  0
 29 30  1  0  0  0  0
 29 31  1  0  0  0  0
 29 32  1  0  0  0  0
 27 28  1  0  0  0  0
 27 29  1  0  0  0  0
M  END
$$$$
default_name
  -OEChem-01062215323D

 32 32  0     1  0  0  0  0  0999 V2000
   -3.8405   -3.7518    1.6252 H   0  0  0  0  0  0  0  0  0  0  0  0
   -3.7965   -2.8768    0.9782 C   0  0  0  0  0  0  0  0  0  0  0  0
   -4.5465   -2.1527    1.2902 H   0  0  0  0  0  0  0  0  0  0  0  0
   -3.9745   -3.1748   -0.0538 H   0  0  0  0  0  0  0  0  0  0  0  0
   -2.4245   -2.2537    1.0882 C   0  0  0  0  0  0  0  0  0  0  0  0
   -1.5805   -2.7478    1.8242 O   0  0  0  0  0  0  0  0  0  0  0  0
   -2.2045   -1.1637    0.3562 N   0  0  0  0  0  0  0  0  0  0  0  0
   -2.9595   -0.7907   -0.2008 H   0  0  0  0  0  0  0  0  0  0  0  0
   -0.9485   -0.4087    0.3482 C   0  0  1  0  0  0  0  0  0  0  0  0
   -1.1210    0.5490   -0.1454 H   0  0  0  0  0  0  0  0  0  0  0  0
   -0.5110   -0.1347    1.7973 C   0  0  0  0  0  0  0  0  0  0  0  0
   -0.4744   -1.0792    2.3419 H   0  0  0  0  0  0  0  0  0  0  0  0
    0.4987    0.2785    1.7898 H   0  0  0  0  0  0  0  0  0  0  0  0
   -1.4316    0.8068    2.5503 C   0  0  0  0  0  0  0  0  0  0  0  0
   -1.3238    2.1998    2.3772 C   0  0  0  0  0  0  0  0  0  0  0  0
   -0.5672    2.6084    1.7222 H   0  0  0  0  0  0  0  0  0  0  0  0
   -2.2082    3.0649    3.0475 C   0  0  0  0  0  0  0  0  0  0  0  0
   -2.1221    4.1343    2.9151 H   0  0  0  0  0  0  0  0  0  0  0  0
   -3.2026    2.5392    3.8899 C   0  0  0  0  0  0  0  0  0  0  0  0
   -3.8806    3.2040    4.4066 H   0  0  0  0  0  0  0  0  0  0  0  0
   -3.3120    1.1478    4.0662 C   0  0  0  0  0  0  0  0  0  0  0  0
   -4.0728    0.7439    4.7179 H   0  0  0  0  0  0  0  0  0  0  0  0
   -2.4259    0.2837    3.3988 C   0  0  0  0  0  0  0  0  0  0  0  0
   -2.5090   -0.7863    3.5380 H   0  0  0  0  0  0  0  0  0  0  0  0
    0.1368   -1.1564   -0.4471 C   0  0  0  0  0  0  0  0  0  0  0  0
    0.6497   -0.6336   -1.4376 O   0  0  0  0  0  0  0  0  0  0  0  0
    0.4828   -2.3777   -0.0207 N   0  0  0  0  0  0  0  0  0  0  0  0
   -0.0221   -2.7601    0.7643 H   0  0  0  0  0  0  0  0  0  0  0  0
    1.4861   -3.2206   -0.6667 C   0  0  0  0  0  0  0  0  0  0  0  0
    2.4145   -2.6596   -0.7928 H   0  0  0  0  0  0  0  0  0  0  0  0
    1.6807   -4.1063   -0.0614 H   0  0  0  0  0  0  0  0  0  0  0  0
    1.1284   -3.5281   -1.6513 H   0  0  0  0  0  0  0  0  0  0  0  0
  5  6  2  0  0  0  0
  5  7  1  0  0  0  0
  2  3  1  0  0  0  0
  2  4  1  0  0  0  0
  2  5  1  0  0  0  0
  1  2  1  0  0  0  0
 25 26  2  0  0  0  0
 25 27  1  0  0  0  0
 23 24  1  0  0  0  0
 21 22  1  0  0  0  0
 21 23  2  0  0  0  0
 19 20  1  0  0  0  0
 19 21  1  0  0  0  0
 17 18  1  0  0  0  0
 17 19  2  0  0  0  0
 15 16  1  0  0  0  0
 15 17  1  0  0  0  0
 14 15  2  0  0  0  0
 14 23  1  0  0  0  0
 11 12  1  0  0  0  0
 11 13  1  0  0  0  0
 11 14  1  0  0  0  0
  9 10  1  0  0  0  0
  9 11  1  0  0  0  0
  9 25  1  0  0  0  0
  7  8  1  0  0  0  0
  7  9  1  0  0  0  0
 29 30  1  0  0  0  0
 29 31  1  0  0  0  0
 29 32  1  0  0  0  0
 27 28  1  0  0  0  0
 27 29  1  0  0  0  0
M  END
$$$$
default_name
  -OEChem-01062215323D

 32 32  0     1  0  0  0  0  0999 V2000
   -3.8405   -3.7518    1.6252 H   0  0  0  0  0  0  0  0  0  0  0  0
   -3.7965   -2.8768    0.9782 C   0  0  0  0  0  0  0  0  0  0  0  0
   -4.5465   -2.1527    1.2902 H   0  0  0  0  0  0  0  0  0  0  0  0
   -3.9745   -3.1748   -0.0538 H   0  0  0  0  0  0  0  0  0  0  0  0
   -2.4245   -2.2537    1.0882 C   0  0  0  0  0  0  0  0  0  0  0  0
   -1.5805   -2.7478    1.8242 O   0  0  0  0  0  0  0  0  0  0  0  0
   -2.2045   -1.1637    0.3562 N   0  0  0  0  0  0  0  0  0  0  0  0
   -2.9595   -0.7907   -0.2008 H   0  0  0  0  0  0  0  0  0  0  0  0
   -0.9485   -0.4087    0.3482 C   0  0  1  0  0  0  0  0  0  0  0  0
   -1.1210    0.5490   -0.1454 H   0  0  0  0  0  0  0  0  0  0  0  0
   -0.5110   -0.1347    1.7973 C   0  0  0  0  0  0  0  0  0  0  0  0
   -0.4744   -1.0792    2.3419 H   0  0  0  0  0  0  0  0  0  0  0  0
    0.4987    0.2785    1.7898 H   0  0  0  0  0  0  0  0  0  0  0  0
   -1.4316    0.8068    2.5503 C   0  0  0  0  0  0  0  0  0  0  0  0
   -1.3238    2.1998    2.3772 C   0  0  0  0  0  0  0  0  0  0  0  0
   -0.5672    2.6084    1.7222 H   0  0  0  0  0  0  0  0  0  0  0  0
   -2.2082    3.0649    3.0475 C   0  0  0  0  0  0  0  0  0  0  0  0
   -2.1221    4.1343    2.9151 H   0  0  0  0  0  0  0  0  0  0  0  0
   -3.2026    2.5392    3.8899 C   0  0  0  0  0  0  0  0  0  0  0  0
   -3.8806    3.2040    4.4066 H   0  0  0  0  0  0  0  0  0  0  0  0
   -3.3120    1.1478    4.0662 C   0  0  0  0  0  0  0  0  0  0  0  0
   -4.0728    0.7439    4.7179 H   0  0  0  0  0  0  0  0  0  0  0  0
   -2.4259    0.2837    3.3988 C   0  0  0  0  0  0  0  0  0  0  0  0
   -2.5090   -0.7863    3.5380 H   0  0  0  0  0  0  0  0  0  0  0  0
    0.1368   -1.1564   -0.4471 C   0  0  0  0  0  0  0  0  0  0  0  0
    0.8415   -0.5495   -1.2548 O   0  0  0  0  0  0  0  0  0  0  0  0
    0.2689   -2.4704   -0.2254 N   0  0  0  0  0  0  0  0  0  0  0  0
   -0.3824   -2.9059    0.4097 H   0  0  0  0  0  0  0  0  0  0  0  0
    1.2414   -3.3248   -0.9027 C   0  0  0  0  0  0  0  0  0  0  0  0
    2.2398   -2.8915   -0.8132 H   0  0  0  0  0  0  0  0  0  0  0  0
    1.2409   -4.3210   -0.4597 H   0  0  0  0  0  0  0  0  0  0  0  0
    0.9883   -3.4011   -1.9620 H   0  0  0  0  0  0  0  0  0  0  0  0
  5  6  2  0  0  0  0
  5  7  1  0  0  0  0
  2  3  1  0  0  0  0
  2  4  1  0  0  0  0
  2  5  1  0  0  0  0
  1  2  1  0  0  0  0
 25 26  2  0  0  0  0
 25 27  1  0  0  0  0
 23 24  1  0  0  0  0
 21 22  1  0  0  0  0
 21 23  2  0  0  0  0
 19 20  1  0  0  0  0
 19 21  1  0  0  0  0
 17 18  1  0  0  0  0
 17 19  2  0  0  0  0
 15 16  1  0  0  0  0
 15 17  1  0  0  0  0
 14 15  2  0  0  0  0
 14 23  1  0  0  0  0
 11 12  1  0  0  0  0
 11 13  1  0  0  0  0
 11 14  1  0  0  0  0
  9 10  1  0  0  0  0
  9 11  1  0  0  0  0
  9 25  1  0  0  0  0
  7  8  1  0  0  0  0
  7  9  1  0  0  0  0
 29 30  1  0  0  0  0
 29 31  1  0  0  0  0
 29 32  1  0  0  0  0
 27 28  1  0  0  0  0
 27 29  1  0  0  0  0
M  END
$$$$
default_name
  -OEChem-01062215323D

 32 32  0     1  0  0  0  0  0999 V2000
   -3.8405   -3.7518    1.6252 H   0  0  0  0  0  0  0  0  0  0  0  0
   -3.7965   -2.8768    0.9782 C   0  0  0  0  0  0  0  0  0  0  0  0
   -4.5465   -2.1527    1.2902 H   0  0  0  0  0  0  0  0  0  0  0  0
   -3.9745   -3.1748   -0.0538 H   0  0  0  0  0  0  0  0  0  0  0  0
   -2.4245   -2.2537    1.0882 C   0  0  0  0  0  0  0  0  0  0  0  0
   -1.5805   -2.7478    1.8242 O   0  0  0  0  0  0  0  0  0  0  0  0
   -2.2045   -1.1637    0.3562 N   0  0  0  0  0  0  0  0  0  0  0  0
   -2.9595   -0.7907   -0.2008 H   0  0  0  0  0  0  0  0  0  0  0  0
   -0.9485   -0.4087    0.3482 C   0  0  1  0  0  0  0  0  0  0  0  0
   -1.1210    0.5490   -0.1454 H   0  0  0  0  0  0  0  0  0  0  0  0
   -0.5110   -0.1347    1.7973 C   0  0  0  0  0  0  0  0  0  0  0  0
   -0.4744   -1.0792    2.3419 H   0  0  0  0  0  0  0  0  0  0  0  0
    0.4987    0.2785    1.7898 H   0  0  0  0  0  0  0  0  0  0  0  0
   -1.4316    0.8068    2.5503 C   0  0  0  0  0  0  0  0  0  0  0  0
   -1.3238    2.1998    2.3772 C   0  0  0  0  0  0  0  0  0  0  0  0
   -0.5672    2.6084    1.7222 H   0  0  0  0  0  0  0  0  0  0  0  0
   -2.2082    3.0649    3.0475 C   0  0  0  0  0  0  0  0  0  0  0  0
   -2.1221    4.1343    2.9151 H   0  0  0  0  0  0  0  0  0  0  0  0
   -3.2026    2.5392    3.8899 C   0  0  0  0  0  0  0  0  0  0  0  0
   -3.8806    3.2040    4.4066 H   0  0  0  0  0  0  0  0  0  0  0  0
   -3.3120    1.1478    4.0662 C   0  0  0  0  0  0  0  0  0  0  0  0
   -4.0728    0.7439    4.7179 H   0  0  0  0  0  0  0  0  0  0  0  0
   -2.4259    0.2837    3.3988 C   0  0  0  0  0  0  0  0  0  0  0  0
   -2.5090   -0.7863    3.5380 H   0  0  0  0  0  0  0  0  0  0  0  0
    0.1368   -1.1564   -0.4471 C   0  0  0  0  0  0  0  0  0  0  0  0
    1.0151   -0.5272   -1.0388 O   0  0  0  0  0  0  0  0  0  0  0  0
    0.0757   -2.4939   -0.4670 N   0  0  0  0  0  0  0  0  0  0  0  0
   -0.7054   -2.9339   -0.0048 H   0  0  0  0  0  0  0  0  0  0  0  0
    1.0207   -3.3497   -1.1804 C   0  0  0  0  0  0  0  0  0  0  0  0
    2.0425   -3.0884   -0.8973 H   0  0  0  0  0  0  0  0  0  0  0  0
    0.8375   -4.3970   -0.9388 H   0  0  0  0  0  0  0  0  0  0  0  0
    0.9090   -3.2030   -2.2565 H   0  0  0  0  0  0  0  0  0  0  0  0
  5  6  2  0  0  0  0
  5  7  1  0  0  0  0
  2  3  1  0  0  0  0
  2  4  1  0  0  0  0
  2  5  1  0  0  0  0
  1  2  1  0  0  0  0
 25 26  2  0  0  0  0
 25 27  1  0  0  0  0
 23 24  1  0  0  0  0
 21 22  1  0  0  0  0
 21 23  2  0  0  0  0
 19 20  1  0  0  0  0
 19 21  1  0  0  0  0
 17 18  1  0  0  0  0
 17 19  2  0  0  0  0
 15 16  1  0  0  0  0
 15 17  1  0  0  0  0
 14 15  2  0  0  0  0
 14 23  1  0  0  0  0
 11 12  1  0  0  0  0
 11 13  1  0  0  0  0
 11 14  1  0  0  0  0
  9 10  1  0  0  0  0
  9 11  1  0  0  0  0
  9 25  1  0  0  0  0
  7  8  1  0  0  0  0
  7  9  1  0  0  0  0
 29 30  1  0  0  0  0
 29 31  1  0  0  0  0
 29 32  1  0  0  0  0
 27 28  1  0  0  0  0
 27 29  1  0  0  0  0
M  END
$$$$
default_name
  -OEChem-01062215323D

 32 32  0     1  0  0  0  0  0999 V2000
   -3.8405   -3.7518    1.6252 H   0  0  0  0  0  0  0  0  0  0  0  0
   -3.7965   -2.8768    0.9782 C   0  0  0  0  0  0  0  0  0  0  0  0
   -4.5465   -2.1527    1.2902 H   0  0  0  0  0  0  0  0  0  0  0  0
   -3.9745   -3.1748   -0.0538 H   0  0  0  0  0  0  0  0  0  0  0  0
   -2.4245   -2.2537    1.0882 C   0  0  0  0  0  0  0  0  0  0  0  0
   -1.5805   -2.7478    1.8242 O   0  0  0  0  0  0  0  0  0  0  0  0
   -2.2045   -1.1637    0.3562 N   0  0  0  0  0  0  0  0  0  0  0  0
   -2.9595   -0.7907   -0.2008 H   0  0  0  0  0  0  0  0  0  0  0  0
   -0.9485   -0.4087    0.3482 C   0  0  1  0  0  0  0  0  0  0  0  0
   -1.1210    0.5490   -0.1454 H   0  0  0  0  0  0  0  0  0  0  0  0
   -0.5110   -0.1347    1.7973 C   0  0  0  0  0  0  0  0  0  0  0  0
   -0.4744   -1.0792    2.3419 H   0  0  0  0  0  0  0  0  0  0  0  0
    0.4987    0.2785    1.7898 H   0  0  0  0  0  0  0  0  0  0  0  0
   -1.4316    0.8068    2.5503 C   0  0  0  0  0  0  0  0  0  0  0  0
   -1.3238    2.1998    2.3772 C   0  0  0  0  0  0  0  0  0  0  0  0
   -0.5672    2.6084    1.7222 H   0  0  0  0  0  0  0  0  0  0  0  0
   -2.2082    3.0649    3.0475 C   0  0  0  0  0  0  0  0  0  0  0  0
   -2.1221    4.1343    2.9151 H   0  0  0  0  0  0  0  0  0  0  0  0
   -3.2026    2.5392    3.8899 C   0  0  0  0  0  0  0  0  0  0  0  0
   -3.8806    3.2040    4.4066 H   0  0  0  0  0  0  0  0  0  0  0  0
   -3.3120    1.1478    4.0662 C   0  0  0  0  0  0  0  0  0  0  0  0
   -4.0728    0.7439    4.7179 H   0  0  0  0  0  0  0  0  0  0  0  0
   -2.4259    0.2837    3.3988 C   0  0  0  0  0  0  0  0  0  0  0  0
   -2.5090   -0.7863    3.5380 H   0  0  0  0  0  0  0  0  0  0  0  0
    0.1368   -1.1564   -0.4471 C   0  0  0  0  0  0  0  0  0  0  0  0
    1.1586   -0.5684   -0.8044 O   0  0  0  0  0  0  0  0  0  0  0  0
   -0.0837   -2.4468   -0.7290 N   0  0  0  0  0  0  0  0  0  0  0  0
   -0.9690   -2.8421   -0.4508 H   0  0  0  0  0  0  0  0  0  0  0  0
    0.8392   -3.2935   -1.4810 C   0  0  0  0  0  0  0  0  0  0  0  0
    1.8363   -3.2368   -1.0392 H   0  0  0  0  0  0  0  0  0  0  0  0
    0.4979   -4.3289   -1.4662 H   0  0  0  0  0  0  0  0  0  0  0  0
    0.8959   -2.9472   -2.5148 H   0  0  0  0  0  0  0  0  0  0  0  0
  5  6  2  0  0  0  0
  5  7  1  0  0  0  0
  2  3  1  0  0  0  0
  2  4  1  0  0  0  0
  2  5  1  0  0  0  0
  1  2  1  0  0  0  0
 25 26  2  0  0  0  0
 25 27  1  0  0  0  0
 23 24  1  0  0  0  0
 21 22  1  0  0  0  0
 21 23  2  0  0  0  0
 19 20  1  0  0  0  0
 19 21  1  0  0  0  0
 17 18  1  0  0  0  0
 17 19  2  0  0  0  0
 15 16  1  0  0  0  0
 15 17  1  0  0  0  0
 14 15  2  0  0  0  0
 14 23  1  0  0  0  0
 11 12  1  0  0  0  0
 11 13  1  0  0  0  0
 11 14  1  0  0  0  0
  9 10  1  0  0  0  0
  9 11  1  0  0  0  0
  9 25  1  0  0  0  0
  7  8  1  0  0  0  0
  7  9  1  0  0  0  0
 29 30  1  0  0  0  0
 29 31  1  0  0  0  0
 29 32  1  0  0  0  0
 27 28  1  0  0  0  0
 27 29  1  0  0  0  0
M  END
$$$$
default_name
  -OEChem-01062215323D

 32 32  0     1  0  0  0  0  0999 V2000
   -3.8405   -3.7518    1.6252 H   0  0  0  0  0  0  0  0  0  0  0  0
   -3.7965   -2.8768    0.9782 C   0  0  0  0  0  0  0  0  0  0  0  0
   -4.5465   -2.1527    1.2902 H   0  0  0  0  0  0  0  0  0  0  0  0
   -3.9745   -3.1748   -0.0538 H   0  0  0  0  0  0  0  0  0  0  0  0
   -2.4245   -2.2537    1.0882 C   0  0  0  0  0  0  0  0  0  0  0  0
   -1.5805   -2.7478    1.8242 O   0  0  0  0  0  0  0  0  0  0  0  0
   -2.2045   -1.1637    0.3562 N   0  0  0  0  0  0  0  0  0  0  0  0
   -2.9595   -0.7907   -0.2008 H   0  0  0  0  0  0  0  0  0  0  0  0
   -0.9485   -0.4087    0.3482 C   0  0  1  0  0  0  0  0  0  0  0  0
   -1.1210    0.5490   -0.1454 H   0  0  0  0  0  0  0  0  0  0  0  0
   -0.5110   -0.1347    1.7973 C   0  0  0  0  0  0  0  0  0  0  0  0
   -0.4744   -1.0792    2.3419 H   0  0  0  0  0  0  0  0  0  0  0  0
    0.4987    0.2785    1.7898 H   0  0  0  0  0  0  0  0  0  0  0  0
   -1.4316    0.8068    2.5503 C   0  0  0  0  0  0  0  0  0  0  0  0
   -1.3238    2.1998    2.3772 C   0  0  0  0  0  0  0  0  0  0  0  0
   -0.5672    2.6084    1.7222 H   0  0  0  0  0  0  0  0  0  0  0  0
   -2.2082    3.0649    3.0475 C   0  0  0  0  0  0  0  0  0  0  0  0
   -2.1221    4.1343    2.9151 H   0  0  0  0  0  0  0  0  0  0  0  0
   -3.2026    2.5392    3.8899 C   0  0  0  0  0  0  0  0  0  0  0  0
   -3.8806    3.2040    4.4066 H   0  0  0  0  0  0  0  0  0  0  0  0
   -3.3120    1.1478    4.0662 C   0  0  0  0  0  0  0  0  0  0  0  0
   -4.0728    0.7439    4.7179 H   0  0  0  0  0  0  0  0  0  0  0  0
   -2.4259    0.2837    3.3988 C   0  0  0  0  0  0  0  0  0  0  0  0
   -2.5090   -0.7863    3.5380 H   0  0  0  0  0  0  0  0  0  0  0  0
    0.1368   -1.1564   -0.4471 C   0  0  0  0  0  0  0  0  0  0  0  0
    1.2622   -0.6701   -0.5673 O   0  0  0  0  0  0  0  0  0  0  0  0
   -0.1985   -2.3321   -0.9934 N   0  0  0  0  0  0  0  0  0  0  0  0
   -1.1552   -2.6368   -0.8981 H   0  0  0  0  0  0  0  0  0  0  0  0
    0.7091   -3.1602   -1.7838 C   0  0  0  0  0  0  0  0  0  0  0  0
    1.6350   -3.3267   -1.2293 H   0  0  0  0  0  0  0  0  0  0  0  0
    0.2453   -4.1216   -2.0060 H   0  0  0  0  0  0  0  0  0  0  0  0
    0.9500   -2.6513   -2.7192 H   0  0  0  0  0  0  0  0  0  0  0  0
  5  6  2  0  0  0  0
  5  7  1  0  0  0  0
  2  3  1  0  0  0  0
  2  4  1  0  0  0  0
  2  5  1  0  0  0  0
  1  2  1  0  0  0  0
 25 26  2  0  0  0  0
 25 27  1  0  0  0  0
 23 24  1  0  0  0  0
 21 22  1  0  0  0  0
 21 23  2  0  0  0  0
 19 20  1  0  0  0  0
 19 21  1  0  0  0  0
 17 18  1  0  0  0  0
 17 19  2  0  0  0  0
 15 16  1  0  0  0  0
 15 17  1  0  0  0  0
 14 15  2  0  0  0  0
 14 23  1  0  0  0  0
 11 12  1  0  0  0  0
 11 13  1  0  0  0  0
 11 14  1  0  0  0  0
  9 10  1  0  0  0  0
  9 11  1  0  0  0  0
  9 25  1  0  0  0  0
  7  8  1  0  0  0  0
  7  9  1  0  0  0  0
 29 30  1  0  0  0  0
 29 31  1  0  0  0  0
 29 32  1  0  0  0  0
 27 28  1  0  0  0  0
 27 29  1  0  0  0  0
M  END
$$$$
default_name
  -OEChem-01062215323D

 32 32  0     1  0  0  0  0  0999 V2000
   -3.8405   -3.7518    1.6252 H   0  0  0  0  0  0  0  0  0  0  0  0
   -3.7965   -2.8768    0.9782 C   0  0  0  0  0  0  0  0  0  0  0  0
   -4.5465   -2.1527    1.2902 H   0  0  0  0  0  0  0  0  0  0  0  0
   -3.9745   -3.1748   -0.0538 H   0  0  0  0  0  0  0  0  0  0  0  0
   -2.4245   -2.2537    1.0882 C   0  0  0  0  0  0  0  0  0  0  0  0
   -1.5805   -2.7478    1.8242 O   0  0  0  0  0  0  0  0  0  0  0  0
   -2.2045   -1.1637    0.3562 N   0  0  0  0  0  0  0  0  0  0  0  0
   -2.9595   -0.7907   -0.2008 H   0  0  0  0  0  0  0  0  0  0  0  0
   -0.9485   -0.4087    0.3482 C   0  0  1  0  0  0  0  0  0  0  0  0
   -1.1210    0.5490   -0.1454 H   0  0  0  0  0  0  0  0  0  0  0  0
   -0.5110   -0.1347    1.7973 C   0  0  0  0  0  0  0  0  0  0  0  0
   -0.4744   -1.0792    2.3419 H   0  0  0  0  0  0  0  0  0  0  0  0
    0.4987    0.2785    1.7898 H   0  0  0  0  0  0  0  0  0  0  0  0
   -1.4316    0.8068    2.5503 C   0  0  0  0  0  0  0  0  0  0  0  0
   -1.3238    2.1998    2.3772 C   0  0  0  0  0  0  0  0  0  0  0  0
   -0.5672    2.6084    1.7222 H   0  0  0  0  0  0  0  0  0  0  0  0
   -2.2082    3.0649    3.0475 C   0  0  0  0  0  0  0  0  0  0  0  0
   -2.1221    4.1343    2.9151 H   0  0  0  0  0  0  0  0  0  0  0  0
   -3.2026    2.5392    3.8899 C   0  0  0  0  0  0  0  0  0  0  0  0
   -3.8806    3.2040    4.4066 H   0  0  0  0  0  0  0  0  0  0  0  0
   -3.3120    1.1478    4.0662 C   0  0  0  0  0  0  0  0  0  0  0  0
   -4.0728    0.7439    4.7179 H   0  0  0  0  0  0  0  0  0  0  0  0
   -2.4259    0.2837    3.3988 C   0  0  0  0  0  0  0  0  0  0  0  0
   -2.5090   -0.7863    3.5380 H   0  0  0  0  0  0  0  0  0  0  0  0
    0.1368   -1.1564   -0.4471 C   0  0  0  0  0  0  0  0  0  0  0  0
    1.3189   -0.8255   -0.3439 O   0  0  0  0  0  0  0  0  0  0  0  0
   -0.2608   -2.1577   -1.2424 N   0  0  0  0  0  0  0  0  0  0  0  0
   -1.2515   -2.3320   -1.3160 H   0  0  0  0  0  0  0  0  0  0  0  0
    0.6394   -2.9587   -2.0684 C   0  0  0  0  0  0  0  0  0  0  0  0
    1.4525   -3.3520   -1.4547 H   0  0  0  0  0  0  0  0  0  0  0  0
    0.0968   -3.7890   -2.5212 H   0  0  0  0  0  0  0  0  0  0  0  0
    1.0674   -2.3354   -2.8559 H   0  0  0  0  0  0  0  0  0  0  0  0
  5  6  2  0  0  0  0
  5  7  1  0  0  0  0
  2  3  1  0  0  0  0
  2  4  1  0  0  0  0
  2  5  1  0  0  0  0
  1  2  1  0  0  0  0
 25 26  2  0  0  0  0
 25 27  1  0  0  0  0
 23 24  1  0  0  0  0
 21 22  1  0  0  0  0
 21 23  2  0  0  0  0
 19 20  1  0  0  0  0
 19 21  1  0  0  0  0
 17 18  1  0  0  0  0
 17 19  2  0  0  0  0
 15 16  1  0  0  0  0
 15 17  1  0  0  0  0
 14 15  2  0  0  0  0
 14 23  1  0  0  0  0
 11 12  1  0  0  0  0
 11 13  1  0  0  0  0
 11 14  1  0  0  0  0
  9 10  1  0  0  0  0
  9 11  1  0  0  0  0
  9 25  1  0  0  0  0
  7  8  1  0  0  0  0
  7  9  1  0  0  0  0
 29 30  1  0  0  0  0
 29 31  1  0  0  0  0
 29 32  1  0  0  0  0
 27 28  1  0  0  0  0
 27 29  1  0  0  0  0
M  END
$$$$
default_name
  -OEChem-01062215323D

 32 32  0     1  0  0  0  0  0999 V2000
   -3.8405   -3.7518    1.6252 H   0  0  0  0  0  0  0  0  0  0  0  0
   -3.7965   -2.8768    0.9782 C   0  0  0  0  0  0  0  0  0  0  0  0
   -4.5465   -2.1527    1.2902 H   0  0  0  0  0  0  0  0  0  0  0  0
   -3.9745   -3.1748   -0.0538 H   0  0  0  0  0  0  0  0  0  0  0  0
   -2.4245   -2.2537    1.0882 C   0  0  0  0  0  0  0  0  0  0  0  0
   -1.5805   -2.7478    1.8242 O   0  0  0  0  0  0  0  0  0  0  0  0
   -2.2045   -1.1637    0.3562 N   0  0  0  0  0  0  0  0  0  0  0  0
   -2.9595   -0.7907   -0.2008 H   0  0  0  0  0  0  0  0  0  0  0  0
   -0.9485   -0.4087    0.3482 C   0  0  1  0  0  0  0  0  0  0  0  0
   -1.1210    0.5490   -0.1454 H   0  0  0  0  0  0  0  0  0  0  0  0
   -0.5110   -0.1347    1.7973 C   0  0  0  0  0  0  0  0  0  0  0  0
   -0.4744   -1.0792    2.3419 H   0  0  0  0  0  0  0  0  0  0  0  0
    0.4987    0.2785    1.7898 H   0  0  0  0  0  0  0  0  0  0  0  0
   -1.4316    0.8068    2.5503 C   0  0  0  0  0  0  0  0  0  0  0  0
   -1.3238    2.1998    2.3772 C   0  0  0  0  0  0  0  0  0  0  0  0
   -0.5672    2.6084    1.7222 H   0  0  0  0  0  0  0  0  0  0  0  0
   -2.2082    3.0649    3.0475 C   0  0  0  0  0  0  0  0  0  0  0  0
   -2.1221    4.1343    2.9151 H   0  0  0  0  0  0  0  0  0  0  0  0
   -3.2026    2.5392    3.8899 C   0  0  0  0  0  0  0  0  0  0  0  0
   -3.8806    3.2040    4.4066 H   0  0  0  0  0  0  0  0  0  0  0  0
   -3.3120    1.1478    4.0662 C   0  0  0  0  0  0  0  0  0  0  0  0
   -4.0728    0.7439    4.7179 H   0  0  0  0  0  0  0  0  0  0  0  0
   -2.4259    0.2837    3.3988 C   0  0  0  0  0  0  0  0  0  0  0  0
   -2.5090   -0.7863    3.5380 H   0  0  0  0  0  0  0  0  0  0  0  0
    0.1368   -1.1564   -0.4471 C   0  0  0  0  0  0  0  0  0  0  0  0
    1.3248   -1.0239   -0.1493 O   0  0  0  0  0  0  0  0  0  0  0  0
   -0.2663   -1.9355   -1.4588 N   0  0  0  0  0  0  0  0  0  0  0  0
   -1.2512   -1.9484   -1.6762 H   0  0  0  0  0  0  0  0  0  0  0  0
    0.6348   -2.7028   -2.3153 C   0  0  0  0  0  0  0  0  0  0  0  0
    1.3012   -3.3109   -1.6999 H   0  0  0  0  0  0  0  0  0  0  0  0
    0.0627   -3.3539   -2.9769 H   0  0  0  0  0  0  0  0  0  0  0  0
    1.2403   -2.0210   -2.9155 H   0  0  0  0  0  0  0  0  0  0  0  0
  5  6  2  0  0  0  0
  5  7  1  0  0  0  0
  2  3  1  0  0  0  0
  2  4  1  0  0  0  0
  2  5  1  0  0  0  0
  1  2  1  0  0  0  0
 25 26  2  0  0  0  0
 25 27  1  0  0  0  0
 23 24  1  0  0  0  0
 21 22  1  0  0  0  0
 21 23  2  0  0  0  0
 19 20  1  0  0  0  0
 19 21  1  0  0  0  0
 17 18  1  0  0  0  0
 17 19  2  0  0  0  0
 15 16  1  0  0  0  0
 15 17  1  0  0  0  0
 14 15  2  0  0  0  0
 14 23  1  0  0  0  0
 11 12  1  0  0  0  0
 11 13  1  0  0  0  0
 11 14  1  0  0  0  0
  9 10  1  0  0  0  0
  9 11  1  0  0  0  0
  9 25  1  0  0  0  0
  7  8  1  0  0  0  0
  7  9  1  0  0  0  0
 29 30  1  0  0  0  0
 29 31  1  0  0  0  0
 29 32  1  0  0  0  0
 27 28  1  0  0  0  0
 27 29  1  0  0  0  0
M  END
$$$$
default_name
  -OEChem-01062215323D

 32 32  0     1  0  0  0  0  0999 V2000
   -3.8405   -3.7518    1.6252 H   0  0  0  0  0  0  0  0  0  0  0  0
   -3.7965   -2.8768    0.9782 C   0  0  0  0  0  0  0  0  0  0  0  0
   -4.5465   -2.1527    1.2902 H   0  0  0  0  0  0  0  0  0  0  0  0
   -3.9745   -3.1748   -0.0538 H   0  0  0  0  0  0  0  0  0  0  0  0
   -2.4245   -2.2537    1.0882 C   0  0  0  0  0  0  0  0  0  0  0  0
   -1.5805   -2.7478    1.8242 O   0  0  0  0  0  0  0  0  0  0  0  0
   -2.2045   -1.1637    0.3562 N   0  0  0  0  0  0  0  0  0  0  0  0
   -2.9595   -0.7907   -0.2008 H   0  0  0  0  0  0  0  0  0  0  0  0
   -0.9485   -0.4087    0.3482 C   0  0  1  0  0  0  0  0  0  0  0  0
   -1.1210    0.5490   -0.1454 H   0  0  0  0  0  0  0  0  0  0  0  0
   -0.5110   -0.1347    1.7973 C   0  0  0  0  0  0  0  0  0  0  0  0
   -0.4744   -1.0792    2.3419 H   0  0  0  0  0  0  0  0  0  0  0  0
    0.4987    0.2785    1.7898 H   0  0  0  0  0  0  0  0  0  0  0  0
   -1.4316    0.8068    2.5503 C   0  0  0  0  0  0  0  0  0  0  0  0
   -1.3238    2.1998    2.3772 C   0  0  0  0  0  0  0  0  0  0  0  0
   -0.5672    2.6084    1.7222 H   0  0  0  0  0  0  0  0  0  0  0  0
   -2.2082    3.0649    3.0475 C   0  0  0  0  0  0  0  0  0  0  0  0
   -2.1221    4.1343    2.9151 H   0  0  0  0  0  0  0  0  0  0  0  0
   -3.2026    2.5392    3.8899 C   0  0  0  0  0  0  0  0  0  0  0  0
   -3.8806    3.2040    4.4066 H   0  0  0  0  0  0  0  0  0  0  0  0
   -3.3120    1.1478    4.0662 C   0  0  0  0  0  0  0  0  0  0  0  0
   -4.0728    0.7439    4.7179 H   0  0  0  0  0  0  0  0  0  0  0  0
   -2.4259    0.2837    3.3988 C   0  0  0  0  0  0  0  0  0  0  0  0
   -2.5090   -0.7863    3.5380 H   0  0  0  0  0  0  0  0  0  0  0  0
    0.1368   -1.1564   -0.4471 C   0  0  0  0  0  0  0  0  0  0  0  0
    1.2795   -1.2518    0.0031 O   0  0  0  0  0  0  0  0  0  0  0  0
   -0.2147   -1.6806   -1.6281 N   0  0  0  0  0  0  0  0  0  0  0  0
   -1.1543   -1.5122   -1.9540 H   0  0  0  0  0  0  0  0  0  0  0  0
    0.6956   -2.4100   -2.5076 C   0  0  0  0  0  0  0  0  0  0  0  0
    1.1913   -3.2062   -1.9482 H   0  0  0  0  0  0  0  0  0  0  0  0
    0.1452   -2.8459   -3.3419 H   0  0  0  0  0  0  0  0  0  0  0  0
    1.4568   -1.7296   -2.8940 H   0  0  0  0  0  0  0  0  0  0  0  0
  5  6  2  0  0  0  0
  5  7  1  0  0  0  0
  2  3  1  0  0  0  0
  2  4  1  0  0  0  0
  2  5  1  0  0  0  0
  1  2  1  0  0  0  0
 25 26  2  0  0  0  0
 25 27  1  0  0  0  0
 23 24  1  0  0  0  0
 21 22  1  0  0  0  0
 21 23  2  0  0  0  0
 19 20  1  0  0  0  0
 19 21  1  0  0  0  0
 17 18  1  0  0  0  0
 17 19  2  0  0  0  0
 15 16  1  0  0  0  0
 15 17  1  0  0  0  0
 14 15  2  0  0  0  0
 14 23  1  0  0  0  0
 11 12  1  0  0  0  0
 11 13  1  0  0  0  0
 11 14  1  0  0  0  0
  9 10  1  0  0  0  0
  9 11  1  0  0  0  0
  9 25  1  0  0  0  0
  7  8  1  0  0  0  0
  7  9  1  0  0  0  0
 29 30  1  0  0  0  0
 29 31  1  0  0  0  0
 29 32  1  0  0  0  0
 27 28  1  0  0  0  0
 27 29  1  0  0  0  0
M  END
$$$$
default_name
  -OEChem-01062215323D

 32 32  0     1  0  0  0  0  0999 V2000
   -3.8405   -3.7518    1.6252 H   0  0  0  0  0  0  0  0  0  0  0  0
   -3.7965   -2.8768    0.9782 C   0  0  0  0  0  0  0  0  0  0  0  0
   -4.5465   -2.1527    1.2902 H   0  0  0  0  0  0  0  0  0  0  0  0
   -3.9745   -3.1748   -0.0538 H   0  0  0  0  0  0  0  0  0  0  0  0
   -2.4245   -2.2537    1.0882 C   0  0  0  0  0  0  0  0  0  0  0  0
   -1.5805   -2.7478    1.8242 O   0  0  0  0  0  0  0  0  0  0  0  0
   -2.2045   -1.1637    0.3562 N   0  0  0  0  0  0  0  0  0  0  0  0
   -2.9595   -0.7907   -0.2008 H   0  0  0  0  0  0  0  0  0  0  0  0
   -0.9485   -0.4087    0.3482 C   0  0  1  0  0  0  0  0  0  0  0  0
   -1.1210    0.5490   -0.1454 H   0  0  0  0  0  0  0  0  0  0  0  0
   -0.5110   -0.1347    1.7973 C   0  0  0  0  0  0  0  0  0  0  0  0
   -0.4744   -1.0792    2.3419 H   0  0  0  0  0  0  0  0  0  0  0  0
    0.4987    0.2785    1.7898 H   0  0  0  0  0  0  0  0  0  0  0  0
   -1.4316    0.8068    2.5503 C   0  0  0  0  0  0  0  0  0  0  0  0
   -1.3238    2.1998    2.3772 C   0  0  0  0  0  0  0  0  0  0  0  0
   -0.5672    2.6084    1.7222 H   0  0  0  0  0  0  0  0  0  0  0  0
   -2.2082    3.0649    3.0475 C   0  0  0  0  0  0  0  0  0  0  0  0
   -2.1221    4.1343    2.9151 H   0  0  0  0  0  0  0  0  0  0  0  0
   -3.2026    2.5392    3.8899 C   0  0  0  0  0  0  0  0  0  0  0  0
   -3.8806    3.2040    4.4066 H   0  0  0  0  0  0  0  0  0  0  0  0
   -3.3120    1.1478    4.0662 C   0  0  0  0  0  0  0  0  0  0  0  0
   -4.0728    0.7439    4.7179 H   0  0  0  0  0  0  0  0  0  0  0  0
   -2.4259    0.2837    3.3988 C   0  0  0  0  0  0  0  0  0  0  0  0
   -2.5090   -0.7863    3.5380 H   0  0  0  0  0  0  0  0  0  0  0  0
    0.1368   -1.1564   -0.4471 C   0  0  0  0  0  0  0  0  0  0  0  0
    1.1861   -1.4938    0.1031 O   0  0  0  0  0  0  0  0  0  0  0  0
   -0.1096   -1.4104   -1.7385 N   0  0  0  0  0  0  0  0  0  0  0  0
   -0.9674   -1.0531   -2.1307 H   0  0  0  0  0  0  0  0  0  0  0  0
    0.8176   -2.1002   -2.6323 C   0  0  0  0  0  0  0  0  0  0  0  0
    1.1304   -3.0450   -2.1829 H   0  0  0  0  0  0  0  0  0  0  0  0
    0.3387   -2.2996   -3.5914 H   0  0  0  0  0  0  0  0  0  0  0  0
    1.7022   -1.4809   -2.7929 H   0  0  0  0  0  0  0  0  0  0  0  0
  5  6  2  0  0  0  0
  5  7  1  0  0  0  0
  2  3  1  0  0  0  0
  2  4  1  0  0  0  0
  2  5  1  0  0  0  0
  1  2  1  0  0  0  0
 25 26  2  0  0  0  0
 25 27  1  0  0  0  0
 23 24  1  0  0  0  0
 21 22  1  0  0  0  0
 21 23  2  0  0  0  0
 19 20  1  0  0  0  0
 19 21  1  0  0  0  0
 17 18  1  0  0  0  0
 17 19  2  0  0  0  0
 15 16  1  0  0  0  0
 15 17  1  0  0  0  0
 14 15  2  0  0  0  0
 14 23  1  0  0  0  0
 11 12  1  0  0  0  0
 11 13  1  0  0  0  0
 11 14  1  0  0  0  0
  9 10  1  0  0  0  0
  9 11  1  0  0  0  0
  9 25  1  0  0  0  0
  7  8  1  0  0  0  0
  7  9  1  0  0  0  0
 29 30  1  0  0  0  0
 29 31  1  0  0  0  0
 29 32  1  0  0  0  0
 27 28  1  0  0  0  0
 27 29  1  0  0  0  0
M  END
$$$$
default_name
  -OEChem-01062215323D

 32 32  0     1  0  0  0  0  0999 V2000
   -3.8405   -3.7518    1.6252 H   0  0  0  0  0  0  0  0  0  0  0  0
   -3.7965   -2.8768    0.9782 C   0  0  0  0  0  0  0  0  0  0  0  0
   -4.5465   -2.1527    1.2902 H   0  0  0  0  0  0  0  0  0  0  0  0
   -3.9745   -3.1748   -0.0538 H   0  0  0  0  0  0  0  0  0  0  0  0
   -2.4245   -2.2537    1.0882 C   0  0  0  0  0  0  0  0  0  0  0  0
   -1.5805   -2.7478    1.8242 O   0  0  0  0  0  0  0  0  0  0  0  0
   -2.2045   -1.1637    0.3562 N   0  0  0  0  0  0  0  0  0  0  0  0
   -2.9595   -0.7907   -0.2008 H   0  0  0  0  0  0  0  0  0  0  0  0
   -0.9485   -0.4087    0.3482 C   0  0  1  0  0  0  0  0  0  0  0  0
   -1.1210    0.5490   -0.1454 H   0  0  0  0  0  0  0  0  0  0  0  0
   -0.5110   -0.1347    1.7973 C   0  0  0  0  0  0  0  0  0  0  0  0
   -0.4744   -1.0792    2.3419 H   0  0  0  0  0  0  0  0  0  0  0  0
    0.4987    0.2785    1.7898 H   0  0  0  0  0  0  0  0  0  0  0  0
   -1.4316    0.8068    2.5503 C   0  0  0  0  0  0  0  0  0  0  0  0
   -1.3238    2.1998    2.3772 C   0  0  0  0  0  0  0  0  0  0  0  0
   -0.5672    2.6084    1.7222 H   0  0  0  0  0  0  0  0  0  0  0  0
   -2.2082    3.0649    3.0475 C   0  0  0  0  0  0  0  0  0  0  0  0
   -2.1221    4.1343    2.9151 H   0  0  0  0  0  0  0  0  0  0  0  0
   -3.2026    2.5392    3.8899 C   0  0  0  0  0  0  0  0  0  0  0  0
   -3.8806    3.2040    4.4066 H   0  0  0  0  0  0  0  0  0  0  0  0
   -3.3120    1.1478    4.0662 C   0  0  0  0  0  0  0  0  0  0  0  0
   -4.0728    0.7439    4.7179 H   0  0  0  0  0  0  0  0  0  0  0  0
   -2.4259    0.2837    3.3988 C   0  0  0  0  0  0  0  0  0  0  0  0
   -2.5090   -0.7863    3.5380 H   0  0  0  0  0  0  0  0  0  0  0  0
    0.1368   -1.1564   -0.4471 C   0  0  0  0  0  0  0  0  0  0  0  0
    1.0509   -1.7333    0.1438 O   0  0  0  0  0  0  0  0  0  0  0  0
    0.0420   -1.1433   -1.7827 N   0  0  0  0  0  0  0  0  0  0  0  0
   -0.7033   -0.6024   -2.1940 H   0  0  0  0  0  0  0  0  0  0  0  0
    0.9926   -1.7945   -2.6809 C   0  0  0  0  0  0  0  0  0  0  0  0
    1.1227   -2.8384   -2.3877 H   0  0  0  0  0  0  0  0  0  0  0  0
    0.6300   -1.7522   -3.7083 H   0  0  0  0  0  0  0  0  0  0  0  0
    1.9598   -1.2921   -2.6189 H   0  0  0  0  0  0  0  0  0  0  0  0
  5  6  2  0  0  0  0
  5  7  1  0  0  0  0
  2  3  1  0  0  0  0
  2  4  1  0  0  0  0
  2  5  1  0  0  0  0
  1  2  1  0  0  0  0
 25 26  2  0  0  0  0
 25 27  1  0  0  0  0
 23 24  1  0  0  0  0
 21 22  1  0  0  0  0
 21 23  2  0  0  0  0
 19 20  1  0  0  0  0
 19 21  1  0  0  0  0
 17 18  1  0  0  0  0
 17 19  2  0  0  0  0
 15 16  1  0  0  0  0
 15 17  1  0  0  0  0
 14 15  2  0  0  0  0
 14 23  1  0  0  0  0
 11 12  1  0  0  0  0
 11 13  1  0  0  0  0
 11 14  1  0  0  0  0
  9 10  1  0  0  0  0
  9 11  1  0  0  0  0
  9 25  1  0  0  0  0
  7  8  1  0  0  0  0
  7  9  1  0  0  0  0
 29 30  1  0  0  0  0
 29 31  1  0  0  0  0
 29 32  1  0  0  0  0
 27 28  1  0  0  0  0
 27 29  1  0  0  0  0
M  END
$$$$
default_name
  -OEChem-01062215323D

 32 32  0     1  0  0  0  0  0999 V2000
   -3.8405   -3.7518    1.6252 H   0  0  0  0  0  0  0  0  0  0  0  0
   -3.7965   -2.8768    0.9782 C   0  0  0  0  0  0  0  0  0  0  0  0
   -4.5465   -2.1527    1.2902 H   0  0  0  0  0  0  0  0  0  0  0  0
   -3.9745   -3.1748   -0.0538 H   0  0  0  0  0  0  0  0  0  0  0  0
   -2.4245   -2.2537    1.0882 C   0  0  0  0  0  0  0  0  0  0  0  0
   -1.5805   -2.7478    1.8242 O   0  0  0  0  0  0  0  0  0  0  0  0
   -2.2045   -1.1637    0.3562 N   0  0  0  0  0  0  0  0  0  0  0  0
   -2.9595   -0.7907   -0.2008 H   0  0  0  0  0  0  0  0  0  0  0  0
   -0.9485   -0.4087    0.3482 C   0  0  1  0  0  0  0  0  0  0  0  0
   -1.1210    0.5490   -0.1454 H   0  0  0  0  0  0  0  0  0  0  0  0
   -0.5110   -0.1347    1.7973 C   0  0  0  0  0  0  0  0  0  0  0  0
   -0.4744   -1.0792    2.3419 H   0  0  0  0  0  0  0  0  0  0  0  0
    0.4987    0.2785    1.7898 H   0  0  0  0  0  0  0  0  0  0  0  0
   -1.4316    0.8068    2.5503 C   0  0  0  0  0  0  0  0  0  0  0  0
   -1.3238    2.1998    2.3772 C   0  0  0  0  0  0  0  0  0  0  0  0
   -0.5672    2.6084    1.7222 H   0  0  0  0  0  0  0  0  0  0  0  0
   -2.2082    3.0649    3.0475 C   0  0  0  0  0  0  0  0  0  0  0  0
   -2.1221    4.1343    2.9151 H   0  0  0  0  0  0  0  0  0  0  0  0
   -3.2026    2.5392    3.8899 C   0  0  0  0  0  0  0  0  0  0  0  0
   -3.8806    3.2040    4.4066 H   0  0  0  0  0  0  0  0  0  0  0  0
   -3.3120    1.1478    4.0662 C   0  0  0  0  0  0  0  0  0  0  0  0
   -4.0728    0.7439    4.7179 H   0  0  0  0  0  0  0  0  0  0  0  0
   -2.4259    0.2837    3.3988 C   0  0  0  0  0  0  0  0  0  0  0  0
   -2.5090   -0.7863    3.5380 H   0  0  0  0  0  0  0  0  0  0  0  0
    0.1368   -1.1564   -0.4471 C   0  0  0  0  0  0  0  0  0  0  0  0
    0.8832   -1.9539    0.1224 O   0  0  0  0  0  0  0  0  0  0  0  0
    0.2297   -0.8976   -1.7576 N   0  0  0  0  0  0  0  0  0  0  0  0
   -0.3800   -0.1908   -2.1397 H   0  0  0  0  0  0  0  0  0  0  0  0
    1.2086   -1.5138   -2.6500 C   0  0  0  0  0  0  0  0  0  0  0  0
    1.1685   -2.6004   -2.5489 H   0  0  0  0  0  0  0  0  0  0  0  0
    0.9993   -1.2412   -3.6848 H   0  0  0  0  0  0  0  0  0  0  0  0
    2.2120   -1.1758   -2.3840 H   0  0  0  0  0  0  0  0  0  0  0  0
  5  6  2  0  0  0  0
  5  7  1  0  0  0  0
  2  3  1  0  0  0  0
  2  4  1  0  0  0  0
  2  5  1  0  0  0  0
  1  2  1  0  0  0  0
 25 26  2  0  0  0  0
 25 27  1  0  0  0  0
 23 24  1  0  0  0  0
 21 22  1  0  0  0  0
 21 23  2  0  0  0  0
 19 20  1  0  0  0  0
 19 21  1  0  0  0  0
 17 18  1  0  0  0  0
 17 19  2  0  0  0  0
 15 16  1  0  0  0  0
 15 17  1  0  0  0  0
 14 15  2  0  0  0  0
 14 23  1  0  0  0  0
 11 12  1  0  0  0  0
 11 13  1  0  0  0  0
 11 14  1  0  0  0  0
  9 10  1  0  0  0  0
  9 11  1  0  0  0  0
  9 25  1  0  0  0  0
  7  8  1  0  0  0  0
  7  9  1  0  0  0  0
 29 30  1  0  0  0  0
 29 31  1  0  0  0  0
 29 32  1  0  0  0  0
 27 28  1  0  0  0  0
 27 29  1  0  0  0  0
M  END
$$$$
default_name
  -OEChem-01062215323D

 32 32  0     1  0  0  0  0  0999 V2000
   -3.8405   -3.7518    1.6252 H   0  0  0  0  0  0  0  0  0  0  0  0
   -3.7965   -2.8768    0.9782 C   0  0  0  0  0  0  0  0  0  0  0  0
   -4.5465   -2.1527    1.2902 H   0  0  0  0  0  0  0  0  0  0  0  0
   -3.9745   -3.1748   -0.0538 H   0  0  0  0  0  0  0  0  0  0  0  0
   -2.4245   -2.2537    1.0882 C   0  0  0  0  0  0  0  0  0  0  0  0
   -1.5805   -2.7478    1.8242 O   0  0  0  0  0  0  0  0  0  0  0  0
   -2.2045   -1.1637    0.3562 N   0  0  0  0  0  0  0  0  0  0  0  0
   -2.9595   -0.7907   -0.2008 H   0  0  0  0  0  0  0  0  0  0  0  0
   -0.9485   -0.4087    0.3482 C   0  0  1  0  0  0  0  0  0  0  0  0
   -1.1210    0.5490   -0.1454 H   0  0  0  0  0  0  0  0  0  0  0  0
   -0.5110   -0.1347    1.7973 C   0  0  0  0  0  0  0  0  0  0  0  0
   -0.4744   -1.0792    2.3419 H   0  0  0  0  0  0  0  0  0  0  0  0
    0.4987    0.2785    1.7898 H   0  0  0  0  0  0  0  0  0  0  0  0
   -1.4316    0.8068    2.5503 C   0  0  0  0  0  0  0  0  0  0  0  0
   -1.3238    2.1998    2.3772 C   0  0  0  0  0  0  0  0  0  0  0  0
   -0.5672    2.6084    1.7222 H   0  0  0  0  0  0  0  0  0  0  0  0
   -2.2082    3.0649    3.0475 C   0  0  0  0  0  0  0  0  0  0  0  0
   -2.1221    4.1343    2.9151 H   0  0  0  0  0  0  0  0  0  0  0  0
   -3.2026    2.5392    3.8899 C   0  0  0  0  0  0  0  0  0  0  0  0
   -3.8806    3.2040    4.4066 H   0  0  0  0  0  0  0  0  0  0  0  0
   -3.3120    1.1478    4.0662 C   0  0  0  0  0  0  0  0  0  0  0  0
   -4.0728    0.7439    4.7179 H   0  0  0  0  0  0  0  0  0  0  0  0
   -2.4259    0.2837    3.3988 C   0  0  0  0  0  0  0  0  0  0  0  0
   -2.5090   -0.7863    3.5380 H   0  0  0  0  0  0  0  0  0  0  0  0
    0.1368   -1.1564   -0.4471 C   0  0  0  0  0  0  0  0  0  0  0  0
    0.6944   -2.1407    0.0404 O   0  0  0  0  0  0  0  0  0  0  0  0
    0.4408   -0.6899   -1.6649 N   0  0  0  0  0  0  0  0  0  0  0  0
   -0.0195    0.1536   -1.9715 H   0  0  0  0  0  0  0  0  0  0  0  0
    1.4509   -1.2771   -2.5419 C   0  0  0  0  0  0  0  0  0  0  0  0
    1.2649   -2.3472   -2.6553 H   0  0  0  0  0  0  0  0  0  0  0  0
    1.4214   -0.8012   -3.5224 H   0  0  0  0  0  0  0  0  0  0  0  0
    2.4416   -1.1401   -2.1042 H   0  0  0  0  0  0  0  0  0  0  0  0
  5  6  2  0  0  0  0
  5  7  1  0  0  0  0
  2  3  1  0  0  0  0
  2  4  1  0  0  0  0
  2  5  1  0  0  0  0
  1  2  1  0  0  0  0
 25 26  2  0  0  0  0
 25 27  1  0  0  0  0
 23 24  1  0  0  0  0
 21 22  1  0  0  0  0
 21 23  2  0  0  0  0
 19 20  1  0  0  0  0
 19 21  1  0  0  0  0
 17 18  1  0  0  0  0
 17 19  2  0  0  0  0
 15 16  1  0  0  0  0
 15 17  1  0  0  0  0
 14 15  2  0  0  0  0
 14 23  1  0  0  0  0
 11 12  1  0  0  0  0
 11 13  1  0  0  0  0
 11 14  1  0  0  0  0
  9 10  1  0  0  0  0
  9 11  1  0  0  0  0
  9 25  1  0  0  0  0
  7  8  1  0  0  0  0
  7  9  1  0  0  0  0
 29 30  1  0  0  0  0
 29 31  1  0  0  0  0
 29 32  1  0  0  0  0
 27 28  1  0  0  0  0
 27 29  1  0  0  0  0
M  END
$$$$
default_name
  -OEChem-01062215323D

 32 32  0     1  0  0  0  0  0999 V2000
   -3.8405   -3.7518    1.6252 H   0  0  0  0  0  0  0  0  0  0  0  0
   -3.7965   -2.8768    0.9782 C   0  0  0  0  0  0  0  0  0  0  0  0
   -4.5465   -2.1527    1.2902 H   0  0  0  0  0  0  0  0  0  0  0  0
   -3.9745   -3.1748   -0.0538 H   0  0  0  0  0  0  0  0  0  0  0  0
   -2.4245   -2.2537    1.0882 C   0  0  0  0  0  0  0  0  0  0  0  0
   -1.5805   -2.7478    1.8242 O   0  0  0  0  0  0  0  0  0  0  0  0
   -2.2045   -1.1637    0.3562 N   0  0  0  0  0  0  0  0  0  0  0  0
   -2.9595   -0.7907   -0.2008 H   0  0  0  0  0  0  0  0  0  0  0  0
   -0.9485   -0.4087    0.3482 C   0  0  1  0  0  0  0  0  0  0  0  0
   -1.1210    0.5490   -0.1454 H   0  0  0  0  0  0  0  0  0  0  0  0
   -0.5110   -0.1347    1.7973 C   0  0  0  0  0  0  0  0  0  0  0  0
   -0.4744   -1.0792    2.3419 H   0  0  0  0  0  0  0  0  0  0  0  0
    0.4987    0.2785    1.7898 H   0  0  0  0  0  0  0  0  0  0  0  0
   -1.4316    0.8068    2.5503 C   0  0  0  0  0  0  0  0  0  0  0  0
   -1.3238    2.1998    2.3772 C   0  0  0  0  0  0  0  0  0  0  0  0
   -0.5672    2.6084    1.7222 H   0  0  0  0  0  0  0  0  0  0  0  0
   -2.2082    3.0649    3.0475 C   0  0  0  0  0  0  0  0  0  0  0  0
   -2.1221    4.1343    2.9151 H   0  0  0  0  0  0  0  0  0  0  0  0
   -3.2026    2.5392    3.8899 C   0  0  0  0  0  0  0  0  0  0  0  0
   -3.8806    3.2040    4.4066 H   0  0  0  0  0  0  0  0  0  0  0  0
   -3.3120    1.1478    4.0662 C   0  0  0  0  0  0  0  0  0  0  0  0
   -4.0728    0.7439    4.7179 H   0  0  0  0  0  0  0  0  0  0  0  0
   -2.4259    0.2837    3.3988 C   0  0  0  0  0  0  0  0  0  0  0  0
   -2.5090   -0.7863    3.5380 H   0  0  0  0  0  0  0  0  0  0  0  0
    0.1368   -1.1564   -0.4471 C   0  0  0  0  0  0  0  0  0  0  0  0
    0.4974   -2.2810   -0.0966 O   0  0  0  0  0  0  0  0  0  0  0  0
    0.6607   -0.5344   -1.5109 N   0  0  0  0  0  0  0  0  0  0  0  0
    0.3536    0.4074   -1.7009 H   0  0  0  0  0  0  0  0  0  0  0  0
    1.7030   -1.1006   -2.3637 C   0  0  0  0  0  0  0  0  0  0  0  0
    1.4053   -2.0961   -2.6998 H   0  0  0  0  0  0  0  0  0  0  0  0
    1.8676   -0.4623   -3.2322 H   0  0  0  0  0  0  0  0  0  0  0  0
    2.6330   -1.1874   -1.7986 H   0  0  0  0  0  0  0  0  0  0  0  0
  5  6  2  0  0  0  0
  5  7  1  0  0  0  0
  2  3  1  0  0  0  0
  2  4  1  0  0  0  0
  2  5  1  0  0  0  0
  1  2  1  0  0  0  0
 25 26  2  0  0  0  0
 25 27  1  0  0  0  0
 23 24  1  0  0  0  0
 21 22  1  0  0  0  0
 21 23  2  0  0  0  0
 19 20  1  0  0  0  0
 19 21  1  0  0  0  0
 17 18  1  0  0  0  0
 17 19  2  0  0  0  0
 15 16  1  0  0  0  0
 15 17  1  0  0  0  0
 14 15  2  0  0  0  0
 14 23  1  0  0  0  0
 11 12  1  0  0  0  0
 11 13  1  0  0  0  0
 11 14  1  0  0  0  0
  9 10  1  0  0  0  0
  9 11  1  0  0  0  0
  9 25  1  0  0  0  0
  7  8  1  0  0  0  0
  7  9  1  0  0  0  0
 29 30  1  0  0  0  0
 29 31  1  0  0  0  0
 29 32  1  0  0  0  0
 27 28  1  0  0  0  0
 27 29  1  0  0  0  0
M  END
$$$$
default_name
  -OEChem-01062215323D

 32 32  0     1  0  0  0  0  0999 V2000
   -3.8405   -3.7518    1.6252 H   0  0  0  0  0  0  0  0  0  0  0  0
   -3.7965   -2.8768    0.9782 C   0  0  0  0  0  0  0  0  0  0  0  0
   -4.5465   -2.1527    1.2902 H   0  0  0  0  0  0  0  0  0  0  0  0
   -3.9745   -3.1748   -0.0538 H   0  0  0  0  0  0  0  0  0  0  0  0
   -2.4245   -2.2537    1.0882 C   0  0  0  0  0  0  0  0  0  0  0  0
   -1.5805   -2.7478    1.8242 O   0  0  0  0  0  0  0  0  0  0  0  0
   -2.2045   -1.1637    0.3562 N   0  0  0  0  0  0  0  0  0  0  0  0
   -2.9595   -0.7907   -0.2008 H   0  0  0  0  0  0  0  0  0  0  0  0
   -0.9485   -0.4087    0.3482 C   0  0  1  0  0  0  0  0  0  0  0  0
   -1.1210    0.5490   -0.1454 H   0  0  0  0  0  0  0  0  0  0  0  0
   -0.5110   -0.1347    1.7973 C   0  0  0  0  0  0  0  0  0  0  0  0
   -0.4744   -1.0792    2.3419 H   0  0  0  0  0  0  0  0  0  0  0  0
    0.4987    0.2785    1.7898 H   0  0  0  0  0  0  0  0  0  0  0  0
   -1.4316    0.8068    2.5503 C   0  0  0  0  0  0  0  0  0  0  0  0
   -1.3238    2.1998    2.3772 C   0  0  0  0  0  0  0  0  0  0  0  0
   -0.5672    2.6084    1.7222 H   0  0  0  0  0  0  0  0  0  0  0  0
   -2.2082    3.0649    3.0475 C   0  0  0  0  0  0  0  0  0  0  0  0
   -2.1221    4.1343    2.9151 H   0  0  0  0  0  0  0  0  0  0  0  0
   -3.2026    2.5392    3.8899 C   0  0  0  0  0  0  0  0  0  0  0  0
   -3.8806    3.2040    4.4066 H   0  0  0  0  0  0  0  0  0  0  0  0
   -3.3120    1.1478    4.0662 C   0  0  0  0  0  0  0  0  0  0  0  0
   -4.0728    0.7439    4.7179 H   0  0  0  0  0  0  0  0  0  0  0  0
   -2.4259    0.2837    3.3988 C   0  0  0  0  0  0  0  0  0  0  0  0
   -2.5090   -0.7863    3.5380 H   0  0  0  0  0  0  0  0  0  0  0  0
    0.1368   -1.1564   -0.4471 C   0  0  0  0  0  0  0  0  0  0  0  0
    0.3056   -2.3651   -0.2794 O   0  0  0  0  0  0  0  0  0  0  0  0
    0.8746   -0.4417   -1.3061 N   0  0  0  0  0  0  0  0  0  0  0  0
    0.7139    0.5532   -1.3463 H   0  0  0  0  0  0  0  0  0  0  0  0
    1.9477   -0.9964   -2.1277 C   0  0  0  0  0  0  0  0  0  0  0  0
    1.5800   -1.8642   -2.6794 H   0  0  0  0  0  0  0  0  0  0  0  0
    2.3073   -0.2476   -2.8339 H   0  0  0  0  0  0  0  0  0  0  0  0
    2.7731   -1.3144   -1.4879 H   0  0  0  0  0  0  0  0  0  0  0  0
  5  6  2  0  0  0  0
  5  7  1  0  0  0  0
  2  3  1  0  0  0  0
  2  4  1  0  0  0  0
  2  5  1  0  0  0  0
  1  2  1  0  0  0  0
 25 26  2  0  0  0  0
 25 27  1  0  0  0  0
 23 24  1  0  0  0  0
 21 22  1  0  0  0  0
 21 23  2  0  0  0  0
 19 20  1  0  0  0  0
 19 21  1  0  0  0  0
 17 18  1  0  0  0  0
 17 19  2  0  0  0  0
 15 16  1  0  0  0  0
 15 17  1  0  0  0  0
 14 15  2  0  0  0  0
 14 23  1  0  0  0  0
 11 12  1  0  0  0  0
 11 13  1  0  0  0  0
 11 14  1  0  0  0  0
  9 10  1  0  0  0  0
  9 11  1  0  0  0  0
  9 25  1  0  0  0  0
  7  8  1  0  0  0  0
  7  9  1  0  0  0  0
 29 30  1  0  0  0  0
 29 31  1  0  0  0  0
 29 32  1  0  0  0  0
 27 28  1  0  0  0  0
 27 29  1  0  0  0  0
M  END
$$$$
default_name
  -OEChem-01062215323D

 32 32  0     1  0  0  0  0  0999 V2000
   -3.8405   -3.7518    1.6252 H   0  0  0  0  0  0  0  0  0  0  0  0
   -3.7965   -2.8768    0.9782 C   0  0  0  0  0  0  0  0  0  0  0  0
   -4.5465   -2.1527    1.2902 H   0  0  0  0  0  0  0  0  0  0  0  0
   -3.9745   -3.1748   -0.0538 H   0  0  0  0  0  0  0  0  0  0  0  0
   -2.4245   -2.2537    1.0882 C   0  0  0  0  0  0  0  0  0  0  0  0
   -1.5805   -2.7478    1.8242 O   0  0  0  0  0  0  0  0  0  0  0  0
   -2.2045   -1.1637    0.3562 N   0  0  0  0  0  0  0  0  0  0  0  0
   -2.9595   -0.7907   -0.2008 H   0  0  0  0  0  0  0  0  0  0  0  0
   -0.9485   -0.4087    0.3482 C   0  0  1  0  0  0  0  0  0  0  0  0
   -1.1210    0.5490   -0.1454 H   0  0  0  0  0  0  0  0  0  0  0  0
   -0.5110   -0.1347    1.7973 C   0  0  0  0  0  0  0  0  0  0  0  0
   -0.4744   -1.0792    2.3419 H   0  0  0  0  0  0  0  0  0  0  0  0
    0.4987    0.2785    1.7898 H   0  0  0  0  0  0  0  0  0  0  0  0
   -1.4316    0.8068    2.5503 C   0  0  0  0  0  0  0  0  0  0  0  0
   -1.3238    2.1998    2.3772 C   0  0  0  0  0  0  0  0  0  0  0  0
   -0.5672    2.6084    1.7222 H   0  0  0  0  0  0  0  0  0  0  0  0
   -2.2082    3.0649    3.0475 C   0  0  0  0  0  0  0  0  0  0  0  0
   -2.1221    4.1343    2.9151 H   0  0  0  0  0  0  0  0  0  0  0  0
   -3.2026    2.5392    3.8899 C   0  0  0  0  0  0  0  0  0  0  0  0
   -3.8806    3.2040    4.4066 H   0  0  0  0  0  0  0  0  0  0  0  0
   -3.3120    1.1478    4.0662 C   0  0  0  0  0  0  0  0  0  0  0  0
   -4.0728    0.7439    4.7179 H   0  0  0  0  0  0  0  0  0  0  0  0
   -2.4259    0.2837    3.3988 C   0  0  0  0  0  0  0  0  0  0  0  0
   -2.5090   -0.7863    3.5380 H   0  0  0  0  0  0  0  0  0  0  0  0
    0.1368   -1.1564   -0.4471 C   0  0  0  0  0  0  0  0  0  0  0  0
    0.1320   -2.3873   -0.4954 O   0  0  0  0  0  0  0  0  0  0  0  0
    1.0678   -0.4181   -1.0646 N   0  0  0  0  0  0  0  0  0  0  0  0
    1.0369    0.5812   -0.9318 H   0  0  0  0  0  0  0  0  0  0  0  0
    2.1683   -0.9715   -1.8500 C   0  0  0  0  0  0  0  0  0  0  0  0
    1.7773   -1.6673   -2.5953 H   0  0  0  0  0  0  0  0  0  0  0  0
    2.7107   -0.1716   -2.3548 H   0  0  0  0  0  0  0  0  0  0  0  0
    2.8525   -1.5126   -1.1934 H   0  0  0  0  0  0  0  0  0  0  0  0
  5  6  2  0  0  0  0
  5  7  1  0  0  0  0
  2  3  1  0  0  0  0
  2  4  1  0  0  0  0
  2  5  1  0  0  0  0
  1  2  1  0  0  0  0
 25 26  2  0  0  0  0
 25 27  1  0  0  0  0
 23 24  1  0  0  0  0
 21 22  1  0  0  0  0
 21 23  2  0  0  0  0
 19 20  1  0  0  0  0
 19 21  1  0  0  0  0
 17 18  1  0  0  0  0
 17 19  2  0  0  0  0
 15 16  1  0  0  0  0
 15 17  1  0  0  0  0
 14 15  2  0  0  0  0
 14 23  1  0  0  0  0
 11 12  1  0  0  0  0
 11 13  1  0  0  0  0
 11 14  1  0  0  0  0
  9 10  1  0  0  0  0
  9 11  1  0  0  0  0
  9 25  1  0  0  0  0
  7  8  1  0  0  0  0
  7  9  1  0  0  0  0
 29 30  1  0  0  0  0
 29 31  1  0  0  0  0
 29 32  1  0  0  0  0
 27 28  1  0  0  0  0
 27 29  1  0  0  0  0
M  END
$$$$
default_name
  -OEChem-01062215323D

 32 32  0     1  0  0  0  0  0999 V2000
   -3.8405   -3.7518    1.6252 H   0  0  0  0  0  0  0  0  0  0  0  0
   -3.7965   -2.8768    0.9782 C   0  0  0  0  0  0  0  0  0  0  0  0
   -4.5465   -2.1527    1.2902 H   0  0  0  0  0  0  0  0  0  0  0  0
   -3.9745   -3.1748   -0.0538 H   0  0  0  0  0  0  0  0  0  0  0  0
   -2.4245   -2.2537    1.0882 C   0  0  0  0  0  0  0  0  0  0  0  0
   -1.5805   -2.7478    1.8242 O   0  0  0  0  0  0  0  0  0  0  0  0
   -2.2045   -1.1637    0.3562 N   0  0  0  0  0  0  0  0  0  0  0  0
   -2.9595   -0.7907   -0.2008 H   0  0  0  0  0  0  0  0  0  0  0  0
   -0.9485   -0.4087    0.3482 C   0  0  1  0  0  0  0  0  0  0  0  0
   -1.1210    0.5490   -0.1454 H   0  0  0  0  0  0  0  0  0  0  0  0
   -0.5110   -0.1347    1.7973 C   0  0  0  0  0  0  0  0  0  0  0  0
   -0.4744   -1.0792    2.3419 H   0  0  0  0  0  0  0  0  0  0  0  0
    0.4987    0.2785    1.7898 H   0  0  0  0  0  0  0  0  0  0  0  0
   -1.4316    0.8068    2.5503 C   0  0  0  0  0  0  0  0  0  0  0  0
   -1.3238    2.1998    2.3772 C   0  0  0  0  0  0  0  0  0  0  0  0
   -0.5672    2.6084    1.7222 H   0  0  0  0  0  0  0  0  0  0  0  0
   -2.2082    3.0649    3.0475 C   0  0  0  0  0  0  0  0  0  0  0  0
   -2.1221    4.1343    2.9151 H   0  0  0  0  0  0  0  0  0  0  0  0
   -3.2026    2.5392    3.8899 C   0  0  0  0  0  0  0  0  0  0  0  0
   -3.8806    3.2040    4.4066 H   0  0  0  0  0  0  0  0  0  0  0  0
   -3.3120    1.1478    4.0662 C   0  0  0  0  0  0  0  0  0  0  0  0
   -4.0728    0.7439    4.7179 H   0  0  0  0  0  0  0  0  0  0  0  0
   -2.4259    0.2837    3.3988 C   0  0  0  0  0  0  0  0  0  0  0  0
   -2.5090   -0.7863    3.5380 H   0  0  0  0  0  0  0  0  0  0  0  0
    0.1368   -1.1564   -0.4471 C   0  0  0  0  0  0  0  0  0  0  0  0
   -0.0115   -2.3462   -0.7298 O   0  0  0  0  0  0  0  0  0  0  0  0
    1.2273   -0.4653   -0.8026 N   0  0  0  0  0  0  0  0  0  0  0  0
    1.3005    0.4894   -0.4857 H   0  0  0  0  0  0  0  0  0  0  0  0
    2.3499   -1.0277   -1.5495 C   0  0  0  0  0  0  0  0  0  0  0  0
    1.9835   -1.5189   -2.4534 H   0  0  0  0  0  0  0  0  0  0  0  0
    3.0503   -0.2397   -1.8273 H   0  0  0  0  0  0  0  0  0  0  0  0
    2.8655   -1.7683   -0.9351 H   0  0  0  0  0  0  0  0  0  0  0  0
  5  6  2  0  0  0  0
  5  7  1  0  0  0  0
  2  3  1  0  0  0  0
  2  4  1  0  0  0  0
  2  5  1  0  0  0  0
  1  2  1  0  0  0  0
 25 26  2  0  0  0  0
 25 27  1  0  0  0  0
 23 24  1  0  0  0  0
 21 22  1  0  0  0  0
 21 23  2  0  0  0  0
 19 20  1  0  0  0  0
 19 21  1  0  0  0  0
 17 18  1  0  0  0  0
 17 19  2  0  0  0  0
 15 16  1  0  0  0  0
 15 17  1  0  0  0  0
 14 15  2  0  0  0  0
 14 23  1  0  0  0  0
 11 12  1  0  0  0  0
 11 13  1  0  0  0  0
 11 14  1  0  0  0  0
  9 10  1  0  0  0  0
  9 11  1  0  0  0  0
  9 25  1  0  0  0  0
  7  8  1  0  0  0  0
  7  9  1  0  0  0  0
 29 30  1  0  0  0  0
 29 31  1  0  0  0  0
 29 32  1  0  0  0  0
 27 28  1  0  0  0  0
 27 29  1  0  0  0  0
M  END
$$$$
default_name
  -OEChem-01062215323D

 32 32  0     1  0  0  0  0  0999 V2000
   -3.8405   -3.7518    1.6252 H   0  0  0  0  0  0  0  0  0  0  0  0
   -3.7965   -2.8768    0.9782 C   0  0  0  0  0  0  0  0  0  0  0  0
   -4.5465   -2.1527    1.2902 H   0  0  0  0  0  0  0  0  0  0  0  0
   -3.9745   -3.1748   -0.0538 H   0  0  0  0  0  0  0  0  0  0  0  0
   -2.4245   -2.2537    1.0882 C   0  0  0  0  0  0  0  0  0  0  0  0
   -1.5805   -2.7478    1.8242 O   0  0  0  0  0  0  0  0  0  0  0  0
   -2.2045   -1.1637    0.3562 N   0  0  0  0  0  0  0  0  0  0  0  0
   -2.9595   -0.7907   -0.2008 H   0  0  0  0  0  0  0  0  0  0  0  0
   -0.9485   -0.4087    0.3482 C   0  0  1  0  0  0  0  0  0  0  0  0
   -1.1694    0.6322    0.1068 H   0  0  0  0  0  0  0  0  0  0  0  0
   -0.3175   -0.4571    1.7503 C   0  0  0  0  0  0  0  0  0  0  0  0
   -0.2242   -1.4984    2.0621 H   0  0  0  0  0  0  0  0  0  0  0  0
    0.6890   -0.0389    1.6999 H   0  0  0  0  0  0  0  0  0  0  0  0
   -1.1139    0.2811    2.8093 C   0  0  0  0  0  0  0  0  0  0  0  0
   -1.0072    1.6791    2.9366 C   0  0  0  0  0  0  0  0  0  0  0  0
   -0.3380    2.2332    2.2935 H   0  0  0  0  0  0  0  0  0  0  0  0
   -1.7802    2.3617    3.8939 C   0  0  0  0  0  0  0  0  0  0  0  0
   -1.6948    3.4349    3.9917 H   0  0  0  0  0  0  0  0  0  0  0  0
   -2.6620    1.6487    4.7237 C   0  0  0  0  0  0  0  0  0  0  0  0
   -3.2541    2.1729    5.4608 H   0  0  0  0  0  0  0  0  0  0  0  0
   -2.7699    0.2516    4.6002 C   0  0  0  0  0  0  0  0  0  0  0  0
   -3.4436   -0.2973    5.2417 H   0  0  0  0  0  0  0  0  0  0  0  0
   -1.9948   -0.4307    3.6457 C   0  0  0  0  0  0  0  0  0  0  0  0
   -2.0763   -1.5060    3.5539 H   0  0  0  0  0  0  0  0  0  0  0  0
    0.0088   -0.9464   -0.7307 C   0  0  0  0  0  0  0  0  0  0  0  0
   -0.3280   -1.8953   -1.4403 O   0  0  0  0  0  0  0  0  0  0  0  0
    1.2005   -0.3478   -0.8517 N   0  0  0  0  0  0  0  0  0  0  0  0
    1.4246    0.3858   -0.1968 H   0  0  0  0  0  0  0  0  0  0  0  0
    2.2241   -0.7416   -1.8168 C   0  0  0  0  0  0  0  0  0  0  0  0
    1.7918   -0.7812   -2.8188 H   0  0  0  0  0  0  0  0  0  0  0  0
    3.0460   -0.0251   -1.8080 H   0  0  0  0  0  0  0  0  0  0  0  0
    2.6066   -1.7321   -1.5629 H   0  0  0  0  0  0  0  0  0  0  0  0
  5  6  2  0  0  0  0
  5  7  1  0  0  0  0
  2  3  1  0  0  0  0
  2  4  1  0  0  0  0
  2  5  1  0  0  0  0
  1  2  1  0  0  0  0
 25 26  2  0  0  0  0
 25 27  1  0  0  0  0
 23 24  1  0  0  0  0
 21 22  1  0  0  0  0
 21 23  2  0  0  0  0
 19 20  1  0  0  0  0
 19 21  1  0  0  0  0
 17 18  1  0  0  0  0
 17 19  2  0  0  0  0
 15 16  1  0  0  0  0
 15 17  1  0  0  0  0
 14 15  2  0  0  0  0
 14 23  1  0  0  0  0
 11 12  1  0  0  0  0
 11 13  1  0  0  0  0
 11 14  1  0  0  0  0
  9 10  1  0  0  0  0
  9 11  1  0  0  0  0
  9 25  1  0  0  0  0
  7  8  1  0  0  0  0
  7  9  1  0  0  0  0
 29 30  1  0  0  0  0
 29 31  1  0  0  0  0
 29 32  1  0  0  0  0
 27 28  1  0  0  0  0
 27 29  1  0  0  0  0
M  END
$$$$
default_name
  -OEChem-01062215323D

 32 32  0     1  0  0  0  0  0999 V2000
   -3.8405   -3.7518    1.6252 H   0  0  0  0  0  0  0  0  0  0  0  0
   -3.7965   -2.8768    0.9782 C   0  0  0  0  0  0  0  0  0  0  0  0
   -4.5465   -2.1527    1.2902 H   0  0  0  0  0  0  0  0  0  0  0  0
   -3.9745   -3.1748   -0.0538 H   0  0  0  0  0  0  0  0  0  0  0  0
   -2.4245   -2.2537    1.0882 C   0  0  0  0  0  0  0  0  0  0  0  0
   -1.5805   -2.7478    1.8242 O   0  0  0  0  0  0  0  0  0  0  0  0
   -2.2045   -1.1637    0.3562 N   0  0  0  0  0  0  0  0  0  0  0  0
   -2.9595   -0.7907   -0.2008 H   0  0  0  0  0  0  0  0  0  0  0  0
   -0.9485   -0.4087    0.3482 C   0  0  1  0  0  0  0  0  0  0  0  0
   -1.1694    0.6322    0.1068 H   0  0  0  0  0  0  0  0  0  0  0  0
   -0.3175   -0.4571    1.7503 C   0  0  0  0  0  0  0  0  0  0  0  0
   -0.2242   -1.4984    2.0621 H   0  0  0  0  0  0  0  0  0  0  0  0
    0.6890   -0.0389    1.6999 H   0  0  0  0  0  0  0  0  0  0  0  0
   -1.1139    0.2811    2.8093 C   0  0  0  0  0  0  0  0  0  0  0  0
   -1.0072    1.6791    2.9366 C   0  0  0  0  0  0  0  0  0  0  0  0
   -0.3380    2.2332    2.2935 H   0  0  0  0  0  0  0  0  0  0  0  0
   -1.7802    2.3617    3.8939 C   0  0  0  0  0  0  0  0  0  0  0  0
   -1.6948    3.4349    3.9917 H   0  0  0  0  0  0  0  0  0  0  0  0
   -2.6620    1.6487    4.7237 C   0  0  0  0  0  0  0  0  0  0  0  0
   -3.2541    2.1729    5.4608 H   0  0  0  0  0  0  0  0  0  0  0  0
   -2.7699    0.2516    4.6002 C   0  0  0  0  0  0  0  0  0  0  0  0
   -3.4436   -0.2973    5.2417 H   0  0  0  0  0  0  0  0  0  0  0  0
   -1.9948   -0.4307    3.6457 C   0  0  0  0  0  0  0  0  0  0  0  0
   -2.0763   -1.5060    3.5539 H   0  0  0  0  0  0  0  0  0  0  0  0
    0.0088   -0.9464   -0.7307 C   0  0  0  0  0  0  0  0  0  0  0  0
   -0.4114   -1.6950   -1.6141 O   0  0  0  0  0  0  0  0  0  0  0  0
    1.2925   -0.5722   -0.6582 N   0  0  0  0  0  0  0  0  0  0  0  0
    1.5707   -0.0028    0.1264 H   0  0  0  0  0  0  0  0  0  0  0  0
    2.3278   -1.0002   -1.5959 C   0  0  0  0  0  0  0  0  0  0  0  0
    2.0031   -0.8041   -2.6199 H   0  0  0  0  0  0  0  0  0  0  0  0
    3.2562   -0.4617   -1.4038 H   0  0  0  0  0  0  0  0  0  0  0  0
    2.5032   -2.0720   -1.4852 H   0  0  0  0  0  0  0  0  0  0  0  0
  5  6  2  0  0  0  0
  5  7  1  0  0  0  0
  2  3  1  0  0  0  0
  2  4  1  0  0  0  0
  2  5  1  0  0  0  0
  1  2  1  0  0  0  0
 25 26  2  0  0  0  0
 25 27  1  0  0  0  0
 23 24  1  0  0  0  0
 21 22  1  0  0  0  0
 21 23  2  0  0  0  0
 19 20  1  0  0  0  0
 19 21  1  0  0  0  0
 17 18  1  0  0  0  0
 17 19  2  0  0  0  0
 15 16  1  0  0  0  0
 15 17  1  0  0  0  0
 14 15  2  0  0  0  0
 14 23  1  0  0  0  0
 11 12  1  0  0  0  0
 11 13  1  0  0  0  0
 11 14  1  0  0  0  0
  9 10  1  0  0  0  0
  9 11  1  0  0  0  0
  9 25  1  0  0  0  0
  7  8  1  0  0  0  0
  7  9  1  0  0  0  0
 29 30  1  0  0  0  0
 29 31  1  0  0  0  0
 29 32  1  0  0  0  0
 27 28  1  0  0  0  0
 27 29  1  0  0  0  0
M  END
$$$$
default_name
  -OEChem-01062215323D

 32 32  0     1  0  0  0  0  0999 V2000
   -3.8405   -3.7518    1.6252 H   0  0  0  0  0  0  0  0  0  0  0  0
   -3.7965   -2.8768    0.9782 C   0  0  0  0  0  0  0  0  0  0  0  0
   -4.5465   -2.1527    1.2902 H   0  0  0  0  0  0  0  0  0  0  0  0
   -3.9745   -3.1748   -0.0538 H   0  0  0  0  0  0  0  0  0  0  0  0
   -2.4245   -2.2537    1.0882 C   0  0  0  0  0  0  0  0  0  0  0  0
   -1.5805   -2.7478    1.8242 O   0  0  0  0  0  0  0  0  0  0  0  0
   -2.2045   -1.1637    0.3562 N   0  0  0  0  0  0  0  0  0  0  0  0
   -2.9595   -0.7907   -0.2008 H   0  0  0  0  0  0  0  0  0  0  0  0
   -0.9485   -0.4087    0.3482 C   0  0  1  0  0  0  0  0  0  0  0  0
   -1.1694    0.6322    0.1068 H   0  0  0  0  0  0  0  0  0  0  0  0
   -0.3175   -0.4571    1.7503 C   0  0  0  0  0  0  0  0  0  0  0  0
   -0.2242   -1.4984    2.0621 H   0  0  0  0  0  0  0  0  0  0  0  0
    0.6890   -0.0389    1.6999 H   0  0  0  0  0  0  0  0  0  0  0  0
   -1.1139    0.2811    2.8093 C   0  0  0  0  0  0  0  0  0  0  0  0
   -1.0072    1.6791    2.9366 C   0  0  0  0  0  0  0  0  0  0  0  0
   -0.3380    2.2332    2.2935 H   0  0  0  0  0  0  0  0  0  0  0  0
   -1.7802    2.3617    3.8939 C   0  0  0  0  0  0  0  0  0  0  0  0
   -1.6948    3.4349    3.9917 H   0  0  0  0  0  0  0  0  0  0  0  0
   -2.6620    1.6487    4.7237 C   0  0  0  0  0  0  0  0  0  0  0  0
   -3.2541    2.1729    5.4608 H   0  0  0  0  0  0  0  0  0  0  0  0
   -2.7699    0.2516    4.6002 C   0  0  0  0  0  0  0  0  0  0  0  0
   -3.4436   -0.2973    5.2417 H   0  0  0  0  0  0  0  0  0  0  0  0
   -1.9948   -0.4307    3.6457 C   0  0  0  0  0  0  0  0  0  0  0  0
   -2.0763   -1.5060    3.5539 H   0  0  0  0  0  0  0  0  0  0  0  0
    0.0088   -0.9464   -0.7307 C   0  0  0  0  0  0  0  0  0  0  0  0
   -0.4398   -1.4584   -1.7573 O   0  0  0  0  0  0  0  0  0  0  0  0
    1.3231   -0.8368   -0.4992 N   0  0  0  0  0  0  0  0  0  0  0  0
    1.6120   -0.4568    0.3893 H   0  0  0  0  0  0  0  0  0  0  0  0
    2.3611   -1.3044   -1.4148 C   0  0  0  0  0  0  0  0  0  0  0  0
    2.1851   -0.8965   -2.4124 H   0  0  0  0  0  0  0  0  0  0  0  0
    3.3436   -0.9866   -1.0647 H   0  0  0  0  0  0  0  0  0  0  0  0
    2.3346   -2.3941   -1.4743 H   0  0  0  0  0  0  0  0  0  0  0  0
  5  6  2  0  0  0  0
  5  7  1  0  0  0  0
  2  3  1  0  0  0  0
  2  4  1  0  0  0  0
  2  5  1  0  0  0  0
  1  2  1  0  0  0  0
 25 26  2  0  0  0  0
 25 27  1  0  0  0  0
 23 24  1  0  0  0  0
 21 22  1  0  0  0  0
 21 23  2  0  0  0  0
 19 20  1  0  0  0  0
 19 21  1  0  0  0  0
 17 18  1  0  0  0  0
 17 19  2  0  0  0  0
 15 16  1  0  0  0  0
 15 17  1  0  0  0  0
 14 15  2  0  0  0  0
 14 23  1  0  0  0  0
 11 12  1  0  0  0  0
 11 13  1  0  0  0  0
 11 14  1  0  0  0  0
  9 10  1  0  0  0  0
  9 11  1  0  0  0  0
  9 25  1  0  0  0  0
  7  8  1  0  0  0  0
  7  9  1  0  0  0  0
 29 30  1  0  0  0  0
 29 31  1  0  0  0  0
 29 32  1  0  0  0  0
 27 28  1  0  0  0  0
 27 29  1  0  0  0  0
M  END
$$$$
default_name
  -OEChem-01062215323D

 32 32  0     1  0  0  0  0  0999 V2000
   -3.8405   -3.7518    1.6252 H   0  0  0  0  0  0  0  0  0  0  0  0
   -3.7965   -2.8768    0.9782 C   0  0  0  0  0  0  0  0  0  0  0  0
   -4.5465   -2.1527    1.2902 H   0  0  0  0  0  0  0  0  0  0  0  0
   -3.9745   -3.1748   -0.0538 H   0  0  0  0  0  0  0  0  0  0  0  0
   -2.4245   -2.2537    1.0882 C   0  0  0  0  0  0  0  0  0  0  0  0
   -1.5805   -2.7478    1.8242 O   0  0  0  0  0  0  0  0  0  0  0  0
   -2.2045   -1.1637    0.3562 N   0  0  0  0  0  0  0  0  0  0  0  0
   -2.9595   -0.7907   -0.2008 H   0  0  0  0  0  0  0  0  0  0  0  0
   -0.9485   -0.4087    0.3482 C   0  0  1  0  0  0  0  0  0  0  0  0
   -1.1694    0.6322    0.1068 H   0  0  0  0  0  0  0  0  0  0  0  0
   -0.3175   -0.4571    1.7503 C   0  0  0  0  0  0  0  0  0  0  0  0
   -0.2242   -1.4984    2.0621 H   0  0  0  0  0  0  0  0  0  0  0  0
    0.6890   -0.0389    1.6999 H   0  0  0  0  0  0  0  0  0  0  0  0
   -1.1139    0.2811    2.8093 C   0  0  0  0  0  0  0  0  0  0  0  0
   -1.0072    1.6791    2.9366 C   0  0  0  0  0  0  0  0  0  0  0  0
   -0.3380    2.2332    2.2935 H   0  0  0  0  0  0  0  0  0  0  0  0
   -1.7802    2.3617    3.8939 C   0  0  0  0  0  0  0  0  0  0  0  0
   -1.6948    3.4349    3.9917 H   0  0  0  0  0  0  0  0  0  0  0  0
   -2.6620    1.6487    4.7237 C   0  0  0  0  0  0  0  0  0  0  0  0
   -3.2541    2.1729    5.4608 H   0  0  0  0  0  0  0  0  0  0  0  0
   -2.7699    0.2516    4.6002 C   0  0  0  0  0  0  0  0  0  0  0  0
   -3.4436   -0.2973    5.2417 H   0  0  0  0  0  0  0  0  0  0  0  0
   -1.9948   -0.4307    3.6457 C   0  0  0  0  0  0  0  0  0  0  0  0
   -2.0763   -1.5060    3.5539 H   0  0  0  0  0  0  0  0  0  0  0  0
    0.0088   -0.9464   -0.7307 C   0  0  0  0  0  0  0  0  0  0  0  0
   -0.4115   -1.2017   -1.8601 O   0  0  0  0  0  0  0  0  0  0  0  0
    1.2904   -1.1236   -0.3853 N   0  0  0  0  0  0  0  0  0  0  0  0
    1.5458   -0.9450    0.5739 H   0  0  0  0  0  0  0  0  0  0  0  0
    2.3216   -1.6334   -1.2858 C   0  0  0  0  0  0  0  0  0  0  0  0
    2.3253   -1.0522   -2.2104 H   0  0  0  0  0  0  0  0  0  0  0  0
    3.3021   -1.5640   -0.8138 H   0  0  0  0  0  0  0  0  0  0  0  0
    2.1124   -2.6765   -1.5308 H   0  0  0  0  0  0  0  0  0  0  0  0
  5  6  2  0  0  0  0
  5  7  1  0  0  0  0
  2  3  1  0  0  0  0
  2  4  1  0  0  0  0
  2  5  1  0  0  0  0
  1  2  1  0  0  0  0
 25 26  2  0  0  0  0
 25 27  1  0  0  0  0
 23 24  1  0  0  0  0
 21 22  1  0  0  0  0
 21 23  2  0  0  0  0
 19 20  1  0  0  0  0
 19 21  1  0  0  0  0
 17 18  1  0  0  0  0
 17 19  2  0  0  0  0
 15 16  1  0  0  0  0
 15 17  1  0  0  0  0
 14 15  2  0  0  0  0
 14 23  1  0  0  0  0
 11 12  1  0  0  0  0
 11 13  1  0  0  0  0
 11 14  1  0  0  0  0
  9 10  1  0  0  0  0
  9 11  1  0  0  0  0
  9 25  1  0  0  0  0
  7  8  1  0  0  0  0
  7  9  1  0  0  0  0
 29 30  1  0  0  0  0
 29 31  1  0  0  0  0
 29 32  1  0  0  0  0
 27 28  1  0  0  0  0
 27 29  1  0  0  0  0
M  END
$$$$
default_name
  -OEChem-01062215323D

 32 32  0     1  0  0  0  0  0999 V2000
   -3.8405   -3.7518    1.6252 H   0  0  0  0  0  0  0  0  0  0  0  0
   -3.7965   -2.8768    0.9782 C   0  0  0  0  0  0  0  0  0  0  0  0
   -4.5465   -2.1527    1.2902 H   0  0  0  0  0  0  0  0  0  0  0  0
   -3.9745   -3.1748   -0.0538 H   0  0  0  0  0  0  0  0  0  0  0  0
   -2.4245   -2.2537    1.0882 C   0  0  0  0  0  0  0  0  0  0  0  0
   -1.5805   -2.7478    1.8242 O   0  0  0  0  0  0  0  0  0  0  0  0
   -2.2045   -1.1637    0.3562 N   0  0  0  0  0  0  0  0  0  0  0  0
   -2.9595   -0.7907   -0.2008 H   0  0  0  0  0  0  0  0  0  0  0  0
   -0.9485   -0.4087    0.3482 C   0  0  1  0  0  0  0  0  0  0  0  0
   -1.1694    0.6322    0.1068 H   0  0  0  0  0  0  0  0  0  0  0  0
   -0.3175   -0.4571    1.7503 C   0  0  0  0  0  0  0  0  0  0  0  0
   -0.2242   -1.4984    2.0621 H   0  0  0  0  0  0  0  0  0  0  0  0
    0.6890   -0.0389    1.6999 H   0  0  0  0  0  0  0  0  0  0  0  0
   -1.1139    0.2811    2.8093 C   0  0  0  0  0  0  0  0  0  0  0  0
   -1.0072    1.6791    2.9366 C   0  0  0  0  0  0  0  0  0  0  0  0
   -0.3380    2.2332    2.2935 H   0  0  0  0  0  0  0  0  0  0  0  0
   -1.7802    2.3617    3.8939 C   0  0  0  0  0  0  0  0  0  0  0  0
   -1.6948    3.4349    3.9917 H   0  0  0  0  0  0  0  0  0  0  0  0
   -2.6620    1.6487    4.7237 C   0  0  0  0  0  0  0  0  0  0  0  0
   -3.2541    2.1729    5.4608 H   0  0  0  0  0  0  0  0  0  0  0  0
   -2.7699    0.2516    4.6002 C   0  0  0  0  0  0  0  0  0  0  0  0
   -3.4436   -0.2973    5.2417 H   0  0  0  0  0  0  0  0  0  0  0  0
   -1.9948   -0.4307    3.6457 C   0  0  0  0  0  0  0  0  0  0  0  0
   -2.0763   -1.5060    3.5539 H   0  0  0  0  0  0  0  0  0  0  0  0
    0.0088   -0.9464   -0.7307 C   0  0  0  0  0  0  0  0  0  0  0  0
   -0.3283   -0.9424   -1.9155 O   0  0  0  0  0  0  0  0  0  0  0  0
    1.1964   -1.4130   -0.3245 N   0  0  0  0  0  0  0  0  0  0  0  0
    1.3766   -1.4344    0.6677 H   0  0  0  0  0  0  0  0  0  0  0  0
    2.2122   -1.9648   -1.2177 C   0  0  0  0  0  0  0  0  0  0  0  0
    2.4142   -1.2606   -2.0276 H   0  0  0  0  0  0  0  0  0  0  0  0
    3.1346   -2.1546   -0.6681 H   0  0  0  0  0  0  0  0  0  0  0  0
    1.8516   -2.8998   -1.6509 H   0  0  0  0  0  0  0  0  0  0  0  0
  5  6  2  0  0  0  0
  5  7  1  0  0  0  0
  2  3  1  0  0  0  0
  2  4  1  0  0  0  0
  2  5  1  0  0  0  0
  1  2  1  0  0  0  0
 25 26  2  0  0  0  0
 25 27  1  0  0  0  0
 23 24  1  0  0  0  0
 21 22  1  0  0  0  0
 21 23  2  0  0  0  0
 19 20  1  0  0  0  0
 19 21  1  0  0  0  0
 17 18  1  0  0  0  0
 17 19  2  0  0  0  0
 15 16  1  0  0  0  0
 15 17  1  0  0  0  0
 14 15  2  0  0  0  0
 14 23  1  0  0  0  0
 11 12  1  0  0  0  0
 11 13  1  0  0  0  0
 11 14  1  0  0  0  0
  9 10  1  0  0  0  0
  9 11  1  0  0  0  0
  9 25  1  0  0  0  0
  7  8  1  0  0  0  0
  7  9  1  0  0  0  0
 29 30  1  0  0  0  0
 29 31  1  0  0  0  0
 29 32  1  0  0  0  0
 27 28  1  0  0  0  0
 27 29  1  0  0  0  0
M  END
$$$$
default_name
  -OEChem-01062215323D

 32 32  0     1  0  0  0  0  0999 V2000
   -3.8405   -3.7518    1.6252 H   0  0  0  0  0  0  0  0  0  0  0  0
   -3.7965   -2.8768    0.9782 C   0  0  0  0  0  0  0  0  0  0  0  0
   -4.5465   -2.1527    1.2902 H   0  0  0  0  0  0  0  0  0  0  0  0
   -3.9745   -3.1748   -0.0538 H   0  0  0  0  0  0  0  0  0  0  0  0
   -2.4245   -2.2537    1.0882 C   0  0  0  0  0  0  0  0  0  0  0  0
   -1.5805   -2.7478    1.8242 O   0  0  0  0  0  0  0  0  0  0  0  0
   -2.2045   -1.1637    0.3562 N   0  0  0  0  0  0  0  0  0  0  0  0
   -2.9595   -0.7907   -0.2008 H   0  0  0  0  0  0  0  0  0  0  0  0
   -0.9485   -0.4087    0.3482 C   0  0  1  0  0  0  0  0  0  0  0  0
   -1.1694    0.6322    0.1068 H   0  0  0  0  0  0  0  0  0  0  0  0
   -0.3175   -0.4571    1.7503 C   0  0  0  0  0  0  0  0  0  0  0  0
   -0.2242   -1.4984    2.0621 H   0  0  0  0  0  0  0  0  0  0  0  0
    0.6890   -0.0389    1.6999 H   0  0  0  0  0  0  0  0  0  0  0  0
   -1.1139    0.2811    2.8093 C   0  0  0  0  0  0  0  0  0  0  0  0
   -1.0072    1.6791    2.9366 C   0  0  0  0  0  0  0  0  0  0  0  0
   -0.3380    2.2332    2.2935 H   0  0  0  0  0  0  0  0  0  0  0  0
   -1.7802    2.3617    3.8939 C   0  0  0  0  0  0  0  0  0  0  0  0
   -1.6948    3.4349    3.9917 H   0  0  0  0  0  0  0  0  0  0  0  0
   -2.6620    1.6487    4.7237 C   0  0  0  0  0  0  0  0  0  0  0  0
   -3.2541    2.1729    5.4608 H   0  0  0  0  0  0  0  0  0  0  0  0
   -2.7699    0.2516    4.6002 C   0  0  0  0  0  0  0  0  0  0  0  0
   -3.4436   -0.2973    5.2417 H   0  0  0  0  0  0  0  0  0  0  0  0
   -1.9948   -0.4307    3.6457 C   0  0  0  0  0  0  0  0  0  0  0  0
   -2.0763   -1.5060    3.5539 H   0  0  0  0  0  0  0  0  0  0  0  0
    0.0088   -0.9464   -0.7307 C   0  0  0  0  0  0  0  0  0  0  0  0
   -0.1958   -0.6980   -1.9197 O   0  0  0  0  0  0  0  0  0  0  0  0
    1.0477   -1.6852   -0.3208 N   0  0  0  0  0  0  0  0  0  0  0  0
    1.1159   -1.8915    0.6642 H   0  0  0  0  0  0  0  0  0  0  0  0
    2.0403   -2.2760   -1.2152 C   0  0  0  0  0  0  0  0  0  0  0  0
    2.4458   -1.5074   -1.8766 H   0  0  0  0  0  0  0  0  0  0  0  0
    2.8524   -2.7182   -0.6376 H   0  0  0  0  0  0  0  0  0  0  0  0
    1.5701   -3.0488   -1.8264 H   0  0  0  0  0  0  0  0  0  0  0  0
  5  6  2  0  0  0  0
  5  7  1  0  0  0  0
  2  3  1  0  0  0  0
  2  4  1  0  0  0  0
  2  5  1  0  0  0  0
  1  2  1  0  0  0  0
 25 26  2  0  0  0  0
 25 27  1  0  0  0  0
 23 24  1  0  0  0  0
 21 22  1  0  0  0  0
 21 23  2  0  0  0  0
 19 20  1  0  0  0  0
 19 21  1  0  0  0  0
 17 18  1  0  0  0  0
 17 19  2  0  0  0  0
 15 16  1  0  0  0  0
 15 17  1  0  0  0  0
 14 15  2  0  0  0  0
 14 23  1  0  0  0  0
 11 12  1  0  0  0  0
 11 13  1  0  0  0  0
 11 14  1  0  0  0  0
  9 10  1  0  0  0  0
  9 11  1  0  0  0  0
  9 25  1  0  0  0  0
  7  8  1  0  0  0  0
  7  9  1  0  0  0  0
 29 30  1  0  0  0  0
 29 31  1  0  0  0  0
 29 32  1  0  0  0  0
 27 28  1  0  0  0  0
 27 29  1  0  0  0  0
M  END
$$$$
default_name
  -OEChem-01062215323D

 32 32  0     1  0  0  0  0  0999 V2000
   -3.8405   -3.7518    1.6252 H   0  0  0  0  0  0  0  0  0  0  0  0
   -3.7965   -2.8768    0.9782 C   0  0  0  0  0  0  0  0  0  0  0  0
   -4.5465   -2.1527    1.2902 H   0  0  0  0  0  0  0  0  0  0  0  0
   -3.9745   -3.1748   -0.0538 H   0  0  0  0  0  0  0  0  0  0  0  0
   -2.4245   -2.2537    1.0882 C   0  0  0  0  0  0  0  0  0  0  0  0
   -1.5805   -2.7478    1.8242 O   0  0  0  0  0  0  0  0  0  0  0  0
   -2.2045   -1.1637    0.3562 N   0  0  0  0  0  0  0  0  0  0  0  0
   -2.9595   -0.7907   -0.2008 H   0  0  0  0  0  0  0  0  0  0  0  0
   -0.9485   -0.4087    0.3482 C   0  0  1  0  0  0  0  0  0  0  0  0
   -1.1694    0.6322    0.1068 H   0  0  0  0  0  0  0  0  0  0  0  0
   -0.3175   -0.4571    1.7503 C   0  0  0  0  0  0  0  0  0  0  0  0
   -0.2242   -1.4984    2.0621 H   0  0  0  0  0  0  0  0  0  0  0  0
    0.6890   -0.0389    1.6999 H   0  0  0  0  0  0  0  0  0  0  0  0
   -1.1139    0.2811    2.8093 C   0  0  0  0  0  0  0  0  0  0  0  0
   -1.0072    1.6791    2.9366 C   0  0  0  0  0  0  0  0  0  0  0  0
   -0.3380    2.2332    2.2935 H   0  0  0  0  0  0  0  0  0  0  0  0
   -1.7802    2.3617    3.8939 C   0  0  0  0  0  0  0  0  0  0  0  0
   -1.6948    3.4349    3.9917 H   0  0  0  0  0  0  0  0  0  0  0  0
   -2.6620    1.6487    4.7237 C   0  0  0  0  0  0  0  0  0  0  0  0
   -3.2541    2.1729    5.4608 H   0  0  0  0  0  0  0  0  0  0  0  0
   -2.7699    0.2516    4.6002 C   0  0  0  0  0  0  0  0  0  0  0  0
   -3.4436   -0.2973    5.2417 H   0  0  0  0  0  0  0  0  0  0  0  0
   -1.9948   -0.4307    3.6457 C   0  0  0  0  0  0  0  0  0  0  0  0
   -2.0763   -1.5060    3.5539 H   0  0  0  0  0  0  0  0  0  0  0  0
    0.0088   -0.9464   -0.7307 C   0  0  0  0  0  0  0  0  0  0  0  0
   -0.0232   -0.4854   -1.8725 O   0  0  0  0  0  0  0  0  0  0  0  0
    0.8543   -1.9218   -0.3745 N   0  0  0  0  0  0  0  0  0  0  0  0
    0.7816   -2.2851    0.5636 H   0  0  0  0  0  0  0  0  0  0  0  0
    1.8175   -2.5458   -1.2784 C   0  0  0  0  0  0  0  0  0  0  0  0
    2.4179   -1.7758   -1.7676 H   0  0  0  0  0  0  0  0  0  0  0  0
    2.4749   -3.2162   -0.7243 H   0  0  0  0  0  0  0  0  0  0  0  0
    1.2870   -3.1135   -2.0454 H   0  0  0  0  0  0  0  0  0  0  0  0
  5  6  2  0  0  0  0
  5  7  1  0  0  0  0
  2  3  1  0  0  0  0
  2  4  1  0  0  0  0
  2  5  1  0  0  0  0
  1  2  1  0  0  0  0
 25 26  2  0  0  0  0
 25 27  1  0  0  0  0
 23 24  1  0  0  0  0
 21 22  1  0  0  0  0
 21 23  2  0  0  0  0
 19 20  1  0  0  0  0
 19 21  1  0  0  0  0
 17 18  1  0  0  0  0
 17 19  2  0  0  0  0
 15 16  1  0  0  0  0
 15 17  1  0  0  0  0
 14 15  2  0  0  0  0
 14 23  1  0  0  0  0
 11 12  1  0  0  0  0
 11 13  1  0  0  0  0
 11 14  1  0  0  0  0
  9 10  1  0  0  0  0
  9 11  1  0  0  0  0
  9 25  1  0  0  0  0
  7  8  1  0  0  0  0
  7  9  1  0  0  0  0
 29 30  1  0  0  0  0
 29 31  1  0  0  0  0
 29 32  1  0  0  0  0
 27 28  1  0  0  0  0
 27 29  1  0  0  0  0
M  END
$$$$
default_name
  -OEChem-01062215323D

 32 32  0     1  0  0  0  0  0999 V2000
   -3.8405   -3.7518    1.6252 H   0  0  0  0  0  0  0  0  0  0  0  0
   -3.7965   -2.8768    0.9782 C   0  0  0  0  0  0  0  0  0  0  0  0
   -4.5465   -2.1527    1.2902 H   0  0  0  0  0  0  0  0  0  0  0  0
   -3.9745   -3.1748   -0.0538 H   0  0  0  0  0  0  0  0  0  0  0  0
   -2.4245   -2.2537    1.0882 C   0  0  0  0  0  0  0  0  0  0  0  0
   -1.5805   -2.7478    1.8242 O   0  0  0  0  0  0  0  0  0  0  0  0
   -2.2045   -1.1637    0.3562 N   0  0  0  0  0  0  0  0  0  0  0  0
   -2.9595   -0.7907   -0.2008 H   0  0  0  0  0  0  0  0  0  0  0  0
   -0.9485   -0.4087    0.3482 C   0  0  1  0  0  0  0  0  0  0  0  0
   -1.1694    0.6322    0.1068 H   0  0  0  0  0  0  0  0  0  0  0  0
   -0.3175   -0.4571    1.7503 C   0  0  0  0  0  0  0  0  0  0  0  0
   -0.2242   -1.4984    2.0621 H   0  0  0  0  0  0  0  0  0  0  0  0
    0.6890   -0.0389    1.6999 H   0  0  0  0  0  0  0  0  0  0  0  0
   -1.1139    0.2811    2.8093 C   0  0  0  0  0  0  0  0  0  0  0  0
   -1.0072    1.6791    2.9366 C   0  0  0  0  0  0  0  0  0  0  0  0
   -0.3380    2.2332    2.2935 H   0  0  0  0  0  0  0  0  0  0  0  0
   -1.7802    2.3617    3.8939 C   0  0  0  0  0  0  0  0  0  0  0  0
   -1.6948    3.4349    3.9917 H   0  0  0  0  0  0  0  0  0  0  0  0
   -2.6620    1.6487    4.7237 C   0  0  0  0  0  0  0  0  0  0  0  0
   -3.2541    2.1729    5.4608 H   0  0  0  0  0  0  0  0  0  0  0  0
   -2.7699    0.2516    4.6002 C   0  0  0  0  0  0  0  0  0  0  0  0
   -3.4436   -0.2973    5.2417 H   0  0  0  0  0  0  0  0  0  0  0  0
   -1.9948   -0.4307    3.6457 C   0  0  0  0  0  0  0  0  0  0  0  0
   -2.0763   -1.5060    3.5539 H   0  0  0  0  0  0  0  0  0  0  0  0
    0.0088   -0.9464   -0.7307 C   0  0  0  0  0  0  0  0  0  0  0  0
    0.1779   -0.3189   -1.7771 O   0  0  0  0  0  0  0  0  0  0  0  0
    0.6294   -2.1066   -0.4819 N   0  0  0  0  0  0  0  0  0  0  0  0
    0.3963   -2.5885    0.3730 H   0  0  0  0  0  0  0  0  0  0  0  0
    1.5591   -2.7558   -1.4031 C   0  0  0  0  0  0  0  0  0  0  0  0
    2.3324   -2.0476   -1.7080 H   0  0  0  0  0  0  0  0  0  0  0  0
    2.0278   -3.6149   -0.9224 H   0  0  0  0  0  0  0  0  0  0  0  0
    1.0216   -3.0893   -2.2929 H   0  0  0  0  0  0  0  0  0  0  0  0
  5  6  2  0  0  0  0
  5  7  1  0  0  0  0
  2  3  1  0  0  0  0
  2  4  1  0  0  0  0
  2  5  1  0  0  0  0
  1  2  1  0  0  0  0
 25 26  2  0  0  0  0
 25 27  1  0  0  0  0
 23 24  1  0  0  0  0
 21 22  1  0  0  0  0
 21 23  2  0  0  0  0
 19 20  1  0  0  0  0
 19 21  1  0  0  0  0
 17 18  1  0  0  0  0
 17 19  2  0  0  0  0
 15 16  1  0  0  0  0
 15 17  1  0  0  0  0
 14 15  2  0  0  0  0
 14 23  1  0  0  0  0
 11 12  1  0  0  0  0
 11 13  1  0  0  0  0
 11 14  1  0  0  0  0
  9 10  1  0  0  0  0
  9 11  1  0  0  0  0
  9 25  1  0  0  0  0
  7  8  1  0  0  0  0
  7  9  1  0  0  0  0
 29 30  1  0  0  0  0
 29 31  1  0  0  0  0
 29 32  1  0  0  0  0
 27 28  1  0  0  0  0
 27 29  1  0  0  0  0
M  END
$$$$
default_name
  -OEChem-01062215323D

 32 32  0     1  0  0  0  0  0999 V2000
   -3.8405   -3.7518    1.6252 H   0  0  0  0  0  0  0  0  0  0  0  0
   -3.7965   -2.8768    0.9782 C   0  0  0  0  0  0  0  0  0  0  0  0
   -4.5465   -2.1527    1.2902 H   0  0  0  0  0  0  0  0  0  0  0  0
   -3.9745   -3.1748   -0.0538 H   0  0  0  0  0  0  0  0  0  0  0  0
   -2.4245   -2.2537    1.0882 C   0  0  0  0  0  0  0  0  0  0  0  0
   -1.5805   -2.7478    1.8242 O   0  0  0  0  0  0  0  0  0  0  0  0
   -2.2045   -1.1637    0.3562 N   0  0  0  0  0  0  0  0  0  0  0  0
   -2.9595   -0.7907   -0.2008 H   0  0  0  0  0  0  0  0  0  0  0  0
   -0.9485   -0.4087    0.3482 C   0  0  1  0  0  0  0  0  0  0  0  0
   -1.1694    0.6322    0.1068 H   0  0  0  0  0  0  0  0  0  0  0  0
   -0.3175   -0.4571    1.7503 C   0  0  0  0  0  0  0  0  0  0  0  0
   -0.2242   -1.4984    2.0621 H   0  0  0  0  0  0  0  0  0  0  0  0
    0.6890   -0.0389    1.6999 H   0  0  0  0  0  0  0  0  0  0  0  0
   -1.1139    0.2811    2.8093 C   0  0  0  0  0  0  0  0  0  0  0  0
   -1.0072    1.6791    2.9366 C   0  0  0  0  0  0  0  0  0  0  0  0
   -0.3380    2.2332    2.2935 H   0  0  0  0  0  0  0  0  0  0  0  0
   -1.7802    2.3617    3.8939 C   0  0  0  0  0  0  0  0  0  0  0  0
   -1.6948    3.4349    3.9917 H   0  0  0  0  0  0  0  0  0  0  0  0
   -2.6620    1.6487    4.7237 C   0  0  0  0  0  0  0  0  0  0  0  0
   -3.2541    2.1729    5.4608 H   0  0  0  0  0  0  0  0  0  0  0  0
   -2.7699    0.2516    4.6002 C   0  0  0  0  0  0  0  0  0  0  0  0
   -3.4436   -0.2973    5.2417 H   0  0  0  0  0  0  0  0  0  0  0  0
   -1.9948   -0.4307    3.6457 C   0  0  0  0  0  0  0  0  0  0  0  0
   -2.0763   -1.5060    3.5539 H   0  0  0  0  0  0  0  0  0  0  0  0
    0.0088   -0.9464   -0.7307 C   0  0  0  0  0  0  0  0  0  0  0  0
    0.3937   -0.2099   -1.6399 O   0  0  0  0  0  0  0  0  0  0  0  0
    0.3884   -2.2270   -0.6358 N   0  0  0  0  0  0  0  0  0  0  0  0
   -0.0137   -2.7809    0.1051 H   0  0  0  0  0  0  0  0  0  0  0  0
    1.2826   -2.8918   -1.5806 C   0  0  0  0  0  0  0  0  0  0  0  0
    2.1951   -2.3042   -1.7019 H   0  0  0  0  0  0  0  0  0  0  0  0
    1.5415   -3.8870   -1.2183 H   0  0  0  0  0  0  0  0  0  0  0  0
    0.7920   -2.9780   -2.5521 H   0  0  0  0  0  0  0  0  0  0  0  0
  5  6  2  0  0  0  0
  5  7  1  0  0  0  0
  2  3  1  0  0  0  0
  2  4  1  0  0  0  0
  2  5  1  0  0  0  0
  1  2  1  0  0  0  0
 25 26  2  0  0  0  0
 25 27  1  0  0  0  0
 23 24  1  0  0  0  0
 21 22  1  0  0  0  0
 21 23  2  0  0  0  0
 19 20  1  0  0  0  0
 19 21  1  0  0  0  0
 17 18  1  0  0  0  0
 17 19  2  0  0  0  0
 15 16  1  0  0  0  0
 15 17  1  0  0  0  0
 14 15  2  0  0  0  0
 14 23  1  0  0  0  0
 11 12  1  0  0  0  0
 11 13  1  0  0  0  0
 11 14  1  0  0  0  0
  9 10  1  0  0  0  0
  9 11  1  0  0  0  0
  9 25  1  0  0  0  0
  7  8  1  0  0  0  0
  7  9  1  0  0  0  0
 29 30  1  0  0  0  0
 29 31  1  0  0  0  0
 29 32  1  0  0  0  0
 27 28  1  0  0  0  0
 27 29  1  0  0  0  0
M  END
$$$$
default_name
  -OEChem-01062215323D

 32 32  0     1  0  0  0  0  0999 V2000
   -3.8405   -3.7518    1.6252 H   0  0  0  0  0  0  0  0  0  0  0  0
   -3.7965   -2.8768    0.9782 C   0  0  0  0  0  0  0  0  0  0  0  0
   -4.5465   -2.1527    1.2902 H   0  0  0  0  0  0  0  0  0  0  0  0
   -3.9745   -3.1748   -0.0538 H   0  0  0  0  0  0  0  0  0  0  0  0
   -2.4245   -2.2537    1.0882 C   0  0  0  0  0  0  0  0  0  0  0  0
   -1.5805   -2.7478    1.8242 O   0  0  0  0  0  0  0  0  0  0  0  0
   -2.2045   -1.1637    0.3562 N   0  0  0  0  0  0  0  0  0  0  0  0
   -2.9595   -0.7907   -0.2008 H   0  0  0  0  0  0  0  0  0  0  0  0
   -0.9485   -0.4087    0.3482 C   0  0  1  0  0  0  0  0  0  0  0  0
   -1.1694    0.6322    0.1068 H   0  0  0  0  0  0  0  0  0  0  0  0
   -0.3175   -0.4571    1.7503 C   0  0  0  0  0  0  0  0  0  0  0  0
   -0.2242   -1.4984    2.0621 H   0  0  0  0  0  0  0  0  0  0  0  0
    0.6890   -0.0389    1.6999 H   0  0  0  0  0  0  0  0  0  0  0  0
   -1.1139    0.2811    2.8093 C   0  0  0  0  0  0  0  0  0  0  0  0
   -1.0072    1.6791    2.9366 C   0  0  0  0  0  0  0  0  0  0  0  0
   -0.3380    2.2332    2.2935 H   0  0  0  0  0  0  0  0  0  0  0  0
   -1.7802    2.3617    3.8939 C   0  0  0  0  0  0  0  0  0  0  0  0
   -1.6948    3.4349    3.9917 H   0  0  0  0  0  0  0  0  0  0  0  0
   -2.6620    1.6487    4.7237 C   0  0  0  0  0  0  0  0  0  0  0  0
   -3.2541    2.1729    5.4608 H   0  0  0  0  0  0  0  0  0  0  0  0
   -2.7699    0.2516    4.6002 C   0  0  0  0  0  0  0  0  0  0  0  0
   -3.4436   -0.2973    5.2417 H   0  0  0  0  0  0  0  0  0  0  0  0
   -1.9948   -0.4307    3.6457 C   0  0  0  0  0  0  0  0  0  0  0  0
   -2.0763   -1.5060    3.5539 H   0  0  0  0  0  0  0  0  0  0  0  0
    0.0088   -0.9464   -0.7307 C   0  0  0  0  0  0  0  0  0  0  0  0
    0.6095   -0.1658   -1.4704 O   0  0  0  0  0  0  0  0  0  0  0  0
    0.1476   -2.2749   -0.8255 N   0  0  0  0  0  0  0  0  0  0  0  0
   -0.4204   -2.8494   -0.2217 H   0  0  0  0  0  0  0  0  0  0  0  0
    1.0070   -2.9443   -1.7990 C   0  0  0  0  0  0  0  0  0  0  0  0
    2.0154   -2.5281   -1.7498 H   0  0  0  0  0  0  0  0  0  0  0  0
    1.0491   -4.0140   -1.5919 H   0  0  0  0  0  0  0  0  0  0  0  0
    0.6139   -2.7871   -2.8053 H   0  0  0  0  0  0  0  0  0  0  0  0
  5  6  2  0  0  0  0
  5  7  1  0  0  0  0
  2  3  1  0  0  0  0
  2  4  1  0  0  0  0
  2  5  1  0  0  0  0
  1  2  1  0  0  0  0
 25 26  2  0  0  0  0
 25 27  1  0  0  0  0
 23 24  1  0  0  0  0
 21 22  1  0  0  0  0
 21 23  2  0  0  0  0
 19 20  1  0  0  0  0
 19 21  1  0  0  0  0
 17 18  1  0  0  0  0
 17 19  2  0  0  0  0
 15 16  1  0  0  0  0
 15 17  1  0  0  0  0
 14 15  2  0  0  0  0
 14 23  1  0  0  0  0
 11 12  1  0  0  0  0
 11 13  1  0  0  0  0
 11 14  1  0  0  0  0
  9 10  1  0  0  0  0
  9 11  1  0  0  0  0
  9 25  1  0  0  0  0
  7  8  1  0  0  0  0
  7  9  1  0  0  0  0
 29 30  1  0  0  0  0
 29 31  1  0  0  0  0
 29 32  1  0  0  0  0
 27 28  1  0  0  0  0
 27 29  1  0  0  0  0
M  END
$$$$
default_name
  -OEChem-01062215323D

 32 32  0     1  0  0  0  0  0999 V2000
   -3.8405   -3.7518    1.6252 H   0  0  0  0  0  0  0  0  0  0  0  0
   -3.7965   -2.8768    0.9782 C   0  0  0  0  0  0  0  0  0  0  0  0
   -4.5465   -2.1527    1.2902 H   0  0  0  0  0  0  0  0  0  0  0  0
   -3.9745   -3.1748   -0.0538 H   0  0  0  0  0  0  0  0  0  0  0  0
   -2.4245   -2.2537    1.0882 C   0  0  0  0  0  0  0  0  0  0  0  0
   -1.5805   -2.7478    1.8242 O   0  0  0  0  0  0  0  0  0  0  0  0
   -2.2045   -1.1637    0.3562 N   0  0  0  0  0  0  0  0  0  0  0  0
   -2.9595   -0.7907   -0.2008 H   0  0  0  0  0  0  0  0  0  0  0  0
   -0.9485   -0.4087    0.3482 C   0  0  1  0  0  0  0  0  0  0  0  0
   -1.1694    0.6322    0.1068 H   0  0  0  0  0  0  0  0  0  0  0  0
   -0.3175   -0.4571    1.7503 C   0  0  0  0  0  0  0  0  0  0  0  0
   -0.2242   -1.4984    2.0621 H   0  0  0  0  0  0  0  0  0  0  0  0
    0.6890   -0.0389    1.6999 H   0  0  0  0  0  0  0  0  0  0  0  0
   -1.1139    0.2811    2.8093 C   0  0  0  0  0  0  0  0  0  0  0  0
   -1.0072    1.6791    2.9366 C   0  0  0  0  0  0  0  0  0  0  0  0
   -0.3380    2.2332    2.2935 H   0  0  0  0  0  0  0  0  0  0  0  0
   -1.7802    2.3617    3.8939 C   0  0  0  0  0  0  0  0  0  0  0  0
   -1.6948    3.4349    3.9917 H   0  0  0  0  0  0  0  0  0  0  0  0
   -2.6620    1.6487    4.7237 C   0  0  0  0  0  0  0  0  0  0  0  0
   -3.2541    2.1729    5.4608 H   0  0  0  0  0  0  0  0  0  0  0  0
   -2.7699    0.2516    4.6002 C   0  0  0  0  0  0  0  0  0  0  0  0
   -3.4436   -0.2973    5.2417 H   0  0  0  0  0  0  0  0  0  0  0  0
   -1.9948   -0.4307    3.6457 C   0  0  0  0  0  0  0  0  0  0  0  0
   -2.0763   -1.5060    3.5539 H   0  0  0  0  0  0  0  0  0  0  0  0
    0.0088   -0.9464   -0.7307 C   0  0  0  0  0  0  0  0  0  0  0  0
    0.8107   -0.1897   -1.2800 O   0  0  0  0  0  0  0  0  0  0  0  0
   -0.0765   -2.2469   -1.0383 N   0  0  0  0  0  0  0  0  0  0  0  0
   -0.7961   -2.7891   -0.5851 H   0  0  0  0  0  0  0  0  0  0  0  0
    0.7509   -2.9100   -2.0433 C   0  0  0  0  0  0  0  0  0  0  0  0
    1.8055   -2.7041   -1.8483 H   0  0  0  0  0  0  0  0  0  0  0  0
    0.5843   -3.9872   -2.0177 H   0  0  0  0  0  0  0  0  0  0  0  0
    0.4993   -2.5297   -3.0352 H   0  0  0  0  0  0  0  0  0  0  0  0
  5  6  2  0  0  0  0
  5  7  1  0  0  0  0
  2  3  1  0  0  0  0
  2  4  1  0  0  0  0
  2  5  1  0  0  0  0
  1  2  1  0  0  0  0
 25 26  2  0  0  0  0
 25 27  1  0  0  0  0
 23 24  1  0  0  0  0
 21 22  1  0  0  0  0
 21 23  2  0  0  0  0
 19 20  1  0  0  0  0
 19 21  1  0  0  0  0
 17 18  1  0  0  0  0
 17 19  2  0  0  0  0
 15 16  1  0  0  0  0
 15 17  1  0  0  0  0
 14 15  2  0  0  0  0
 14 23  1  0  0  0  0
 11 12  1  0  0  0  0
 11 13  1  0  0  0  0
 11 14  1  0  0  0  0
  9 10  1  0  0  0  0
  9 11  1  0  0  0  0
  9 25  1  0  0  0  0
  7  8  1  0  0  0  0
  7  9  1  0  0  0  0
 29 30  1  0  0  0  0
 29 31  1  0  0  0  0
 29 32  1  0  0  0  0
 27 28  1  0  0  0  0
 27 29  1  0  0  0  0
M  END
$$$$
default_name
  -OEChem-01062215323D

 32 32  0     1  0  0  0  0  0999 V2000
   -3.8405   -3.7518    1.6252 H   0  0  0  0  0  0  0  0  0  0  0  0
   -3.7965   -2.8768    0.9782 C   0  0  0  0  0  0  0  0  0  0  0  0
   -4.5465   -2.1527    1.2902 H   0  0  0  0  0  0  0  0  0  0  0  0
   -3.9745   -3.1748   -0.0538 H   0  0  0  0  0  0  0  0  0  0  0  0
   -2.4245   -2.2537    1.0882 C   0  0  0  0  0  0  0  0  0  0  0  0
   -1.5805   -2.7478    1.8242 O   0  0  0  0  0  0  0  0  0  0  0  0
   -2.2045   -1.1637    0.3562 N   0  0  0  0  0  0  0  0  0  0  0  0
   -2.9595   -0.7907   -0.2008 H   0  0  0  0  0  0  0  0  0  0  0  0
   -0.9485   -0.4087    0.3482 C   0  0  1  0  0  0  0  0  0  0  0  0
   -1.1694    0.6322    0.1068 H   0  0  0  0  0  0  0  0  0  0  0  0
   -0.3175   -0.4571    1.7503 C   0  0  0  0  0  0  0  0  0  0  0  0
   -0.2242   -1.4984    2.0621 H   0  0  0  0  0  0  0  0  0  0  0  0
    0.6890   -0.0389    1.6999 H   0  0  0  0  0  0  0  0  0  0  0  0
   -1.1139    0.2811    2.8093 C   0  0  0  0  0  0  0  0  0  0  0  0
   -1.0072    1.6791    2.9366 C   0  0  0  0  0  0  0  0  0  0  0  0
   -0.3380    2.2332    2.2935 H   0  0  0  0  0  0  0  0  0  0  0  0
   -1.7802    2.3617    3.8939 C   0  0  0  0  0  0  0  0  0  0  0  0
   -1.6948    3.4349    3.9917 H   0  0  0  0  0  0  0  0  0  0  0  0
   -2.6620    1.6487    4.7237 C   0  0  0  0  0  0  0  0  0  0  0  0
   -3.2541    2.1729    5.4608 H   0  0  0  0  0  0  0  0  0  0  0  0
   -2.7699    0.2516    4.6002 C   0  0  0  0  0  0  0  0  0  0  0  0
   -3.4436   -0.2973    5.2417 H   0  0  0  0  0  0  0  0  0  0  0  0
   -1.9948   -0.4307    3.6457 C   0  0  0  0  0  0  0  0  0  0  0  0
   -2.0763   -1.5060    3.5539 H   0  0  0  0  0  0  0  0  0  0  0  0
    0.0088   -0.9464   -0.7307 C   0  0  0  0  0  0  0  0  0  0  0  0
    0.9834   -0.2799   -1.0818 O   0  0  0  0  0  0  0  0  0  0  0  0
   -0.2686   -2.1449   -1.2596 N   0  0  0  0  0  0  0  0  0  0  0  0
   -1.1152   -2.6042   -0.9604 H   0  0  0  0  0  0  0  0  0  0  0  0
    0.5319   -2.7910   -2.2969 C   0  0  0  0  0  0  0  0  0  0  0  0
    1.5798   -2.8202   -1.9908 H   0  0  0  0  0  0  0  0  0  0  0  0
    0.1786   -3.8084   -2.4667 H   0  0  0  0  0  0  0  0  0  0  0  0
    0.4562   -2.2232   -3.2263 H   0  0  0  0  0  0  0  0  0  0  0  0
  5  6  2  0  0  0  0
  5  7  1  0  0  0  0
  2  3  1  0  0  0  0
  2  4  1  0  0  0  0
  2  5  1  0  0  0  0
  1  2  1  0  0  0  0
 25 26  2  0  0  0  0
 25 27  1  0  0  0  0
 23 24  1  0  0  0  0
 21 22  1  0  0  0  0
 21 23  2  0  0  0  0
 19 20  1  0  0  0  0
 19 21  1  0  0  0  0
 17 18  1  0  0  0  0
 17 19  2  0  0  0  0
 15 16  1  0  0  0  0
 15 17  1  0  0  0  0
 14 15  2  0  0  0  0
 14 23  1  0  0  0  0
 11 12  1  0  0  0  0
 11 13  1  0  0  0  0
 11 14  1  0  0  0  0
  9 10  1  0  0  0  0
  9 11  1  0  0  0  0
  9 25  1  0  0  0  0
  7  8  1  0  0  0  0
  7  9  1  0  0  0  0
 29 30  1  0  0  0  0
 29 31  1  0  0  0  0
 29 32  1  0  0  0  0
 27 28  1  0  0  0  0
 27 29  1  0  0  0  0
M  END
$$$$
default_name
  -OEChem-01062215323D

 32 32  0     1  0  0  0  0  0999 V2000
   -3.8405   -3.7518    1.6252 H   0  0  0  0  0  0  0  0  0  0  0  0
   -3.7965   -2.8768    0.9782 C   0  0  0  0  0  0  0  0  0  0  0  0
   -4.5465   -2.1527    1.2902 H   0  0  0  0  0  0  0  0  0  0  0  0
   -3.9745   -3.1748   -0.0538 H   0  0  0  0  0  0  0  0  0  0  0  0
   -2.4245   -2.2537    1.0882 C   0  0  0  0  0  0  0  0  0  0  0  0
   -1.5805   -2.7478    1.8242 O   0  0  0  0  0  0  0  0  0  0  0  0
   -2.2045   -1.1637    0.3562 N   0  0  0  0  0  0  0  0  0  0  0  0
   -2.9595   -0.7907   -0.2008 H   0  0  0  0  0  0  0  0  0  0  0  0
   -0.9485   -0.4087    0.3482 C   0  0  1  0  0  0  0  0  0  0  0  0
   -1.1694    0.6322    0.1068 H   0  0  0  0  0  0  0  0  0  0  0  0
   -0.3175   -0.4571    1.7503 C   0  0  0  0  0  0  0  0  0  0  0  0
   -0.2242   -1.4984    2.0621 H   0  0  0  0  0  0  0  0  0  0  0  0
    0.6890   -0.0389    1.6999 H   0  0  0  0  0  0  0  0  0  0  0  0
   -1.1139    0.2811    2.8093 C   0  0  0  0  0  0  0  0  0  0  0  0
   -1.0072    1.6791    2.9366 C   0  0  0  0  0  0  0  0  0  0  0  0
   -0.3380    2.2332    2.2935 H   0  0  0  0  0  0  0  0  0  0  0  0
   -1.7802    2.3617    3.8939 C   0  0  0  0  0  0  0  0  0  0  0  0
   -1.6948    3.4349    3.9917 H   0  0  0  0  0  0  0  0  0  0  0  0
   -2.6620    1.6487    4.7237 C   0  0  0  0  0  0  0  0  0  0  0  0
   -3.2541    2.1729    5.4608 H   0  0  0  0  0  0  0  0  0  0  0  0
   -2.7699    0.2516    4.6002 C   0  0  0  0  0  0  0  0  0  0  0  0
   -3.4436   -0.2973    5.2417 H   0  0  0  0  0  0  0  0  0  0  0  0
   -1.9948   -0.4307    3.6457 C   0  0  0  0  0  0  0  0  0  0  0  0
   -2.0763   -1.5060    3.5539 H   0  0  0  0  0  0  0  0  0  0  0  0
    0.0088   -0.9464   -0.7307 C   0  0  0  0  0  0  0  0  0  0  0  0
    1.1160   -0.4303   -0.8892 O   0  0  0  0  0  0  0  0  0  0  0  0
   -0.4156   -1.9760   -1.4743 N   0  0  0  0  0  0  0  0  0  0  0  0
   -1.3560   -2.3073   -1.3220 H   0  0  0  0  0  0  0  0  0  0  0  0
    0.3649   -2.5956   -2.5425 C   0  0  0  0  0  0  0  0  0  0  0  0
    1.3535   -2.8684   -2.1675 H   0  0  0  0  0  0  0  0  0  0  0  0
   -0.1402   -3.4899   -2.9084 H   0  0  0  0  0  0  0  0  0  0  0  0
    0.4874   -1.8886   -3.3654 H   0  0  0  0  0  0  0  0  0  0  0  0
  5  6  2  0  0  0  0
  5  7  1  0  0  0  0
  2  3  1  0  0  0  0
  2  4  1  0  0  0  0
  2  5  1  0  0  0  0
  1  2  1  0  0  0  0
 25 26  2  0  0  0  0
 25 27  1  0  0  0  0
 23 24  1  0  0  0  0
 21 22  1  0  0  0  0
 21 23  2  0  0  0  0
 19 20  1  0  0  0  0
 19 21  1  0  0  0  0
 17 18  1  0  0  0  0
 17 19  2  0  0  0  0
 15 16  1  0  0  0  0
 15 17  1  0  0  0  0
 14 15  2  0  0  0  0
 14 23  1  0  0  0  0
 11 12  1  0  0  0  0
 11 13  1  0  0  0  0
 11 14  1  0  0  0  0
  9 10  1  0  0  0  0
  9 11  1  0  0  0  0
  9 25  1  0  0  0  0
  7  8  1  0  0  0  0
  7  9  1  0  0  0  0
 29 30  1  0  0  0  0
 29 31  1  0  0  0  0
 29 32  1  0  0  0  0
 27 28  1  0  0  0  0
 27 29  1  0  0  0  0
M  END
$$$$
default_name
  -OEChem-01062215323D

 32 32  0     1  0  0  0  0  0999 V2000
   -3.8405   -3.7518    1.6252 H   0  0  0  0  0  0  0  0  0  0  0  0
   -3.7965   -2.8768    0.9782 C   0  0  0  0  0  0  0  0  0  0  0  0
   -4.5465   -2.1527    1.2902 H   0  0  0  0  0  0  0  0  0  0  0  0
   -3.9745   -3.1748   -0.0538 H   0  0  0  0  0  0  0  0  0  0  0  0
   -2.4245   -2.2537    1.0882 C   0  0  0  0  0  0  0  0  0  0  0  0
   -1.5805   -2.7478    1.8242 O   0  0  0  0  0  0  0  0  0  0  0  0
   -2.2045   -1.1637    0.3562 N   0  0  0  0  0  0  0  0  0  0  0  0
   -2.9595   -0.7907   -0.2008 H   0  0  0  0  0  0  0  0  0  0  0  0
   -0.9485   -0.4087    0.3482 C   0  0  1  0  0  0  0  0  0  0  0  0
   -1.1694    0.6322    0.1068 H   0  0  0  0  0  0  0  0  0  0  0  0
   -0.3175   -0.4571    1.7503 C   0  0  0  0  0  0  0  0  0  0  0  0
   -0.2242   -1.4984    2.0621 H   0  0  0  0  0  0  0  0  0  0  0  0
    0.6890   -0.0389    1.6999 H   0  0  0  0  0  0  0  0  0  0  0  0
   -1.1139    0.2811    2.8093 C   0  0  0  0  0  0  0  0  0  0  0  0
   -1.0072    1.6791    2.9366 C   0  0  0  0  0  0  0  0  0  0  0  0
   -0.3380    2.2332    2.2935 H   0  0  0  0  0  0  0  0  0  0  0  0
   -1.7802    2.3617    3.8939 C   0  0  0  0  0  0  0  0  0  0  0  0
   -1.6948    3.4349    3.9917 H   0  0  0  0  0  0  0  0  0  0  0  0
   -2.6620    1.6487    4.7237 C   0  0  0  0  0  0  0  0  0  0  0  0
   -3.2541    2.1729    5.4608 H   0  0  0  0  0  0  0  0  0  0  0  0
   -2.7699    0.2516    4.6002 C   0  0  0  0  0  0  0  0  0  0  0  0
   -3.4436   -0.2973    5.2417 H   0  0  0  0  0  0  0  0  0  0  0  0
   -1.9948   -0.4307    3.6457 C   0  0  0  0  0  0  0  0  0  0  0  0
   -2.0763   -1.5060    3.5539 H   0  0  0  0  0  0  0  0  0  0  0  0
    0.0088   -0.9464   -0.7307 C   0  0  0  0  0  0  0  0  0  0  0  0
    1.1993   -0.6305   -0.7154 O   0  0  0  0  0  0  0  0  0  0  0  0
   -0.5076   -1.7515   -1.6678 N   0  0  0  0  0  0  0  0  0  0  0  0
   -1.5020   -1.9187   -1.6453 H   0  0  0  0  0  0  0  0  0  0  0  0
    0.2612   -2.3369   -2.7634 C   0  0  0  0  0  0  0  0  0  0  0  0
    1.1423   -2.8455   -2.3664 H   0  0  0  0  0  0  0  0  0  0  0  0
   -0.3504   -3.0534   -3.3125 H   0  0  0  0  0  0  0  0  0  0  0  0
    0.5907   -1.5486   -3.4431 H   0  0  0  0  0  0  0  0  0  0  0  0
  5  6  2  0  0  0  0
  5  7  1  0  0  0  0
  2  3  1  0  0  0  0
  2  4  1  0  0  0  0
  2  5  1  0  0  0  0
  1  2  1  0  0  0  0
 25 26  2  0  0  0  0
 25 27  1  0  0  0  0
 23 24  1  0  0  0  0
 21 22  1  0  0  0  0
 21 23  2  0  0  0  0
 19 20  1  0  0  0  0
 19 21  1  0  0  0  0
 17 18  1  0  0  0  0
 17 19  2  0  0  0  0
 15 16  1  0  0  0  0
 15 17  1  0  0  0  0
 14 15  2  0  0  0  0
 14 23  1  0  0  0  0
 11 12  1  0  0  0  0
 11 13  1  0  0  0  0
 11 14  1  0  0  0  0
  9 10  1  0  0  0  0
  9 11  1  0  0  0  0
  9 25  1  0  0  0  0
  7  8  1  0  0  0  0
  7  9  1  0  0  0  0
 29 30  1  0  0  0  0
 29 31  1  0  0  0  0
 29 32  1  0  0  0  0
 27 28  1  0  0  0  0
 27 29  1  0  0  0  0
M  END
$$$$
default_name
  -OEChem-01062215323D

 32 32  0     1  0  0  0  0  0999 V2000
   -3.8405   -3.7518    1.6252 H   0  0  0  0  0  0  0  0  0  0  0  0
   -3.7965   -2.8768    0.9782 C   0  0  0  0  0  0  0  0  0  0  0  0
   -4.5465   -2.1527    1.2902 H   0  0  0  0  0  0  0  0  0  0  0  0
   -3.9745   -3.1748   -0.0538 H   0  0  0  0  0  0  0  0  0  0  0  0
   -2.4245   -2.2537    1.0882 C   0  0  0  0  0  0  0  0  0  0  0  0
   -1.5805   -2.7478    1.8242 O   0  0  0  0  0  0  0  0  0  0  0  0
   -2.2045   -1.1637    0.3562 N   0  0  0  0  0  0  0  0  0  0  0  0
   -2.9595   -0.7907   -0.2008 H   0  0  0  0  0  0  0  0  0  0  0  0
   -0.9485   -0.4087    0.3482 C   0  0  1  0  0  0  0  0  0  0  0  0
   -1.1694    0.6322    0.1068 H   0  0  0  0  0  0  0  0  0  0  0  0
   -0.3175   -0.4571    1.7503 C   0  0  0  0  0  0  0  0  0  0  0  0
   -0.2242   -1.4984    2.0621 H   0  0  0  0  0  0  0  0  0  0  0  0
    0.6890   -0.0389    1.6999 H   0  0  0  0  0  0  0  0  0  0  0  0
   -1.1139    0.2811    2.8093 C   0  0  0  0  0  0  0  0  0  0  0  0
   -1.0072    1.6791    2.9366 C   0  0  0  0  0  0  0  0  0  0  0  0
   -0.3380    2.2332    2.2935 H   0  0  0  0  0  0  0  0  0  0  0  0
   -1.7802    2.3617    3.8939 C   0  0  0  0  0  0  0  0  0  0  0  0
   -1.6948    3.4349    3.9917 H   0  0  0  0  0  0  0  0  0  0  0  0
   -2.6620    1.6487    4.7237 C   0  0  0  0  0  0  0  0  0  0  0  0
   -3.2541    2.1729    5.4608 H   0  0  0  0  0  0  0  0  0  0  0  0
   -2.7699    0.2516    4.6002 C   0  0  0  0  0  0  0  0  0  0  0  0
   -3.4436   -0.2973    5.2417 H   0  0  0  0  0  0  0  0  0  0  0  0
   -1.9948   -0.4307    3.6457 C   0  0  0  0  0  0  0  0  0  0  0  0
   -2.0763   -1.5060    3.5539 H   0  0  0  0  0  0  0  0  0  0  0  0
    0.0088   -0.9464   -0.7307 C   0  0  0  0  0  0  0  0  0  0  0  0
    1.2278   -0.8671   -0.5723 O   0  0  0  0  0  0  0  0  0  0  0  0
   -0.5383   -1.4869   -1.8269 N   0  0  0  0  0  0  0  0  0  0  0  0
   -1.5434   -1.4647   -1.9082 H   0  0  0  0  0  0  0  0  0  0  0  0
    0.2280   -2.0327   -2.9445 C   0  0  0  0  0  0  0  0  0  0  0  0
    0.9603   -2.7531   -2.5739 H   0  0  0  0  0  0  0  0  0  0  0  0
   -0.4377   -2.5285   -3.6516 H   0  0  0  0  0  0  0  0  0  0  0  0
    0.7593   -1.2265   -3.4540 H   0  0  0  0  0  0  0  0  0  0  0  0
  5  6  2  0  0  0  0
  5  7  1  0  0  0  0
  2  3  1  0  0  0  0
  2  4  1  0  0  0  0
  2  5  1  0  0  0  0
  1  2  1  0  0  0  0
 25 26  2  0  0  0  0
 25 27  1  0  0  0  0
 23 24  1  0  0  0  0
 21 22  1  0  0  0  0
 21 23  2  0  0  0  0
 19 20  1  0  0  0  0
 19 21  1  0  0  0  0
 17 18  1  0  0  0  0
 17 19  2  0  0  0  0
 15 16  1  0  0  0  0
 15 17  1  0  0  0  0
 14 15  2  0  0  0  0
 14 23  1  0  0  0  0
 11 12  1  0  0  0  0
 11 13  1  0  0  0  0
 11 14  1  0  0  0  0
  9 10  1  0  0  0  0
  9 11  1  0  0  0  0
  9 25  1  0  0  0  0
  7  8  1  0  0  0  0
  7  9  1  0  0  0  0
 29 30  1  0  0  0  0
 29 31  1  0  0  0  0
 29 32  1  0  0  0  0
 27 28  1  0  0  0  0
 27 29  1  0  0  0  0
M  END
$$$$
default_name
  -OEChem-01062215323D

 32 32  0     1  0  0  0  0  0999 V2000
   -3.8405   -3.7518    1.6252 H   0  0  0  0  0  0  0  0  0  0  0  0
   -3.7965   -2.8768    0.9782 C   0  0  0  0  0  0  0  0  0  0  0  0
   -4.5465   -2.1527    1.2902 H   0  0  0  0  0  0  0  0  0  0  0  0
   -3.9745   -3.1748   -0.0538 H   0  0  0  0  0  0  0  0  0  0  0  0
   -2.4245   -2.2537    1.0882 C   0  0  0  0  0  0  0  0  0  0  0  0
   -1.5805   -2.7478    1.8242 O   0  0  0  0  0  0  0  0  0  0  0  0
   -2.2045   -1.1637    0.3562 N   0  0  0  0  0  0  0  0  0  0  0  0
   -2.9595   -0.7907   -0.2008 H   0  0  0  0  0  0  0  0  0  0  0  0
   -0.9485   -0.4087    0.3482 C   0  0  1  0  0  0  0  0  0  0  0  0
   -1.1694    0.6322    0.1068 H   0  0  0  0  0  0  0  0  0  0  0  0
   -0.3175   -0.4571    1.7503 C   0  0  0  0  0  0  0  0  0  0  0  0
   -0.2242   -1.4984    2.0621 H   0  0  0  0  0  0  0  0  0  0  0  0
    0.6890   -0.0389    1.6999 H   0  0  0  0  0  0  0  0  0  0  0  0
   -1.1139    0.2811    2.8093 C   0  0  0  0  0  0  0  0  0  0  0  0
   -1.0072    1.6791    2.9366 C   0  0  0  0  0  0  0  0  0  0  0  0
   -0.3380    2.2332    2.2935 H   0  0  0  0  0  0  0  0  0  0  0  0
   -1.7802    2.3617    3.8939 C   0  0  0  0  0  0  0  0  0  0  0  0
   -1.6948    3.4349    3.9917 H   0  0  0  0  0  0  0  0  0  0  0  0
   -2.6620    1.6487    4.7237 C   0  0  0  0  0  0  0  0  0  0  0  0
   -3.2541    2.1729    5.4608 H   0  0  0  0  0  0  0  0  0  0  0  0
   -2.7699    0.2516    4.6002 C   0  0  0  0  0  0  0  0  0  0  0  0
   -3.4436   -0.2973    5.2417 H   0  0  0  0  0  0  0  0  0  0  0  0
   -1.9948   -0.4307    3.6457 C   0  0  0  0  0  0  0  0  0  0  0  0
   -2.0763   -1.5060    3.5539 H   0  0  0  0  0  0  0  0  0  0  0  0
    0.0088   -0.9464   -0.7307 C   0  0  0  0  0  0  0  0  0  0  0  0
    1.1995   -1.1238   -0.4695 O   0  0  0  0  0  0  0  0  0  0  0  0
   -0.5055   -1.2002   -1.9407 N   0  0  0  0  0  0  0  0  0  0  0  0
   -1.4772   -0.9765   -2.0928 H   0  0  0  0  0  0  0  0  0  0  0  0
    0.2674   -1.7037   -3.0735 C   0  0  0  0  0  0  0  0  0  0  0  0
    0.8201   -2.5973   -2.7759 H   0  0  0  0  0  0  0  0  0  0  0  0
   -0.3962   -1.9510   -3.9025 H   0  0  0  0  0  0  0  0  0  0  0  0
    0.9815   -0.9442   -3.3975 H   0  0  0  0  0  0  0  0  0  0  0  0
  5  6  2  0  0  0  0
  5  7  1  0  0  0  0
  2  3  1  0  0  0  0
  2  4  1  0  0  0  0
  2  5  1  0  0  0  0
  1  2  1  0  0  0  0
 25 26  2  0  0  0  0
 25 27  1  0  0  0  0
 23 24  1  0  0  0  0
 21 22  1  0  0  0  0
 21 23  2  0  0  0  0
 19 20  1  0  0  0  0
 19 21  1  0  0  0  0
 17 18  1  0  0  0  0
 17 19  2  0  0  0  0
 15 16  1  0  0  0  0
 15 17  1  0  0  0  0
 14 15  2  0  0  0  0
 14 23  1  0  0  0  0
 11 12  1  0  0  0  0
 11 13  1  0  0  0  0
 11 14  1  0  0  0  0
  9 10  1  0  0  0  0
  9 11  1  0  0  0  0
  9 25  1  0  0  0  0
  7  8  1  0  0  0  0
  7  9  1  0  0  0  0
 29 30  1  0  0  0  0
 29 31  1  0  0  0  0
 29 32  1  0  0  0  0
 27 28  1  0  0  0  0
 27 29  1  0  0  0  0
M  END
$$$$
default_name
  -OEChem-01062215323D

 32 32  0     1  0  0  0  0  0999 V2000
   -3.8405   -3.7518    1.6252 H   0  0  0  0  0  0  0  0  0  0  0  0
   -3.7965   -2.8768    0.9782 C   0  0  0  0  0  0  0  0  0  0  0  0
   -4.5465   -2.1527    1.2902 H   0  0  0  0  0  0  0  0  0  0  0  0
   -3.9745   -3.1748   -0.0538 H   0  0  0  0  0  0  0  0  0  0  0  0
   -2.4245   -2.2537    1.0882 C   0  0  0  0  0  0  0  0  0  0  0  0
   -1.5805   -2.7478    1.8242 O   0  0  0  0  0  0  0  0  0  0  0  0
   -2.2045   -1.1637    0.3562 N   0  0  0  0  0  0  0  0  0  0  0  0
   -2.9595   -0.7907   -0.2008 H   0  0  0  0  0  0  0  0  0  0  0  0
   -0.9485   -0.4087    0.3482 C   0  0  1  0  0  0  0  0  0  0  0  0
   -1.1694    0.6322    0.1068 H   0  0  0  0  0  0  0  0  0  0  0  0
   -0.3175   -0.4571    1.7503 C   0  0  0  0  0  0  0  0  0  0  0  0
   -0.2242   -1.4984    2.0621 H   0  0  0  0  0  0  0  0  0  0  0  0
    0.6890   -0.0389    1.6999 H   0  0  0  0  0  0  0  0  0  0  0  0
   -1.1139    0.2811    2.8093 C   0  0  0  0  0  0  0  0  0  0  0  0
   -1.0072    1.6791    2.9366 C   0  0  0  0  0  0  0  0  0  0  0  0
   -0.3380    2.2332    2.2935 H   0  0  0  0  0  0  0  0  0  0  0  0
   -1.7802    2.3617    3.8939 C   0  0  0  0  0  0  0  0  0  0  0  0
   -1.6948    3.4349    3.9917 H   0  0  0  0  0  0  0  0  0  0  0  0
   -2.6620    1.6487    4.7237 C   0  0  0  0  0  0  0  0  0  0  0  0
   -3.2541    2.1729    5.4608 H   0  0  0  0  0  0  0  0  0  0  0  0
   -2.7699    0.2516    4.6002 C   0  0  0  0  0  0  0  0  0  0  0  0
   -3.4436   -0.2973    5.2417 H   0  0  0  0  0  0  0  0  0  0  0  0
   -1.9948   -0.4307    3.6457 C   0  0  0  0  0  0  0  0  0  0  0  0
   -2.0763   -1.5060    3.5539 H   0  0  0  0  0  0  0  0  0  0  0  0
    0.0088   -0.9464   -0.7307 C   0  0  0  0  0  0  0  0  0  0  0  0
    1.1162   -1.3832   -0.4141 O   0  0  0  0  0  0  0  0  0  0  0  0
   -0.4116   -0.9108   -2.0015 N   0  0  0  0  0  0  0  0  0  0  0  0
   -1.3080   -0.4871   -2.1865 H   0  0  0  0  0  0  0  0  0  0  0  0
    0.3768   -1.3724   -3.1416 C   0  0  0  0  0  0  0  0  0  0  0  0
    0.7312   -2.3890   -2.9587 H   0  0  0  0  0  0  0  0  0  0  0  0
   -0.2287   -1.3604   -4.0482 H   0  0  0  0  0  0  0  0  0  0  0  0
    1.2423   -0.7209   -3.2774 H   0  0  0  0  0  0  0  0  0  0  0  0
  5  6  2  0  0  0  0
  5  7  1  0  0  0  0
  2  3  1  0  0  0  0
  2  4  1  0  0  0  0
  2  5  1  0  0  0  0
  1  2  1  0  0  0  0
 25 26  2  0  0  0  0
 25 27  1  0  0  0  0
 23 24  1  0  0  0  0
 21 22  1  0  0  0  0
 21 23  2  0  0  0  0
 19 20  1  0  0  0  0
 19 21  1  0  0  0  0
 17 18  1  0  0  0  0
 17 19  2  0  0  0  0
 15 16  1  0  0  0  0
 15 17  1  0  0  0  0
 14 15  2  0  0  0  0
 14 23  1  0  0  0  0
 11 12  1  0  0  0  0
 11 13  1  0  0  0  0
 11 14  1  0  0  0  0
  9 10  1  0  0  0  0
  9 11  1  0  0  0  0
  9 25  1  0  0  0  0
  7  8  1  0  0  0  0
  7  9  1  0  0  0  0
 29 30  1  0  0  0  0
 29 31  1  0  0  0  0
 29 32  1  0  0  0  0
 27 28  1  0  0  0  0
 27 29  1  0  0  0  0
M  END
$$$$
default_name
  -OEChem-01062215323D

 32 32  0     1  0  0  0  0  0999 V2000
   -3.8405   -3.7518    1.6252 H   0  0  0  0  0  0  0  0  0  0  0  0
   -3.7965   -2.8768    0.9782 C   0  0  0  0  0  0  0  0  0  0  0  0
   -4.5465   -2.1527    1.2902 H   0  0  0  0  0  0  0  0  0  0  0  0
   -3.9745   -3.1748   -0.0538 H   0  0  0  0  0  0  0  0  0  0  0  0
   -2.4245   -2.2537    1.0882 C   0  0  0  0  0  0  0  0  0  0  0  0
   -1.5805   -2.7478    1.8242 O   0  0  0  0  0  0  0  0  0  0  0  0
   -2.2045   -1.1637    0.3562 N   0  0  0  0  0  0  0  0  0  0  0  0
   -2.9595   -0.7907   -0.2008 H   0  0  0  0  0  0  0  0  0  0  0  0
   -0.9485   -0.4087    0.3482 C   0  0  1  0  0  0  0  0  0  0  0  0
   -1.1694    0.6322    0.1068 H   0  0  0  0  0  0  0  0  0  0  0  0
   -0.3175   -0.4571    1.7503 C   0  0  0  0  0  0  0  0  0  0  0  0
   -0.2242   -1.4984    2.0621 H   0  0  0  0  0  0  0  0  0  0  0  0
    0.6890   -0.0389    1.6999 H   0  0  0  0  0  0  0  0  0  0  0  0
   -1.1139    0.2811    2.8093 C   0  0  0  0  0  0  0  0  0  0  0  0
   -1.0072    1.6791    2.9366 C   0  0  0  0  0  0  0  0  0  0  0  0
   -0.3380    2.2332    2.2935 H   0  0  0  0  0  0  0  0  0  0  0  0
   -1.7802    2.3617    3.8939 C   0  0  0  0  0  0  0  0  0  0  0  0
   -1.6948    3.4349    3.9917 H   0  0  0  0  0  0  0  0  0  0  0  0
   -2.6620    1.6487    4.7237 C   0  0  0  0  0  0  0  0  0  0  0  0
   -3.2541    2.1729    5.4608 H   0  0  0  0  0  0  0  0  0  0  0  0
   -2.7699    0.2516    4.6002 C   0  0  0  0  0  0  0  0  0  0  0  0
   -3.4436   -0.2973    5.2417 H   0  0  0  0  0  0  0  0  0  0  0  0
   -1.9948   -0.4307    3.6457 C   0  0  0  0  0  0  0  0  0  0  0  0
   -2.0763   -1.5060    3.5539 H   0  0  0  0  0  0  0  0  0  0  0  0
    0.0088   -0.9464   -0.7307 C   0  0  0  0  0  0  0  0  0  0  0  0
    0.9838   -1.6275   -0.4098 O   0  0  0  0  0  0  0  0  0  0  0  0
   -0.2628   -0.6385   -2.0052 N   0  0  0  0  0  0  0  0  0  0  0  0
   -1.0473   -0.0301   -2.1830 H   0  0  0  0  0  0  0  0  0  0  0  0
    0.5488   -1.0611   -3.1441 C   0  0  0  0  0  0  0  0  0  0  0  0
    0.6996   -2.1422   -3.1097 H   0  0  0  0  0  0  0  0  0  0  0  0
    0.0534   -0.7969   -4.0787 H   0  0  0  0  0  0  0  0  0  0  0  0
    1.5238   -0.5719   -3.1019 H   0  0  0  0  0  0  0  0  0  0  0  0
  5  6  2  0  0  0  0
  5  7  1  0  0  0  0
  2  3  1  0  0  0  0
  2  4  1  0  0  0  0
  2  5  1  0  0  0  0
  1  2  1  0  0  0  0
 25 26  2  0  0  0  0
 25 27  1  0  0  0  0
 23 24  1  0  0  0  0
 21 22  1  0  0  0  0
 21 23  2  0  0  0  0
 19 20  1  0  0  0  0
 19 21  1  0  0  0  0
 17 18  1  0  0  0  0
 17 19  2  0  0  0  0
 15 16  1  0  0  0  0
 15 17  1  0  0  0  0
 14 15  2  0  0  0  0
 14 23  1  0  0  0  0
 11 12  1  0  0  0  0
 11 13  1  0  0  0  0
 11 14  1  0  0  0  0
  9 10  1  0  0  0  0
  9 11  1  0  0  0  0
  9 25  1  0  0  0  0
  7  8  1  0  0  0  0
  7  9  1  0  0  0  0
 29 30  1  0  0  0  0
 29 31  1  0  0  0  0
 29 32  1  0  0  0  0
 27 28  1  0  0  0  0
 27 29  1  0  0  0  0
M  END
$$$$
default_name
  -OEChem-01062215323D

 32 32  0     1  0  0  0  0  0999 V2000
   -3.8405   -3.7518    1.6252 H   0  0  0  0  0  0  0  0  0  0  0  0
   -3.7965   -2.8768    0.9782 C   0  0  0  0  0  0  0  0  0  0  0  0
   -4.5465   -2.1527    1.2902 H   0  0  0  0  0  0  0  0  0  0  0  0
   -3.9745   -3.1748   -0.0538 H   0  0  0  0  0  0  0  0  0  0  0  0
   -2.4245   -2.2537    1.0882 C   0  0  0  0  0  0  0  0  0  0  0  0
   -1.5805   -2.7478    1.8242 O   0  0  0  0  0  0  0  0  0  0  0  0
   -2.2045   -1.1637    0.3562 N   0  0  0  0  0  0  0  0  0  0  0  0
   -2.9595   -0.7907   -0.2008 H   0  0  0  0  0  0  0  0  0  0  0  0
   -0.9485   -0.4087    0.3482 C   0  0  1  0  0  0  0  0  0  0  0  0
   -1.1694    0.6322    0.1068 H   0  0  0  0  0  0  0  0  0  0  0  0
   -0.3175   -0.4571    1.7503 C   0  0  0  0  0  0  0  0  0  0  0  0
   -0.2242   -1.4984    2.0621 H   0  0  0  0  0  0  0  0  0  0  0  0
    0.6890   -0.0389    1.6999 H   0  0  0  0  0  0  0  0  0  0  0  0
   -1.1139    0.2811    2.8093 C   0  0  0  0  0  0  0  0  0  0  0  0
   -1.0072    1.6791    2.9366 C   0  0  0  0  0  0  0  0  0  0  0  0
   -0.3380    2.2332    2.2935 H   0  0  0  0  0  0  0  0  0  0  0  0
   -1.7802    2.3617    3.8939 C   0  0  0  0  0  0  0  0  0  0  0  0
   -1.6948    3.4349    3.9917 H   0  0  0  0  0  0  0  0  0  0  0  0
   -2.6620    1.6487    4.7237 C   0  0  0  0  0  0  0  0  0  0  0  0
   -3.2541    2.1729    5.4608 H   0  0  0  0  0  0  0  0  0  0  0  0
   -2.7699    0.2516    4.6002 C   0  0  0  0  0  0  0  0  0  0  0  0
   -3.4436   -0.2973    5.2417 H   0  0  0  0  0  0  0  0  0  0  0  0
   -1.9948   -0.4307    3.6457 C   0  0  0  0  0  0  0  0  0  0  0  0
   -2.0763   -1.5060    3.5539 H   0  0  0  0  0  0  0  0  0  0  0  0
    0.0088   -0.9464   -0.7307 C   0  0  0  0  0  0  0  0  0  0  0  0
    0.8111   -1.8402   -0.4570 O   0  0  0  0  0  0  0  0  0  0  0  0
   -0.0694   -0.4020   -1.9515 N   0  0  0  0  0  0  0  0  0  0  0  0
   -0.7129    0.3636   -2.0825 H   0  0  0  0  0  0  0  0  0  0  0  0
    0.7716   -0.7913   -3.0809 C   0  0  0  0  0  0  0  0  0  0  0  0
    0.7275   -1.8737   -3.2187 H   0  0  0  0  0  0  0  0  0  0  0  0
    0.4309   -0.2988   -3.9920 H   0  0  0  0  0  0  0  0  0  0  0  0
    1.8069   -0.5072   -2.8829 H   0  0  0  0  0  0  0  0  0  0  0  0
  5  6  2  0  0  0  0
  5  7  1  0  0  0  0
  2  3  1  0  0  0  0
  2  4  1  0  0  0  0
  2  5  1  0  0  0  0
  1  2  1  0  0  0  0
 25 26  2  0  0  0  0
 25 27  1  0  0  0  0
 23 24  1  0  0  0  0
 21 22  1  0  0  0  0
 21 23  2  0  0  0  0
 19 20  1  0  0  0  0
 19 21  1  0  0  0  0
 17 18  1  0  0  0  0
 17 19  2  0  0  0  0
 15 16  1  0  0  0  0
 15 17  1  0  0  0  0
 14 15  2  0  0  0  0
 14 23  1  0  0  0  0
 11 12  1  0  0  0  0
 11 13  1  0  0  0  0
 11 14  1  0  0  0  0
  9 10  1  0  0  0  0
  9 11  1  0  0  0  0
  9 25  1  0  0  0  0
  7  8  1  0  0  0  0
  7  9  1  0  0  0  0
 29 30  1  0  0  0  0
 29 31  1  0  0  0  0
 29 32  1  0  0  0  0
 27 28  1  0  0  0  0
 27 29  1  0  0  0  0
M  END
$$$$
default_name
  -OEChem-01062215323D

 32 32  0     1  0  0  0  0  0999 V2000
   -3.8405   -3.7518    1.6252 H   0  0  0  0  0  0  0  0  0  0  0  0
   -3.7965   -2.8768    0.9782 C   0  0  0  0  0  0  0  0  0  0  0  0
   -4.5465   -2.1527    1.2902 H   0  0  0  0  0  0  0  0  0  0  0  0
   -3.9745   -3.1748   -0.0538 H   0  0  0  0  0  0  0  0  0  0  0  0
   -2.4245   -2.2537    1.0882 C   0  0  0  0  0  0  0  0  0  0  0  0
   -1.5805   -2.7478    1.8242 O   0  0  0  0  0  0  0  0  0  0  0  0
   -2.2045   -1.1637    0.3562 N   0  0  0  0  0  0  0  0  0  0  0  0
   -2.9595   -0.7907   -0.2008 H   0  0  0  0  0  0  0  0  0  0  0  0
   -0.9485   -0.4087    0.3482 C   0  0  1  0  0  0  0  0  0  0  0  0
   -1.1694    0.6322    0.1068 H   0  0  0  0  0  0  0  0  0  0  0  0
   -0.3175   -0.4571    1.7503 C   0  0  0  0  0  0  0  0  0  0  0  0
   -0.2242   -1.4984    2.0621 H   0  0  0  0  0  0  0  0  0  0  0  0
    0.6890   -0.0389    1.6999 H   0  0  0  0  0  0  0  0  0  0  0  0
   -1.1139    0.2811    2.8093 C   0  0  0  0  0  0  0  0  0  0  0  0
   -1.0072    1.6791    2.9366 C   0  0  0  0  0  0  0  0  0  0  0  0
   -0.3380    2.2332    2.2935 H   0  0  0  0  0  0  0  0  0  0  0  0
   -1.7802    2.3617    3.8939 C   0  0  0  0  0  0  0  0  0  0  0  0
   -1.6948    3.4349    3.9917 H   0  0  0  0  0  0  0  0  0  0  0  0
   -2.6620    1.6487    4.7237 C   0  0  0  0  0  0  0  0  0  0  0  0
   -3.2541    2.1729    5.4608 H   0  0  0  0  0  0  0  0  0  0  0  0
   -2.7699    0.2516    4.6002 C   0  0  0  0  0  0  0  0  0  0  0  0
   -3.4436   -0.2973    5.2417 H   0  0  0  0  0  0  0  0  0  0  0  0
   -1.9948   -0.4307    3.6457 C   0  0  0  0  0  0  0  0  0  0  0  0
   -2.0763   -1.5060    3.5539 H   0  0  0  0  0  0  0  0  0  0  0  0
    0.0088   -0.9464   -0.7307 C   0  0  0  0  0  0  0  0  0  0  0  0
    0.6101   -2.0067   -0.5525 O   0  0  0  0  0  0  0  0  0  0  0  0
    0.1555   -0.2171   -1.8441 N   0  0  0  0  0  0  0  0  0  0  0  0
   -0.3276    0.6670   -1.8918 H   0  0  0  0  0  0  0  0  0  0  0  0
    1.0300   -0.5813   -2.9562 C   0  0  0  0  0  0  0  0  0  0  0  0
    0.8130   -1.6020   -3.2783 H   0  0  0  0  0  0  0  0  0  0  0  0
    0.8780    0.0999   -3.7939 H   0  0  0  0  0  0  0  0  0  0  0  0
    2.0723   -0.5314   -2.6354 H   0  0  0  0  0  0  0  0  0  0  0  0
  5  6  2  0  0  0  0
  5  7  1  0  0  0  0
  2  3  1  0  0  0  0
  2  4  1  0  0  0  0
  2  5  1  0  0  0  0
  1  2  1  0  0  0  0
 25 26  2  0  0  0  0
 25 27  1  0  0  0  0
 23 24  1  0  0  0  0
 21 22  1  0  0  0  0
 21 23  2  0  0  0  0
 19 20  1  0  0  0  0
 19 21  1  0  0  0  0
 17 18  1  0  0  0  0
 17 19  2  0  0  0  0
 15 16  1  0  0  0  0
 15 17  1  0  0  0  0
 14 15  2  0  0  0  0
 14 23  1  0  0  0  0
 11 12  1  0  0  0  0
 11 13  1  0  0  0  0
 11 14  1  0  0  0  0
  9 10  1  0  0  0  0
  9 11  1  0  0  0  0
  9 25  1  0  0  0  0
  7  8  1  0  0  0  0
  7  9  1  0  0  0  0
 29 30  1  0  0  0  0
 29 31  1  0  0  0  0
 29 32  1  0  0  0  0
 27 28  1  0  0  0  0
 27 29  1  0  0  0  0
M  END
$$$$
default_name
  -OEChem-01062215323D

 32 32  0     1  0  0  0  0  0999 V2000
   -3.8405   -3.7518    1.6252 H   0  0  0  0  0  0  0  0  0  0  0  0
   -3.7965   -2.8768    0.9782 C   0  0  0  0  0  0  0  0  0  0  0  0
   -4.5465   -2.1527    1.2902 H   0  0  0  0  0  0  0  0  0  0  0  0
   -3.9745   -3.1748   -0.0538 H   0  0  0  0  0  0  0  0  0  0  0  0
   -2.4245   -2.2537    1.0882 C   0  0  0  0  0  0  0  0  0  0  0  0
   -1.5805   -2.7478    1.8242 O   0  0  0  0  0  0  0  0  0  0  0  0
   -2.2045   -1.1637    0.3562 N   0  0  0  0  0  0  0  0  0  0  0  0
   -2.9595   -0.7907   -0.2008 H   0  0  0  0  0  0  0  0  0  0  0  0
   -0.9485   -0.4087    0.3482 C   0  0  1  0  0  0  0  0  0  0  0  0
   -1.1694    0.6322    0.1068 H   0  0  0  0  0  0  0  0  0  0  0  0
   -0.3175   -0.4571    1.7503 C   0  0  0  0  0  0  0  0  0  0  0  0
   -0.2242   -1.4984    2.0621 H   0  0  0  0  0  0  0  0  0  0  0  0
    0.6890   -0.0389    1.6999 H   0  0  0  0  0  0  0  0  0  0  0  0
   -1.1139    0.2811    2.8093 C   0  0  0  0  0  0  0  0  0  0  0  0
   -1.0072    1.6791    2.9366 C   0  0  0  0  0  0  0  0  0  0  0  0
   -0.3380    2.2332    2.2935 H   0  0  0  0  0  0  0  0  0  0  0  0
   -1.7802    2.3617    3.8939 C   0  0  0  0  0  0  0  0  0  0  0  0
   -1.6948    3.4349    3.9917 H   0  0  0  0  0  0  0  0  0  0  0  0
   -2.6620    1.6487    4.7237 C   0  0  0  0  0  0  0  0  0  0  0  0
   -3.2541    2.1729    5.4608 H   0  0  0  0  0  0  0  0  0  0  0  0
   -2.7699    0.2516    4.6002 C   0  0  0  0  0  0  0  0  0  0  0  0
   -3.4436   -0.2973    5.2417 H   0  0  0  0  0  0  0  0  0  0  0  0
   -1.9948   -0.4307    3.6457 C   0  0  0  0  0  0  0  0  0  0  0  0
   -2.0763   -1.5060    3.5539 H   0  0  0  0  0  0  0  0  0  0  0  0
    0.0088   -0.9464   -0.7307 C   0  0  0  0  0  0  0  0  0  0  0  0
    0.3943   -2.1157   -0.6896 O   0  0  0  0  0  0  0  0  0  0  0  0
    0.3965   -0.0967   -1.6902 N   0  0  0  0  0  0  0  0  0  0  0  0
    0.0823    0.8594   -1.6239 H   0  0  0  0  0  0  0  0  0  0  0  0
    1.3064   -0.4454   -2.7787 C   0  0  0  0  0  0  0  0  0  0  0  0
    0.9503   -1.3454   -3.2843 H   0  0  0  0  0  0  0  0  0  0  0  0
    1.3644    0.3720   -3.4980 H   0  0  0  0  0  0  0  0  0  0  0  0
    2.3019   -0.6427   -2.3762 H   0  0  0  0  0  0  0  0  0  0  0  0
  5  6  2  0  0  0  0
  5  7  1  0  0  0  0
  2  3  1  0  0  0  0
  2  4  1  0  0  0  0
  2  5  1  0  0  0  0
  1  2  1  0  0  0  0
 25 26  2  0  0  0  0
 25 27  1  0  0  0  0
 23 24  1  0  0  0  0
 21 22  1  0  0  0  0
 21 23  2  0  0  0  0
 19 20  1  0  0  0  0
 19 21  1  0  0  0  0
 17 18  1  0  0  0  0
 17 19  2  0  0  0  0
 15 16  1  0  0  0  0
 15 17  1  0  0  0  0
 14 15  2  0  0  0  0
 14 23  1  0  0  0  0
 11 12  1  0  0  0  0
 11 13  1  0  0  0  0
 11 14  1  0  0  0  0
  9 10  1  0  0  0  0
  9 11  1  0  0  0  0
  9 25  1  0  0  0  0
  7  8  1  0  0  0  0
  7  9  1  0  0  0  0
 29 30  1  0  0  0  0
 29 31  1  0  0  0  0
 29 32  1  0  0  0  0
 27 28  1  0  0  0  0
 27 29  1  0  0  0  0
M  END
$$$$
default_name
  -OEChem-01062215323D

 32 32  0     1  0  0  0  0  0999 V2000
   -3.8405   -3.7518    1.6252 H   0  0  0  0  0  0  0  0  0  0  0  0
   -3.7965   -2.8768    0.9782 C   0  0  0  0  0  0  0  0  0  0  0  0
   -4.5465   -2.1527    1.2902 H   0  0  0  0  0  0  0  0  0  0  0  0
   -3.9745   -3.1748   -0.0538 H   0  0  0  0  0  0  0  0  0  0  0  0
   -2.4245   -2.2537    1.0882 C   0  0  0  0  0  0  0  0  0  0  0  0
   -1.5805   -2.7478    1.8242 O   0  0  0  0  0  0  0  0  0  0  0  0
   -2.2045   -1.1637    0.3562 N   0  0  0  0  0  0  0  0  0  0  0  0
   -2.9595   -0.7907   -0.2008 H   0  0  0  0  0  0  0  0  0  0  0  0
   -0.9485   -0.4087    0.3482 C   0  0  1  0  0  0  0  0  0  0  0  0
   -1.1694    0.6322    0.1068 H   0  0  0  0  0  0  0  0  0  0  0  0
   -0.3175   -0.4571    1.7503 C   0  0  0  0  0  0  0  0  0  0  0  0
   -0.2242   -1.4984    2.0621 H   0  0  0  0  0  0  0  0  0  0  0  0
    0.6890   -0.0389    1.6999 H   0  0  0  0  0  0  0  0  0  0  0  0
   -1.1139    0.2811    2.8093 C   0  0  0  0  0  0  0  0  0  0  0  0
   -1.0072    1.6791    2.9366 C   0  0  0  0  0  0  0  0  0  0  0  0
   -0.3380    2.2332    2.2935 H   0  0  0  0  0  0  0  0  0  0  0  0
   -1.7802    2.3617    3.8939 C   0  0  0  0  0  0  0  0  0  0  0  0
   -1.6948    3.4349    3.9917 H   0  0  0  0  0  0  0  0  0  0  0  0
   -2.6620    1.6487    4.7237 C   0  0  0  0  0  0  0  0  0  0  0  0
   -3.2541    2.1729    5.4608 H   0  0  0  0  0  0  0  0  0  0  0  0
   -2.7699    0.2516    4.6002 C   0  0  0  0  0  0  0  0  0  0  0  0
   -3.4436   -0.2973    5.2417 H   0  0  0  0  0  0  0  0  0  0  0  0
   -1.9948   -0.4307    3.6457 C   0  0  0  0  0  0  0  0  0  0  0  0
   -2.0763   -1.5060    3.5539 H   0  0  0  0  0  0  0  0  0  0  0  0
    0.0088   -0.9464   -0.7307 C   0  0  0  0  0  0  0  0  0  0  0  0
    0.1784   -2.1597   -0.8592 O   0  0  0  0  0  0  0  0  0  0  0  0
    0.6372   -0.0489   -1.5005 N   0  0  0  0  0  0  0  0  0  0  0  0
    0.4890    0.9278   -1.2972 H   0  0  0  0  0  0  0  0  0  0  0  0
    1.5821   -0.3928   -2.5603 C   0  0  0  0  0  0  0  0  0  0  0  0
    1.1300   -1.1214   -3.2365 H   0  0  0  0  0  0  0  0  0  0  0  0
    1.8567    0.4990   -3.1244 H   0  0  0  0  0  0  0  0  0  0  0  0
    2.4800   -0.8336   -2.1230 H   0  0  0  0  0  0  0  0  0  0  0  0
  5  6  2  0  0  0  0
  5  7  1  0  0  0  0
  2  3  1  0  0  0  0
  2  4  1  0  0  0  0
  2  5  1  0  0  0  0
  1  2  1  0  0  0  0
 25 26  2  0  0  0  0
 25 27  1  0  0  0  0
 23 24  1  0  0  0  0
 21 22  1  0  0  0  0
 21 23  2  0  0  0  0
 19 20  1  0  0  0  0
 19 21  1  0  0  0  0
 17 18  1  0  0  0  0
 17 19  2  0  0  0  0
 15 16  1  0  0  0  0
 15 17  1  0  0  0  0
 14 15  2  0  0  0  0
 14 23  1  0  0  0  0
 11 12  1  0  0  0  0
 11 13  1  0  0  0  0
 11 14  1  0  0  0  0
  9 10  1  0  0  0  0
  9 11  1  0  0  0  0
  9 25  1  0  0  0  0
  7  8  1  0  0  0  0
  7  9  1  0  0  0  0
 29 30  1  0  0  0  0
 29 31  1  0  0  0  0
 29 32  1  0  0  0  0
 27 28  1  0  0  0  0
 27 29  1  0  0  0  0
M  END
$$$$
default_name
  -OEChem-01062215323D

 32 32  0     1  0  0  0  0  0999 V2000
   -3.8405   -3.7518    1.6252 H   0  0  0  0  0  0  0  0  0  0  0  0
   -3.7965   -2.8768    0.9782 C   0  0  0  0  0  0  0  0  0  0  0  0
   -4.5465   -2.1527    1.2902 H   0  0  0  0  0  0  0  0  0  0  0  0
   -3.9745   -3.1748   -0.0538 H   0  0  0  0  0  0  0  0  0  0  0  0
   -2.4245   -2.2537    1.0882 C   0  0  0  0  0  0  0  0  0  0  0  0
   -1.5805   -2.7478    1.8242 O   0  0  0  0  0  0  0  0  0  0  0  0
   -2.2045   -1.1637    0.3562 N   0  0  0  0  0  0  0  0  0  0  0  0
   -2.9595   -0.7907   -0.2008 H   0  0  0  0  0  0  0  0  0  0  0  0
   -0.9485   -0.4087    0.3482 C   0  0  1  0  0  0  0  0  0  0  0  0
   -1.1694    0.6322    0.1068 H   0  0  0  0  0  0  0  0  0  0  0  0
   -0.3175   -0.4571    1.7503 C   0  0  0  0  0  0  0  0  0  0  0  0
   -0.2242   -1.4984    2.0621 H   0  0  0  0  0  0  0  0  0  0  0  0
    0.6890   -0.0389    1.6999 H   0  0  0  0  0  0  0  0  0  0  0  0
   -1.1139    0.2811    2.8093 C   0  0  0  0  0  0  0  0  0  0  0  0
   -1.0072    1.6791    2.9366 C   0  0  0  0  0  0  0  0  0  0  0  0
   -0.3380    2.2332    2.2935 H   0  0  0  0  0  0  0  0  0  0  0  0
   -1.7802    2.3617    3.8939 C   0  0  0  0  0  0  0  0  0  0  0  0
   -1.6948    3.4349    3.9917 H   0  0  0  0  0  0  0  0  0  0  0  0
   -2.6620    1.6487    4.7237 C   0  0  0  0  0  0  0  0  0  0  0  0
   -3.2541    2.1729    5.4608 H   0  0  0  0  0  0  0  0  0  0  0  0
   -2.7699    0.2516    4.6002 C   0  0  0  0  0  0  0  0  0  0  0  0
   -3.4436   -0.2973    5.2417 H   0  0  0  0  0  0  0  0  0  0  0  0
   -1.9948   -0.4307    3.6457 C   0  0  0  0  0  0  0  0  0  0  0  0
   -2.0763   -1.5060    3.5539 H   0  0  0  0  0  0  0  0  0  0  0  0
    0.0088   -0.9464   -0.7307 C   0  0  0  0  0  0  0  0  0  0  0  0
   -0.0227   -2.1358   -1.0496 O   0  0  0  0  0  0  0  0  0  0  0  0
    0.8613   -0.0769   -1.2877 N   0  0  0  0  0  0  0  0  0  0  0  0
    0.8648    0.8676   -0.9337 H   0  0  0  0  0  0  0  0  0  0  0  0
    1.8381   -0.4271   -2.3160 C   0  0  0  0  0  0  0  0  0  0  0  0
    1.3399   -0.9455   -3.1380 H   0  0  0  0  0  0  0  0  0  0  0  0
    2.3216    0.4722   -2.6986 H   0  0  0  0  0  0  0  0  0  0  0  0
    2.5946   -1.0910   -1.8930 H   0  0  0  0  0  0  0  0  0  0  0  0
  5  6  2  0  0  0  0
  5  7  1  0  0  0  0
  2  3  1  0  0  0  0
  2  4  1  0  0  0  0
  2  5  1  0  0  0  0
  1  2  1  0  0  0  0
 25 26  2  0  0  0  0
 25 27  1  0  0  0  0
 23 24  1  0  0  0  0
 21 22  1  0  0  0  0
 21 23  2  0  0  0  0
 19 20  1  0  0  0  0
 19 21  1  0  0  0  0
 17 18  1  0  0  0  0
 17 19  2  0  0  0  0
 15 16  1  0  0  0  0
 15 17  1  0  0  0  0
 14 15  2  0  0  0  0
 14 23  1  0  0  0  0
 11 12  1  0  0  0  0
 11 13  1  0  0  0  0
 11 14  1  0  0  0  0
  9 10  1  0  0  0  0
  9 11  1  0  0  0  0
  9 25  1  0  0  0  0
  7  8  1  0  0  0  0
  7  9  1  0  0  0  0
 29 30  1  0  0  0  0
 29 31  1  0  0  0  0
 29 32  1  0  0  0  0
 27 28  1  0  0  0  0
 27 29  1  0  0  0  0
M  END
$$$$
default_name
  -OEChem-01062215323D

 32 32  0     1  0  0  0  0  0999 V2000
   -3.8405   -3.7518    1.6252 H   0  0  0  0  0  0  0  0  0  0  0  0
   -3.7965   -2.8768    0.9782 C   0  0  0  0  0  0  0  0  0  0  0  0
   -4.5465   -2.1527    1.2902 H   0  0  0  0  0  0  0  0  0  0  0  0
   -3.9745   -3.1748   -0.0538 H   0  0  0  0  0  0  0  0  0  0  0  0
   -2.4245   -2.2537    1.0882 C   0  0  0  0  0  0  0  0  0  0  0  0
   -1.5805   -2.7478    1.8242 O   0  0  0  0  0  0  0  0  0  0  0  0
   -2.2045   -1.1637    0.3562 N   0  0  0  0  0  0  0  0  0  0  0  0
   -2.9595   -0.7907   -0.2008 H   0  0  0  0  0  0  0  0  0  0  0  0
   -0.9485   -0.4087    0.3482 C   0  0  1  0  0  0  0  0  0  0  0  0
   -1.1694    0.6322    0.1068 H   0  0  0  0  0  0  0  0  0  0  0  0
   -0.3175   -0.4571    1.7503 C   0  0  0  0  0  0  0  0  0  0  0  0
   -0.2242   -1.4984    2.0621 H   0  0  0  0  0  0  0  0  0  0  0  0
    0.6890   -0.0389    1.6999 H   0  0  0  0  0  0  0  0  0  0  0  0
   -1.1139    0.2811    2.8093 C   0  0  0  0  0  0  0  0  0  0  0  0
   -1.0072    1.6791    2.9366 C   0  0  0  0  0  0  0  0  0  0  0  0
   -0.3380    2.2332    2.2935 H   0  0  0  0  0  0  0  0  0  0  0  0
   -1.7802    2.3617    3.8939 C   0  0  0  0  0  0  0  0  0  0  0  0
   -1.6948    3.4349    3.9917 H   0  0  0  0  0  0  0  0  0  0  0  0
   -2.6620    1.6487    4.7237 C   0  0  0  0  0  0  0  0  0  0  0  0
   -3.2541    2.1729    5.4608 H   0  0  0  0  0  0  0  0  0  0  0  0
   -2.7699    0.2516    4.6002 C   0  0  0  0  0  0  0  0  0  0  0  0
   -3.4436   -0.2973    5.2417 H   0  0  0  0  0  0  0  0  0  0  0  0
   -1.9948   -0.4307    3.6457 C   0  0  0  0  0  0  0  0  0  0  0  0
   -2.0763   -1.5060    3.5539 H   0  0  0  0  0  0  0  0  0  0  0  0
    0.0088   -0.9464   -0.7307 C   0  0  0  0  0  0  0  0  0  0  0  0
   -0.1954   -2.0457   -1.2478 O   0  0  0  0  0  0  0  0  0  0  0  0
    1.0534   -0.1789   -1.0664 N   0  0  0  0  0  0  0  0  0  0  0  0
    1.1839    0.6827   -0.5584 H   0  0  0  0  0  0  0  0  0  0  0  0
    2.0571   -0.5461   -2.0624 C   0  0  0  0  0  0  0  0  0  0  0  0
    1.5656   -0.8294   -2.9955 H   0  0  0  0  0  0  0  0  0  0  0  0
    2.7272    0.2934   -2.2496 H   0  0  0  0  0  0  0  0  0  0  0  0
    2.6378   -1.3975   -1.7020 H   0  0  0  0  0  0  0  0  0  0  0  0
  5  6  2  0  0  0  0
  5  7  1  0  0  0  0
  2  3  1  0  0  0  0
  2  4  1  0  0  0  0
  2  5  1  0  0  0  0
  1  2  1  0  0  0  0
 25 26  2  0  0  0  0
 25 27  1  0  0  0  0
 23 24  1  0  0  0  0
 21 22  1  0  0  0  0
 21 23  2  0  0  0  0
 19 20  1  0  0  0  0
 19 21  1  0  0  0  0
 17 18  1  0  0  0  0
 17 19  2  0  0  0  0
 15 16  1  0  0  0  0
 15 17  1  0  0  0  0
 14 15  2  0  0  0  0
 14 23  1  0  0  0  0
 11 12  1  0  0  0  0
 11 13  1  0  0  0  0
 11 14  1  0  0  0  0
  9 10  1  0  0  0  0
  9 11  1  0  0  0  0
  9 25  1  0  0  0  0
  7  8  1  0  0  0  0
  7  9  1  0  0  0  0
 29 30  1  0  0  0  0
 29 31  1  0  0  0  0
 29 32  1  0  0  0  0
 27 28  1  0  0  0  0
 27 29  1  0  0  0  0
M  END
$$$$
default_name
  -OEChem-01062215323D

 32 32  0     1  0  0  0  0  0999 V2000
   -3.8405   -3.7518    1.6252 H   0  0  0  0  0  0  0  0  0  0  0  0
   -3.7965   -2.8768    0.9782 C   0  0  0  0  0  0  0  0  0  0  0  0
   -4.5465   -2.1527    1.2902 H   0  0  0  0  0  0  0  0  0  0  0  0
   -3.9745   -3.1748   -0.0538 H   0  0  0  0  0  0  0  0  0  0  0  0
   -2.4245   -2.2537    1.0882 C   0  0  0  0  0  0  0  0  0  0  0  0
   -1.5805   -2.7478    1.8242 O   0  0  0  0  0  0  0  0  0  0  0  0
   -2.2045   -1.1637    0.3562 N   0  0  0  0  0  0  0  0  0  0  0  0
   -2.9595   -0.7907   -0.2008 H   0  0  0  0  0  0  0  0  0  0  0  0
   -0.9485   -0.4087    0.3482 C   0  0  1  0  0  0  0  0  0  0  0  0
   -1.1824    0.6567    0.3754 H   0  0  0  0  0  0  0  0  0  0  0  0
   -0.1373   -0.7585    1.6075 C   0  0  0  0  0  0  0  0  0  0  0  0
   -0.0205   -1.8416    1.6654 H   0  0  0  0  0  0  0  0  0  0  0  0
    0.8602   -0.3258    1.5172 H   0  0  0  0  0  0  0  0  0  0  0  0
   -0.7733   -0.2845    2.9005 C   0  0  0  0  0  0  0  0  0  0  0  0
   -0.6276    1.0516    3.3191 C   0  0  0  0  0  0  0  0  0  0  0  0
   -0.0410    1.7437    2.7315 H   0  0  0  0  0  0  0  0  0  0  0  0
   -1.2549    1.4942    4.4984 C   0  0  0  0  0  0  0  0  0  0  0  0
   -1.1396    2.5200    4.8194 H   0  0  0  0  0  0  0  0  0  0  0  0
   -2.0299    0.6029    5.2596 C   0  0  0  0  0  0  0  0  0  0  0  0
   -2.5098    0.9423    6.1668 H   0  0  0  0  0  0  0  0  0  0  0  0
   -2.1762   -0.7334    4.8449 C   0  0  0  0  0  0  0  0  0  0  0  0
   -2.7675   -1.4201    5.4328 H   0  0  0  0  0  0  0  0  0  0  0  0
   -1.5466   -1.1762    3.6681 C   0  0  0  0  0  0  0  0  0  0  0  0
   -1.6572   -2.2053    3.3519 H   0  0  0  0  0  0  0  0  0  0  0  0
   -0.1524   -0.6805   -0.9409 C   0  0  0  0  0  0  0  0  0  0  0  0
   -0.5963   -1.4527   -1.7919 O   0  0  0  0  0  0  0  0  0  0  0  0
    1.0222   -0.0538   -1.0842 N   0  0  0  0  0  0  0  0  0  0  0  0
    1.3437    0.5192   -0.3189 H   0  0  0  0  0  0  0  0  0  0  0  0
    1.9016   -0.2095   -2.2403 C   0  0  0  0  0  0  0  0  0  0  0  0
    1.3391   -0.0317   -3.1593 H   0  0  0  0  0  0  0  0  0  0  0  0
    2.7290    0.4982   -2.1827 H   0  0  0  0  0  0  0  0  0  0  0  0
    2.2981   -1.2264   -2.2658 H   0  0  0  0  0  0  0  0  0  0  0  0
  5  6  2  0  0  0  0
  5  7  1  0  0  0  0
  2  3  1  0  0  0  0
  2  4  1  0  0  0  0
  2  5  1  0  0  0  0
  1  2  1  0  0  0  0
 25 26  2  0  0  0  0
 25 27  1  0  0  0  0
 23 24  1  0  0  0  0
 21 22  1  0  0  0  0
 21 23  2  0  0  0  0
 19 20  1  0  0  0  0
 19 21  1  0  0  0  0
 17 18  1  0  0  0  0
 17 19  2  0  0  0  0
 15 16  1  0  0  0  0
 15 17  1  0  0  0  0
 14 15  2  0  0  0  0
 14 23  1  0  0  0  0
 11 12  1  0  0  0  0
 11 13  1  0  0  0  0
 11 14  1  0  0  0  0
  9 10  1  0  0  0  0
  9 11  1  0  0  0  0
  9 25  1  0  0  0  0
  7  8  1  0  0  0  0
  7  9  1  0  0  0  0
 29 30  1  0  0  0  0
 29 31  1  0  0  0  0
 29 32  1  0  0  0  0
 27 28  1  0  0  0  0
 27 29  1  0  0  0  0
M  END
$$$$
default_name
  -OEChem-01062215323D

 32 32  0     1  0  0  0  0  0999 V2000
   -3.8405   -3.7518    1.6252 H   0  0  0  0  0  0  0  0  0  0  0  0
   -3.7965   -2.8768    0.9782 C   0  0  0  0  0  0  0  0  0  0  0  0
   -4.5465   -2.1527    1.2902 H   0  0  0  0  0  0  0  0  0  0  0  0
   -3.9745   -3.1748   -0.0538 H   0  0  0  0  0  0  0  0  0  0  0  0
   -2.4245   -2.2537    1.0882 C   0  0  0  0  0  0  0  0  0  0  0  0
   -1.5805   -2.7478    1.8242 O   0  0  0  0  0  0  0  0  0  0  0  0
   -2.2045   -1.1637    0.3562 N   0  0  0  0  0  0  0  0  0  0  0  0
   -2.9595   -0.7907   -0.2008 H   0  0  0  0  0  0  0  0  0  0  0  0
   -0.9485   -0.4087    0.3482 C   0  0  1  0  0  0  0  0  0  0  0  0
   -1.1824    0.6567    0.3754 H   0  0  0  0  0  0  0  0  0  0  0  0
   -0.1373   -0.7585    1.6075 C   0  0  0  0  0  0  0  0  0  0  0  0
   -0.0205   -1.8416    1.6654 H   0  0  0  0  0  0  0  0  0  0  0  0
    0.8602   -0.3258    1.5172 H   0  0  0  0  0  0  0  0  0  0  0  0
   -0.7733   -0.2845    2.9005 C   0  0  0  0  0  0  0  0  0  0  0  0
   -0.6276    1.0516    3.3191 C   0  0  0  0  0  0  0  0  0  0  0  0
   -0.0410    1.7437    2.7315 H   0  0  0  0  0  0  0  0  0  0  0  0
   -1.2549    1.4942    4.4984 C   0  0  0  0  0  0  0  0  0  0  0  0
   -1.1396    2.5200    4.8194 H   0  0  0  0  0  0  0  0  0  0  0  0
   -2.0299    0.6029    5.2596 C   0  0  0  0  0  0  0  0  0  0  0  0
   -2.5098    0.9423    6.1668 H   0  0  0  0  0  0  0  0  0  0  0  0
   -2.1762   -0.7334    4.8449 C   0  0  0  0  0  0  0  0  0  0  0  0
   -2.7675   -1.4201    5.4328 H   0  0  0  0  0  0  0  0  0  0  0  0
   -1.5466   -1.1762    3.6681 C   0  0  0  0  0  0  0  0  0  0  0  0
   -1.6572   -2.2053    3.3519 H   0  0  0  0  0  0  0  0  0  0  0  0
   -0.1524   -0.6805   -0.9409 C   0  0  0  0  0  0  0  0  0  0  0  0
   -0.6987   -1.2200   -1.9042 O   0  0  0  0  0  0  0  0  0  0  0  0
    1.1355   -0.3142   -0.9594 N   0  0  0  0  0  0  0  0  0  0  0  0
    1.5250    0.0705   -0.1123 H   0  0  0  0  0  0  0  0  0  0  0  0
    2.0295   -0.5093   -2.0982 C   0  0  0  0  0  0  0  0  0  0  0  0
    1.5746   -0.0953   -3.0005 H   0  0  0  0  0  0  0  0  0  0  0  0
    2.9840   -0.0142   -1.9172 H   0  0  0  0  0  0  0  0  0  0  0  0
    2.2004   -1.5765   -2.2524 H   0  0  0  0  0  0  0  0  0  0  0  0
  5  6  2  0  0  0  0
  5  7  1  0  0  0  0
  2  3  1  0  0  0  0
  2  4  1  0  0  0  0
  2  5  1  0  0  0  0
  1  2  1  0  0  0  0
 25 26  2  0  0  0  0
 25 27  1  0  0  0  0
 23 24  1  0  0  0  0
 21 22  1  0  0  0  0
 21 23  2  0  0  0  0
 19 20  1  0  0  0  0
 19 21  1  0  0  0  0
 17 18  1  0  0  0  0
 17 19  2  0  0  0  0
 15 16  1  0  0  0  0
 15 17  1  0  0  0  0
 14 15  2  0  0  0  0
 14 23  1  0  0  0  0
 11 12  1  0  0  0  0
 11 13  1  0  0  0  0
 11 14  1  0  0  0  0
  9 10  1  0  0  0  0
  9 11  1  0  0  0  0
  9 25  1  0  0  0  0
  7  8  1  0  0  0  0
  7  9  1  0  0  0  0
 29 30  1  0  0  0  0
 29 31  1  0  0  0  0
 29 32  1  0  0  0  0
 27 28  1  0  0  0  0
 27 29  1  0  0  0  0
M  END
$$$$
default_name
  -OEChem-01062215323D

 32 32  0     1  0  0  0  0  0999 V2000
   -3.8405   -3.7518    1.6252 H   0  0  0  0  0  0  0  0  0  0  0  0
   -3.7965   -2.8768    0.9782 C   0  0  0  0  0  0  0  0  0  0  0  0
   -4.5465   -2.1527    1.2902 H   0  0  0  0  0  0  0  0  0  0  0  0
   -3.9745   -3.1748   -0.0538 H   0  0  0  0  0  0  0  0  0  0  0  0
   -2.4245   -2.2537    1.0882 C   0  0  0  0  0  0  0  0  0  0  0  0
   -1.5805   -2.7478    1.8242 O   0  0  0  0  0  0  0  0  0  0  0  0
   -2.2045   -1.1637    0.3562 N   0  0  0  0  0  0  0  0  0  0  0  0
   -2.9595   -0.7907   -0.2008 H   0  0  0  0  0  0  0  0  0  0  0  0
   -0.9485   -0.4087    0.3482 C   0  0  1  0  0  0  0  0  0  0  0  0
   -1.1824    0.6567    0.3754 H   0  0  0  0  0  0  0  0  0  0  0  0
   -0.1373   -0.7585    1.6075 C   0  0  0  0  0  0  0  0  0  0  0  0
   -0.0205   -1.8416    1.6654 H   0  0  0  0  0  0  0  0  0  0  0  0
    0.8602   -0.3258    1.5172 H   0  0  0  0  0  0  0  0  0  0  0  0
   -0.7733   -0.2845    2.9005 C   0  0  0  0  0  0  0  0  0  0  0  0
   -0.6276    1.0516    3.3191 C   0  0  0  0  0  0  0  0  0  0  0  0
   -0.0410    1.7437    2.7315 H   0  0  0  0  0  0  0  0  0  0  0  0
   -1.2549    1.4942    4.4984 C   0  0  0  0  0  0  0  0  0  0  0  0
   -1.1396    2.5200    4.8194 H   0  0  0  0  0  0  0  0  0  0  0  0
   -2.0299    0.6029    5.2596 C   0  0  0  0  0  0  0  0  0  0  0  0
   -2.5098    0.9423    6.1668 H   0  0  0  0  0  0  0  0  0  0  0  0
   -2.1762   -0.7334    4.8449 C   0  0  0  0  0  0  0  0  0  0  0  0
   -2.7675   -1.4201    5.4328 H   0  0  0  0  0  0  0  0  0  0  0  0
   -1.5466   -1.1762    3.6681 C   0  0  0  0  0  0  0  0  0  0  0  0
   -1.6572   -2.2053    3.3519 H   0  0  0  0  0  0  0  0  0  0  0  0
   -0.1524   -0.6805   -0.9409 C   0  0  0  0  0  0  0  0  0  0  0  0
   -0.7421   -0.9580   -1.9862 O   0  0  0  0  0  0  0  0  0  0  0  0
    1.1827   -0.6071   -0.8685 N   0  0  0  0  0  0  0  0  0  0  0  0
    1.5935   -0.4298    0.0355 H   0  0  0  0  0  0  0  0  0  0  0  0
    2.0816   -0.8456   -1.9951 C   0  0  0  0  0  0  0  0  0  0  0  0
    1.7810   -0.2290   -2.8448 H   0  0  0  0  0  0  0  0  0  0  0  0
    3.1071   -0.6000   -1.7177 H   0  0  0  0  0  0  0  0  0  0  0  0
    2.0295   -1.8953   -2.2907 H   0  0  0  0  0  0  0  0  0  0  0  0
  5  6  2  0  0  0  0
  5  7  1  0  0  0  0
  2  3  1  0  0  0  0
  2  4  1  0  0  0  0
  2  5  1  0  0  0  0
  1  2  1  0  0  0  0
 25 26  2  0  0  0  0
 25 27  1  0  0  0  0
 23 24  1  0  0  0  0
 21 22  1  0  0  0  0
 21 23  2  0  0  0  0
 19 20  1  0  0  0  0
 19 21  1  0  0  0  0
 17 18  1  0  0  0  0
 17 19  2  0  0  0  0
 15 16  1  0  0  0  0
 15 17  1  0  0  0  0
 14 15  2  0  0  0  0
 14 23  1  0  0  0  0
 11 12  1  0  0  0  0
 11 13  1  0  0  0  0
 11 14  1  0  0  0  0
  9 10  1  0  0  0  0
  9 11  1  0  0  0  0
  9 25  1  0  0  0  0
  7  8  1  0  0  0  0
  7  9  1  0  0  0  0
 29 30  1  0  0  0  0
 29 31  1  0  0  0  0
 29 32  1  0  0  0  0
 27 28  1  0  0  0  0
 27 29  1  0  0  0  0
M  END
$$$$
default_name
  -OEChem-01062215323D

 32 32  0     1  0  0  0  0  0999 V2000
   -3.8405   -3.7518    1.6252 H   0  0  0  0  0  0  0  0  0  0  0  0
   -3.7965   -2.8768    0.9782 C   0  0  0  0  0  0  0  0  0  0  0  0
   -4.5465   -2.1527    1.2902 H   0  0  0  0  0  0  0  0  0  0  0  0
   -3.9745   -3.1748   -0.0538 H   0  0  0  0  0  0  0  0  0  0  0  0
   -2.4245   -2.2537    1.0882 C   0  0  0  0  0  0  0  0  0  0  0  0
   -1.5805   -2.7478    1.8242 O   0  0  0  0  0  0  0  0  0  0  0  0
   -2.2045   -1.1637    0.3562 N   0  0  0  0  0  0  0  0  0  0  0  0
   -2.9595   -0.7907   -0.2008 H   0  0  0  0  0  0  0  0  0  0  0  0
   -0.9485   -0.4087    0.3482 C   0  0  1  0  0  0  0  0  0  0  0  0
   -1.1824    0.6567    0.3754 H   0  0  0  0  0  0  0  0  0  0  0  0
   -0.1373   -0.7585    1.6075 C   0  0  0  0  0  0  0  0  0  0  0  0
   -0.0205   -1.8416    1.6654 H   0  0  0  0  0  0  0  0  0  0  0  0
    0.8602   -0.3258    1.5172 H   0  0  0  0  0  0  0  0  0  0  0  0
   -0.7733   -0.2845    2.9005 C   0  0  0  0  0  0  0  0  0  0  0  0
   -0.6276    1.0516    3.3191 C   0  0  0  0  0  0  0  0  0  0  0  0
   -0.0410    1.7437    2.7315 H   0  0  0  0  0  0  0  0  0  0  0  0
   -1.2549    1.4942    4.4984 C   0  0  0  0  0  0  0  0  0  0  0  0
   -1.1396    2.5200    4.8194 H   0  0  0  0  0  0  0  0  0  0  0  0
   -2.0299    0.6029    5.2596 C   0  0  0  0  0  0  0  0  0  0  0  0
   -2.5098    0.9423    6.1668 H   0  0  0  0  0  0  0  0  0  0  0  0
   -2.1762   -0.7334    4.8449 C   0  0  0  0  0  0  0  0  0  0  0  0
   -2.7675   -1.4201    5.4328 H   0  0  0  0  0  0  0  0  0  0  0  0
   -1.5466   -1.1762    3.6681 C   0  0  0  0  0  0  0  0  0  0  0  0
   -1.6572   -2.2053    3.3519 H   0  0  0  0  0  0  0  0  0  0  0  0
   -0.1524   -0.6805   -0.9409 C   0  0  0  0  0  0  0  0  0  0  0  0
   -0.7235   -0.6845   -2.0324 O   0  0  0  0  0  0  0  0  0  0  0  0
    1.1607   -0.9124   -0.8177 N   0  0  0  0  0  0  0  0  0  0  0  0
    1.5445   -0.9477    0.1144 H   0  0  0  0  0  0  0  0  0  0  0  0
    2.0543   -1.1955   -1.9382 C   0  0  0  0  0  0  0  0  0  0  0  0
    1.9443   -0.4237   -2.7029 H   0  0  0  0  0  0  0  0  0  0  0  0
    3.0899   -1.2193   -1.5978 H   0  0  0  0  0  0  0  0  0  0  0  0
    1.7972   -2.1610   -2.3782 H   0  0  0  0  0  0  0  0  0  0  0  0
  5  6  2  0  0  0  0
  5  7  1  0  0  0  0
  2  3  1  0  0  0  0
  2  4  1  0  0  0  0
  2  5  1  0  0  0  0
  1  2  1  0  0  0  0
 25 26  2  0  0  0  0
 25 27  1  0  0  0  0
 23 24  1  0  0  0  0
 21 22  1  0  0  0  0
 21 23  2  0  0  0  0
 19 20  1  0  0  0  0
 19 21  1  0  0  0  0
 17 18  1  0  0  0  0
 17 19  2  0  0  0  0
 15 16  1  0  0  0  0
 15 17  1  0  0  0  0
 14 15  2  0  0  0  0
 14 23  1  0  0  0  0
 11 12  1  0  0  0  0
 11 13  1  0  0  0  0
 11 14  1  0  0  0  0
  9 10  1  0  0  0  0
  9 11  1  0  0  0  0
  9 25  1  0  0  0  0
  7  8  1  0  0  0  0
  7  9  1  0  0  0  0
 29 30  1  0  0  0  0
 29 31  1  0  0  0  0
 29 32  1  0  0  0  0
 27 28  1  0  0  0  0
 27 29  1  0  0  0  0
M  END
$$$$
default_name
  -OEChem-01062215323D

 32 32  0     1  0  0  0  0  0999 V2000
   -3.8405   -3.7518    1.6252 H   0  0  0  0  0  0  0  0  0  0  0  0
   -3.7965   -2.8768    0.9782 C   0  0  0  0  0  0  0  0  0  0  0  0
   -4.5465   -2.1527    1.2902 H   0  0  0  0  0  0  0  0  0  0  0  0
   -3.9745   -3.1748   -0.0538 H   0  0  0  0  0  0  0  0  0  0  0  0
   -2.4245   -2.2537    1.0882 C   0  0  0  0  0  0  0  0  0  0  0  0
   -1.5805   -2.7478    1.8242 O   0  0  0  0  0  0  0  0  0  0  0  0
   -2.2045   -1.1637    0.3562 N   0  0  0  0  0  0  0  0  0  0  0  0
   -2.9595   -0.7907   -0.2008 H   0  0  0  0  0  0  0  0  0  0  0  0
   -0.9485   -0.4087    0.3482 C   0  0  1  0  0  0  0  0  0  0  0  0
   -1.1824    0.6567    0.3754 H   0  0  0  0  0  0  0  0  0  0  0  0
   -0.1373   -0.7585    1.6075 C   0  0  0  0  0  0  0  0  0  0  0  0
   -0.0205   -1.8416    1.6654 H   0  0  0  0  0  0  0  0  0  0  0  0
    0.8602   -0.3258    1.5172 H   0  0  0  0  0  0  0  0  0  0  0  0
   -0.7733   -0.2845    2.9005 C   0  0  0  0  0  0  0  0  0  0  0  0
   -0.6276    1.0516    3.3191 C   0  0  0  0  0  0  0  0  0  0  0  0
   -0.0410    1.7437    2.7315 H   0  0  0  0  0  0  0  0  0  0  0  0
   -1.2549    1.4942    4.4984 C   0  0  0  0  0  0  0  0  0  0  0  0
   -1.1396    2.5200    4.8194 H   0  0  0  0  0  0  0  0  0  0  0  0
   -2.0299    0.6029    5.2596 C   0  0  0  0  0  0  0  0  0  0  0  0
   -2.5098    0.9423    6.1668 H   0  0  0  0  0  0  0  0  0  0  0  0
   -2.1762   -0.7334    4.8449 C   0  0  0  0  0  0  0  0  0  0  0  0
   -2.7675   -1.4201    5.4328 H   0  0  0  0  0  0  0  0  0  0  0  0
   -1.5466   -1.1762    3.6681 C   0  0  0  0  0  0  0  0  0  0  0  0
   -1.6572   -2.2053    3.3519 H   0  0  0  0  0  0  0  0  0  0  0  0
   -0.1524   -0.6805   -0.9409 C   0  0  0  0  0  0  0  0  0  0  0  0
   -0.6441   -0.4182   -2.0395 O   0  0  0  0  0  0  0  0  0  0  0  0
    1.0709   -1.2093   -0.8106 N   0  0  0  0  0  0  0  0  0  0  0  0
    1.3813   -1.4479    0.1190 H   0  0  0  0  0  0  0  0  0  0  0  0
    1.9495   -1.5352   -1.9313 C   0  0  0  0  0  0  0  0  0  0  0  0
    2.0534   -0.6662   -2.5844 H   0  0  0  0  0  0  0  0  0  0  0  0
    2.9335   -1.8297   -1.5657 H   0  0  0  0  0  0  0  0  0  0  0  0
    1.5191   -2.3556   -2.5089 H   0  0  0  0  0  0  0  0  0  0  0  0
  5  6  2  0  0  0  0
  5  7  1  0  0  0  0
  2  3  1  0  0  0  0
  2  4  1  0  0  0  0
  2  5  1  0  0  0  0
  1  2  1  0  0  0  0
 25 26  2  0  0  0  0
 25 27  1  0  0  0  0
 23 24  1  0  0  0  0
 21 22  1  0  0  0  0
 21 23  2  0  0  0  0
 19 20  1  0  0  0  0
 19 21  1  0  0  0  0
 17 18  1  0  0  0  0
 17 19  2  0  0  0  0
 15 16  1  0  0  0  0
 15 17  1  0  0  0  0
 14 15  2  0  0  0  0
 14 23  1  0  0  0  0
 11 12  1  0  0  0  0
 11 13  1  0  0  0  0
 11 14  1  0  0  0  0
  9 10  1  0  0  0  0
  9 11  1  0  0  0  0
  9 25  1  0  0  0  0
  7  8  1  0  0  0  0
  7  9  1  0  0  0  0
 29 30  1  0  0  0  0
 29 31  1  0  0  0  0
 29 32  1  0  0  0  0
 27 28  1  0  0  0  0
 27 29  1  0  0  0  0
M  END
$$$$
default_name
  -OEChem-01062215323D

 32 32  0     1  0  0  0  0  0999 V2000
   -3.8405   -3.7518    1.6252 H   0  0  0  0  0  0  0  0  0  0  0  0
   -3.7965   -2.8768    0.9782 C   0  0  0  0  0  0  0  0  0  0  0  0
   -4.5465   -2.1527    1.2902 H   0  0  0  0  0  0  0  0  0  0  0  0
   -3.9745   -3.1748   -0.0538 H   0  0  0  0  0  0  0  0  0  0  0  0
   -2.4245   -2.2537    1.0882 C   0  0  0  0  0  0  0  0  0  0  0  0
   -1.5805   -2.7478    1.8242 O   0  0  0  0  0  0  0  0  0  0  0  0
   -2.2045   -1.1637    0.3562 N   0  0  0  0  0  0  0  0  0  0  0  0
   -2.9595   -0.7907   -0.2008 H   0  0  0  0  0  0  0  0  0  0  0  0
   -0.9485   -0.4087    0.3482 C   0  0  1  0  0  0  0  0  0  0  0  0
   -1.1824    0.6567    0.3754 H   0  0  0  0  0  0  0  0  0  0  0  0
   -0.1373   -0.7585    1.6075 C   0  0  0  0  0  0  0  0  0  0  0  0
   -0.0205   -1.8416    1.6654 H   0  0  0  0  0  0  0  0  0  0  0  0
    0.8602   -0.3258    1.5172 H   0  0  0  0  0  0  0  0  0  0  0  0
   -0.7733   -0.2845    2.9005 C   0  0  0  0  0  0  0  0  0  0  0  0
   -0.6276    1.0516    3.3191 C   0  0  0  0  0  0  0  0  0  0  0  0
   -0.0410    1.7437    2.7315 H   0  0  0  0  0  0  0  0  0  0  0  0
   -1.2549    1.4942    4.4984 C   0  0  0  0  0  0  0  0  0  0  0  0
   -1.1396    2.5200    4.8194 H   0  0  0  0  0  0  0  0  0  0  0  0
   -2.0299    0.6029    5.2596 C   0  0  0  0  0  0  0  0  0  0  0  0
   -2.5098    0.9423    6.1668 H   0  0  0  0  0  0  0  0  0  0  0  0
   -2.1762   -0.7334    4.8449 C   0  0  0  0  0  0  0  0  0  0  0  0
   -2.7675   -1.4201    5.4328 H   0  0  0  0  0  0  0  0  0  0  0  0
   -1.5466   -1.1762    3.6681 C   0  0  0  0  0  0  0  0  0  0  0  0
   -1.6572   -2.2053    3.3519 H   0  0  0  0  0  0  0  0  0  0  0  0
   -0.1524   -0.6805   -0.9409 C   0  0  0  0  0  0  0  0  0  0  0  0
   -0.5094   -0.1772   -2.0071 O   0  0  0  0  0  0  0  0  0  0  0  0
    0.9195   -1.4776   -0.8475 N   0  0  0  0  0  0  0  0  0  0  0  0
    1.1150   -1.8963    0.0490 H   0  0  0  0  0  0  0  0  0  0  0  0
    1.7743   -1.8415   -1.9750 C   0  0  0  0  0  0  0  0  0  0  0  0
    2.1007   -0.9399   -2.4975 H   0  0  0  0  0  0  0  0  0  0  0  0
    2.6488   -2.3898   -1.6235 H   0  0  0  0  0  0  0  0  0  0  0  0
    1.2143   -2.4658   -2.6739 H   0  0  0  0  0  0  0  0  0  0  0  0
  5  6  2  0  0  0  0
  5  7  1  0  0  0  0
  2  3  1  0  0  0  0
  2  4  1  0  0  0  0
  2  5  1  0  0  0  0
  1  2  1  0  0  0  0
 25 26  2  0  0  0  0
 25 27  1  0  0  0  0
 23 24  1  0  0  0  0
 21 22  1  0  0  0  0
 21 23  2  0  0  0  0
 19 20  1  0  0  0  0
 19 21  1  0  0  0  0
 17 18  1  0  0  0  0
 17 19  2  0  0  0  0
 15 16  1  0  0  0  0
 15 17  1  0  0  0  0
 14 15  2  0  0  0  0
 14 23  1  0  0  0  0
 11 12  1  0  0  0  0
 11 13  1  0  0  0  0
 11 14  1  0  0  0  0
  9 10  1  0  0  0  0
  9 11  1  0  0  0  0
  9 25  1  0  0  0  0
  7  8  1  0  0  0  0
  7  9  1  0  0  0  0
 29 30  1  0  0  0  0
 29 31  1  0  0  0  0
 29 32  1  0  0  0  0
 27 28  1  0  0  0  0
 27 29  1  0  0  0  0
M  END
$$$$
default_name
  -OEChem-01062215323D

 32 32  0     1  0  0  0  0  0999 V2000
   -3.8405   -3.7518    1.6252 H   0  0  0  0  0  0  0  0  0  0  0  0
   -3.7965   -2.8768    0.9782 C   0  0  0  0  0  0  0  0  0  0  0  0
   -4.5465   -2.1527    1.2902 H   0  0  0  0  0  0  0  0  0  0  0  0
   -3.9745   -3.1748   -0.0538 H   0  0  0  0  0  0  0  0  0  0  0  0
   -2.4245   -2.2537    1.0882 C   0  0  0  0  0  0  0  0  0  0  0  0
   -1.5805   -2.7478    1.8242 O   0  0  0  0  0  0  0  0  0  0  0  0
   -2.2045   -1.1637    0.3562 N   0  0  0  0  0  0  0  0  0  0  0  0
   -2.9595   -0.7907   -0.2008 H   0  0  0  0  0  0  0  0  0  0  0  0
   -0.9485   -0.4087    0.3482 C   0  0  1  0  0  0  0  0  0  0  0  0
   -1.1824    0.6567    0.3754 H   0  0  0  0  0  0  0  0  0  0  0  0
   -0.1373   -0.7585    1.6075 C   0  0  0  0  0  0  0  0  0  0  0  0
   -0.0205   -1.8416    1.6654 H   0  0  0  0  0  0  0  0  0  0  0  0
    0.8602   -0.3258    1.5172 H   0  0  0  0  0  0  0  0  0  0  0  0
   -0.7733   -0.2845    2.9005 C   0  0  0  0  0  0  0  0  0  0  0  0
   -0.6276    1.0516    3.3191 C   0  0  0  0  0  0  0  0  0  0  0  0
   -0.0410    1.7437    2.7315 H   0  0  0  0  0  0  0  0  0  0  0  0
   -1.2549    1.4942    4.4984 C   0  0  0  0  0  0  0  0  0  0  0  0
   -1.1396    2.5200    4.8194 H   0  0  0  0  0  0  0  0  0  0  0  0
   -2.0299    0.6029    5.2596 C   0  0  0  0  0  0  0  0  0  0  0  0
   -2.5098    0.9423    6.1668 H   0  0  0  0  0  0  0  0  0  0  0  0
   -2.1762   -0.7334    4.8449 C   0  0  0  0  0  0  0  0  0  0  0  0
   -2.7675   -1.4201    5.4328 H   0  0  0  0  0  0  0  0  0  0  0  0
   -1.5466   -1.1762    3.6681 C   0  0  0  0  0  0  0  0  0  0  0  0
   -1.6572   -2.2053    3.3519 H   0  0  0  0  0  0  0  0  0  0  0  0
   -0.1524   -0.6805   -0.9409 C   0  0  0  0  0  0  0  0  0  0  0  0
   -0.3285    0.0220   -1.9374 O   0  0  0  0  0  0  0  0  0  0  0  0
    0.7168   -1.6990   -0.9260 N   0  0  0  0  0  0  0  0  0  0  0  0
    0.7637   -2.2624   -0.0907 H   0  0  0  0  0  0  0  0  0  0  0  0
    1.5407   -2.0936   -2.0661 C   0  0  0  0  0  0  0  0  0  0  0  0
    2.0832   -1.2262   -2.4480 H   0  0  0  0  0  0  0  0  0  0  0  0
    2.2549   -2.8613   -1.7673 H   0  0  0  0  0  0  0  0  0  0  0  0
    0.9035   -2.4841   -2.8620 H   0  0  0  0  0  0  0  0  0  0  0  0
  5  6  2  0  0  0  0
  5  7  1  0  0  0  0
  2  3  1  0  0  0  0
  2  4  1  0  0  0  0
  2  5  1  0  0  0  0
  1  2  1  0  0  0  0
 25 26  2  0  0  0  0
 25 27  1  0  0  0  0
 23 24  1  0  0  0  0
 21 22  1  0  0  0  0
 21 23  2  0  0  0  0
 19 20  1  0  0  0  0
 19 21  1  0  0  0  0
 17 18  1  0  0  0  0
 17 19  2  0  0  0  0
 15 16  1  0  0  0  0
 15 17  1  0  0  0  0
 14 15  2  0  0  0  0
 14 23  1  0  0  0  0
 11 12  1  0  0  0  0
 11 13  1  0  0  0  0
 11 14  1  0  0  0  0
  9 10  1  0  0  0  0
  9 11  1  0  0  0  0
  9 25  1  0  0  0  0
  7  8  1  0  0  0  0
  7  9  1  0  0  0  0
 29 30  1  0  0  0  0
 29 31  1  0  0  0  0
 29 32  1  0  0  0  0
 27 28  1  0  0  0  0
 27 29  1  0  0  0  0
M  END
$$$$
default_name
  -OEChem-01062215323D

 32 32  0     1  0  0  0  0  0999 V2000
   -3.8405   -3.7518    1.6252 H   0  0  0  0  0  0  0  0  0  0  0  0
   -3.7965   -2.8768    0.9782 C   0  0  0  0  0  0  0  0  0  0  0  0
   -4.5465   -2.1527    1.2902 H   0  0  0  0  0  0  0  0  0  0  0  0
   -3.9745   -3.1748   -0.0538 H   0  0  0  0  0  0  0  0  0  0  0  0
   -2.4245   -2.2537    1.0882 C   0  0  0  0  0  0  0  0  0  0  0  0
   -1.5805   -2.7478    1.8242 O   0  0  0  0  0  0  0  0  0  0  0  0
   -2.2045   -1.1637    0.3562 N   0  0  0  0  0  0  0  0  0  0  0  0
   -2.9595   -0.7907   -0.2008 H   0  0  0  0  0  0  0  0  0  0  0  0
   -0.9485   -0.4087    0.3482 C   0  0  1  0  0  0  0  0  0  0  0  0
   -1.1824    0.6567    0.3754 H   0  0  0  0  0  0  0  0  0  0  0  0
   -0.1373   -0.7585    1.6075 C   0  0  0  0  0  0  0  0  0  0  0  0
   -0.0205   -1.8416    1.6654 H   0  0  0  0  0  0  0  0  0  0  0  0
    0.8602   -0.3258    1.5172 H   0  0  0  0  0  0  0  0  0  0  0  0
   -0.7733   -0.2845    2.9005 C   0  0  0  0  0  0  0  0  0  0  0  0
   -0.6276    1.0516    3.3191 C   0  0  0  0  0  0  0  0  0  0  0  0
   -0.0410    1.7437    2.7315 H   0  0  0  0  0  0  0  0  0  0  0  0
   -1.2549    1.4942    4.4984 C   0  0  0  0  0  0  0  0  0  0  0  0
   -1.1396    2.5200    4.8194 H   0  0  0  0  0  0  0  0  0  0  0  0
   -2.0299    0.6029    5.2596 C   0  0  0  0  0  0  0  0  0  0  0  0
   -2.5098    0.9423    6.1668 H   0  0  0  0  0  0  0  0  0  0  0  0
   -2.1762   -0.7334    4.8449 C   0  0  0  0  0  0  0  0  0  0  0  0
   -2.7675   -1.4201    5.4328 H   0  0  0  0  0  0  0  0  0  0  0  0
   -1.5466   -1.1762    3.6681 C   0  0  0  0  0  0  0  0  0  0  0  0
   -1.6572   -2.2053    3.3519 H   0  0  0  0  0  0  0  0  0  0  0  0
   -0.1524   -0.6805   -0.9409 C   0  0  0  0  0  0  0  0  0  0  0  0
   -0.1138    0.1659   -1.8351 O   0  0  0  0  0  0  0  0  0  0  0  0
    0.4766   -1.8584   -1.0407 N   0  0  0  0  0  0  0  0  0  0  0  0
    0.3515   -2.5211   -0.2907 H   0  0  0  0  0  0  0  0  0  0  0  0
    1.2645   -2.2742   -2.1986 C   0  0  0  0  0  0  0  0  0  0  0  0
    2.0019   -1.5056   -2.4393 H   0  0  0  0  0  0  0  0  0  0  0  0
    1.7789   -3.2121   -1.9873 H   0  0  0  0  0  0  0  0  0  0  0  0
    0.6079   -2.4093   -3.0603 H   0  0  0  0  0  0  0  0  0  0  0  0
  5  6  2  0  0  0  0
  5  7  1  0  0  0  0
  2  3  1  0  0  0  0
  2  4  1  0  0  0  0
  2  5  1  0  0  0  0
  1  2  1  0  0  0  0
 25 26  2  0  0  0  0
 25 27  1  0  0  0  0
 23 24  1  0  0  0  0
 21 22  1  0  0  0  0
 21 23  2  0  0  0  0
 19 20  1  0  0  0  0
 19 21  1  0  0  0  0
 17 18  1  0  0  0  0
 17 19  2  0  0  0  0
 15 16  1  0  0  0  0
 15 17  1  0  0  0  0
 14 15  2  0  0  0  0
 14 23  1  0  0  0  0
 11 12  1  0  0  0  0
 11 13  1  0  0  0  0
 11 14  1  0  0  0  0
  9 10  1  0  0  0  0
  9 11  1  0  0  0  0
  9 25  1  0  0  0  0
  7  8  1  0  0  0  0
  7  9  1  0  0  0  0
 29 30  1  0  0  0  0
 29 31  1  0  0  0  0
 29 32  1  0  0  0  0
 27 28  1  0  0  0  0
 27 29  1  0  0  0  0
M  END
$$$$
default_name
  -OEChem-01062215323D

 32 32  0     1  0  0  0  0  0999 V2000
   -3.8405   -3.7518    1.6252 H   0  0  0  0  0  0  0  0  0  0  0  0
   -3.7965   -2.8768    0.9782 C   0  0  0  0  0  0  0  0  0  0  0  0
   -4.5465   -2.1527    1.2902 H   0  0  0  0  0  0  0  0  0  0  0  0
   -3.9745   -3.1748   -0.0538 H   0  0  0  0  0  0  0  0  0  0  0  0
   -2.4245   -2.2537    1.0882 C   0  0  0  0  0  0  0  0  0  0  0  0
   -1.5805   -2.7478    1.8242 O   0  0  0  0  0  0  0  0  0  0  0  0
   -2.2045   -1.1637    0.3562 N   0  0  0  0  0  0  0  0  0  0  0  0
   -2.9595   -0.7907   -0.2008 H   0  0  0  0  0  0  0  0  0  0  0  0
   -0.9485   -0.4087    0.3482 C   0  0  1  0  0  0  0  0  0  0  0  0
   -1.1824    0.6567    0.3754 H   0  0  0  0  0  0  0  0  0  0  0  0
   -0.1373   -0.7585    1.6075 C   0  0  0  0  0  0  0  0  0  0  0  0
   -0.0205   -1.8416    1.6654 H   0  0  0  0  0  0  0  0  0  0  0  0
    0.8602   -0.3258    1.5172 H   0  0  0  0  0  0  0  0  0  0  0  0
   -0.7733   -0.2845    2.9005 C   0  0  0  0  0  0  0  0  0  0  0  0
   -0.6276    1.0516    3.3191 C   0  0  0  0  0  0  0  0  0  0  0  0
   -0.0410    1.7437    2.7315 H   0  0  0  0  0  0  0  0  0  0  0  0
   -1.2549    1.4942    4.4984 C   0  0  0  0  0  0  0  0  0  0  0  0
   -1.1396    2.5200    4.8194 H   0  0  0  0  0  0  0  0  0  0  0  0
   -2.0299    0.6029    5.2596 C   0  0  0  0  0  0  0  0  0  0  0  0
   -2.5098    0.9423    6.1668 H   0  0  0  0  0  0  0  0  0  0  0  0
   -2.1762   -0.7334    4.8449 C   0  0  0  0  0  0  0  0  0  0  0  0
   -2.7675   -1.4201    5.4328 H   0  0  0  0  0  0  0  0  0  0  0  0
   -1.5466   -1.1762    3.6681 C   0  0  0  0  0  0  0  0  0  0  0  0
   -1.6572   -2.2053    3.3519 H   0  0  0  0  0  0  0  0  0  0  0  0
   -0.1524   -0.6805   -0.9409 C   0  0  0  0  0  0  0  0  0  0  0  0
    0.1201    0.2447   -1.7073 O   0  0  0  0  0  0  0  0  0  0  0  0
    0.2153   -1.9450   -1.1839 N   0  0  0  0  0  0  0  0  0  0  0  0
   -0.0936   -2.6549   -0.5374 H   0  0  0  0  0  0  0  0  0  0  0  0
    0.9647   -2.3711   -2.3633 C   0  0  0  0  0  0  0  0  0  0  0  0
    1.8624   -1.7590   -2.4720 H   0  0  0  0  0  0  0  0  0  0  0  0
    1.2531   -3.4184   -2.2686 H   0  0  0  0  0  0  0  0  0  0  0  0
    0.3477   -2.2463   -3.2553 H   0  0  0  0  0  0  0  0  0  0  0  0
  5  6  2  0  0  0  0
  5  7  1  0  0  0  0
  2  3  1  0  0  0  0
  2  4  1  0  0  0  0
  2  5  1  0  0  0  0
  1  2  1  0  0  0  0
 25 26  2  0  0  0  0
 25 27  1  0  0  0  0
 23 24  1  0  0  0  0
 21 22  1  0  0  0  0
 21 23  2  0  0  0  0
 19 20  1  0  0  0  0
 19 21  1  0  0  0  0
 17 18  1  0  0  0  0
 17 19  2  0  0  0  0
 15 16  1  0  0  0  0
 15 17  1  0  0  0  0
 14 15  2  0  0  0  0
 14 23  1  0  0  0  0
 11 12  1  0  0  0  0
 11 13  1  0  0  0  0
 11 14  1  0  0  0  0
  9 10  1  0  0  0  0
  9 11  1  0  0  0  0
  9 25  1  0  0  0  0
  7  8  1  0  0  0  0
  7  9  1  0  0  0  0
 29 30  1  0  0  0  0
 29 31  1  0  0  0  0
 29 32  1  0  0  0  0
 27 28  1  0  0  0  0
 27 29  1  0  0  0  0
M  END
$$$$
default_name
  -OEChem-01062215323D

 32 32  0     1  0  0  0  0  0999 V2000
   -3.8405   -3.7518    1.6252 H   0  0  0  0  0  0  0  0  0  0  0  0
   -3.7965   -2.8768    0.9782 C   0  0  0  0  0  0  0  0  0  0  0  0
   -4.5465   -2.1527    1.2902 H   0  0  0  0  0  0  0  0  0  0  0  0
   -3.9745   -3.1748   -0.0538 H   0  0  0  0  0  0  0  0  0  0  0  0
   -2.4245   -2.2537    1.0882 C   0  0  0  0  0  0  0  0  0  0  0  0
   -1.5805   -2.7478    1.8242 O   0  0  0  0  0  0  0  0  0  0  0  0
   -2.2045   -1.1637    0.3562 N   0  0  0  0  0  0  0  0  0  0  0  0
   -2.9595   -0.7907   -0.2008 H   0  0  0  0  0  0  0  0  0  0  0  0
   -0.9485   -0.4087    0.3482 C   0  0  1  0  0  0  0  0  0  0  0  0
   -1.1824    0.6567    0.3754 H   0  0  0  0  0  0  0  0  0  0  0  0
   -0.1373   -0.7585    1.6075 C   0  0  0  0  0  0  0  0  0  0  0  0
   -0.0205   -1.8416    1.6654 H   0  0  0  0  0  0  0  0  0  0  0  0
    0.8602   -0.3258    1.5172 H   0  0  0  0  0  0  0  0  0  0  0  0
   -0.7733   -0.2845    2.9005 C   0  0  0  0  0  0  0  0  0  0  0  0
   -0.6276    1.0516    3.3191 C   0  0  0  0  0  0  0  0  0  0  0  0
   -0.0410    1.7437    2.7315 H   0  0  0  0  0  0  0  0  0  0  0  0
   -1.2549    1.4942    4.4984 C   0  0  0  0  0  0  0  0  0  0  0  0
   -1.1396    2.5200    4.8194 H   0  0  0  0  0  0  0  0  0  0  0  0
   -2.0299    0.6029    5.2596 C   0  0  0  0  0  0  0  0  0  0  0  0
   -2.5098    0.9423    6.1668 H   0  0  0  0  0  0  0  0  0  0  0  0
   -2.1762   -0.7334    4.8449 C   0  0  0  0  0  0  0  0  0  0  0  0
   -2.7675   -1.4201    5.4328 H   0  0  0  0  0  0  0  0  0  0  0  0
   -1.5466   -1.1762    3.6681 C   0  0  0  0  0  0  0  0  0  0  0  0
   -1.6572   -2.2053    3.3519 H   0  0  0  0  0  0  0  0  0  0  0  0
   -0.1524   -0.6805   -0.9409 C   0  0  0  0  0  0  0  0  0  0  0  0
    0.3573    0.2529   -1.5625 O   0  0  0  0  0  0  0  0  0  0  0  0
   -0.0493   -1.9528   -1.3457 N   0  0  0  0  0  0  0  0  0  0  0  0
   -0.5413   -2.6546   -0.8139 H   0  0  0  0  0  0  0  0  0  0  0  0
    0.6616   -2.3777   -2.5491 C   0  0  0  0  0  0  0  0  0  0  0  0
    1.6743   -1.9691   -2.5439 H   0  0  0  0  0  0  0  0  0  0  0  0
    0.7133   -3.4660   -2.5919 H   0  0  0  0  0  0  0  0  0  0  0  0
    0.1406   -2.0065   -3.4338 H   0  0  0  0  0  0  0  0  0  0  0  0
  5  6  2  0  0  0  0
  5  7  1  0  0  0  0
  2  3  1  0  0  0  0
  2  4  1  0  0  0  0
  2  5  1  0  0  0  0
  1  2  1  0  0  0  0
 25 26  2  0  0  0  0
 25 27  1  0  0  0  0
 23 24  1  0  0  0  0
 21 22  1  0  0  0  0
 21 23  2  0  0  0  0
 19 20  1  0  0  0  0
 19 21  1  0  0  0  0
 17 18  1  0  0  0  0
 17 19  2  0  0  0  0
 15 16  1  0  0  0  0
 15 17  1  0  0  0  0
 14 15  2  0  0  0  0
 14 23  1  0  0  0  0
 11 12  1  0  0  0  0
 11 13  1  0  0  0  0
 11 14  1  0  0  0  0
  9 10  1  0  0  0  0
  9 11  1  0  0  0  0
  9 25  1  0  0  0  0
  7  8  1  0  0  0  0
  7  9  1  0  0  0  0
 29 30  1  0  0  0  0
 29 31  1  0  0  0  0
 29 32  1  0  0  0  0
 27 28  1  0  0  0  0
 27 29  1  0  0  0  0
M  END
$$$$
default_name
  -OEChem-01062215323D

 32 32  0     1  0  0  0  0  0999 V2000
   -3.8405   -3.7518    1.6252 H   0  0  0  0  0  0  0  0  0  0  0  0
   -3.7965   -2.8768    0.9782 C   0  0  0  0  0  0  0  0  0  0  0  0
   -4.5465   -2.1527    1.2902 H   0  0  0  0  0  0  0  0  0  0  0  0
   -3.9745   -3.1748   -0.0538 H   0  0  0  0  0  0  0  0  0  0  0  0
   -2.4245   -2.2537    1.0882 C   0  0  0  0  0  0  0  0  0  0  0  0
   -1.5805   -2.7478    1.8242 O   0  0  0  0  0  0  0  0  0  0  0  0
   -2.2045   -1.1637    0.3562 N   0  0  0  0  0  0  0  0  0  0  0  0
   -2.9595   -0.7907   -0.2008 H   0  0  0  0  0  0  0  0  0  0  0  0
   -0.9485   -0.4087    0.3482 C   0  0  1  0  0  0  0  0  0  0  0  0
   -1.1824    0.6567    0.3754 H   0  0  0  0  0  0  0  0  0  0  0  0
   -0.1373   -0.7585    1.6075 C   0  0  0  0  0  0  0  0  0  0  0  0
   -0.0205   -1.8416    1.6654 H   0  0  0  0  0  0  0  0  0  0  0  0
    0.8602   -0.3258    1.5172 H   0  0  0  0  0  0  0  0  0  0  0  0
   -0.7733   -0.2845    2.9005 C   0  0  0  0  0  0  0  0  0  0  0  0
   -0.6276    1.0516    3.3191 C   0  0  0  0  0  0  0  0  0  0  0  0
   -0.0410    1.7437    2.7315 H   0  0  0  0  0  0  0  0  0  0  0  0
   -1.2549    1.4942    4.4984 C   0  0  0  0  0  0  0  0  0  0  0  0
   -1.1396    2.5200    4.8194 H   0  0  0  0  0  0  0  0  0  0  0  0
   -2.0299    0.6029    5.2596 C   0  0  0  0  0  0  0  0  0  0  0  0
   -2.5098    0.9423    6.1668 H   0  0  0  0  0  0  0  0  0  0  0  0
   -2.1762   -0.7334    4.8449 C   0  0  0  0  0  0  0  0  0  0  0  0
   -2.7675   -1.4201    5.4328 H   0  0  0  0  0  0  0  0  0  0  0  0
   -1.5466   -1.1762    3.6681 C   0  0  0  0  0  0  0  0  0  0  0  0
   -1.6572   -2.2053    3.3519 H   0  0  0  0  0  0  0  0  0  0  0  0
   -0.1524   -0.6805   -0.9409 C   0  0  0  0  0  0  0  0  0  0  0  0
    0.5815    0.1901   -1.4108 O   0  0  0  0  0  0  0  0  0  0  0  0
   -0.2993   -1.8813   -1.5151 N   0  0  0  0  0  0  0  0  0  0  0  0
   -0.9610   -2.5203   -1.1014 H   0  0  0  0  0  0  0  0  0  0  0  0
    0.3759   -2.2935   -2.7433 C   0  0  0  0  0  0  0  0  0  0  0  0
    1.4503   -2.1217   -2.6501 H   0  0  0  0  0  0  0  0  0  0  0  0
    0.1964   -3.3517   -2.9352 H   0  0  0  0  0  0  0  0  0  0  0  0
    0.0007   -1.7060   -3.5835 H   0  0  0  0  0  0  0  0  0  0  0  0
  5  6  2  0  0  0  0
  5  7  1  0  0  0  0
  2  3  1  0  0  0  0
  2  4  1  0  0  0  0
  2  5  1  0  0  0  0
  1  2  1  0  0  0  0
 25 26  2  0  0  0  0
 25 27  1  0  0  0  0
 23 24  1  0  0  0  0
 21 22  1  0  0  0  0
 21 23  2  0  0  0  0
 19 20  1  0  0  0  0
 19 21  1  0  0  0  0
 17 18  1  0  0  0  0
 17 19  2  0  0  0  0
 15 16  1  0  0  0  0
 15 17  1  0  0  0  0
 14 15  2  0  0  0  0
 14 23  1  0  0  0  0
 11 12  1  0  0  0  0
 11 13  1  0  0  0  0
 11 14  1  0  0  0  0
  9 10  1  0  0  0  0
  9 11  1  0  0  0  0
  9 25  1  0  0  0  0
  7  8  1  0  0  0  0
  7  9  1  0  0  0  0
 29 30  1  0  0  0  0
 29 31  1  0  0  0  0
 29 32  1  0  0  0  0
 27 28  1  0  0  0  0
 27 29  1  0  0  0  0
M  END
$$$$
default_name
  -OEChem-01062215323D

 32 32  0     1  0  0  0  0  0999 V2000
   -3.8405   -3.7518    1.6252 H   0  0  0  0  0  0  0  0  0  0  0  0
   -3.7965   -2.8768    0.9782 C   0  0  0  0  0  0  0  0  0  0  0  0
   -4.5465   -2.1527    1.2902 H   0  0  0  0  0  0  0  0  0  0  0  0
   -3.9745   -3.1748   -0.0538 H   0  0  0  0  0  0  0  0  0  0  0  0
   -2.4245   -2.2537    1.0882 C   0  0  0  0  0  0  0  0  0  0  0  0
   -1.5805   -2.7478    1.8242 O   0  0  0  0  0  0  0  0  0  0  0  0
   -2.2045   -1.1637    0.3562 N   0  0  0  0  0  0  0  0  0  0  0  0
   -2.9595   -0.7907   -0.2008 H   0  0  0  0  0  0  0  0  0  0  0  0
   -0.9485   -0.4087    0.3482 C   0  0  1  0  0  0  0  0  0  0  0  0
   -1.1824    0.6567    0.3754 H   0  0  0  0  0  0  0  0  0  0  0  0
   -0.1373   -0.7585    1.6075 C   0  0  0  0  0  0  0  0  0  0  0  0
   -0.0205   -1.8416    1.6654 H   0  0  0  0  0  0  0  0  0  0  0  0
    0.8602   -0.3258    1.5172 H   0  0  0  0  0  0  0  0  0  0  0  0
   -0.7733   -0.2845    2.9005 C   0  0  0  0  0  0  0  0  0  0  0  0
   -0.6276    1.0516    3.3191 C   0  0  0  0  0  0  0  0  0  0  0  0
   -0.0410    1.7437    2.7315 H   0  0  0  0  0  0  0  0  0  0  0  0
   -1.2549    1.4942    4.4984 C   0  0  0  0  0  0  0  0  0  0  0  0
   -1.1396    2.5200    4.8194 H   0  0  0  0  0  0  0  0  0  0  0  0
   -2.0299    0.6029    5.2596 C   0  0  0  0  0  0  0  0  0  0  0  0
   -2.5098    0.9423    6.1668 H   0  0  0  0  0  0  0  0  0  0  0  0
   -2.1762   -0.7334    4.8449 C   0  0  0  0  0  0  0  0  0  0  0  0
   -2.7675   -1.4201    5.4328 H   0  0  0  0  0  0  0  0  0  0  0  0
   -1.5466   -1.1762    3.6681 C   0  0  0  0  0  0  0  0  0  0  0  0
   -1.6572   -2.2053    3.3519 H   0  0  0  0  0  0  0  0  0  0  0  0
   -0.1524   -0.6805   -0.9409 C   0  0  0  0  0  0  0  0  0  0  0  0
    0.7776    0.0606   -1.2624 O   0  0  0  0  0  0  0  0  0  0  0  0
   -0.5174   -1.7354   -1.6805 N   0  0  0  0  0  0  0  0  0  0  0  0
   -1.3242   -2.2611   -1.3804 H   0  0  0  0  0  0  0  0  0  0  0  0
    0.1271   -2.1242   -2.9326 C   0  0  0  0  0  0  0  0  0  0  0  0
    1.2057   -2.2063   -2.7833 H   0  0  0  0  0  0  0  0  0  0  0  0
   -0.2624   -3.0833   -3.2751 H   0  0  0  0  0  0  0  0  0  0  0  0
   -0.0624   -1.3654   -3.6943 H   0  0  0  0  0  0  0  0  0  0  0  0
  5  6  2  0  0  0  0
  5  7  1  0  0  0  0
  2  3  1  0  0  0  0
  2  4  1  0  0  0  0
  2  5  1  0  0  0  0
  1  2  1  0  0  0  0
 25 26  2  0  0  0  0
 25 27  1  0  0  0  0
 23 24  1  0  0  0  0
 21 22  1  0  0  0  0
 21 23  2  0  0  0  0
 19 20  1  0  0  0  0
 19 21  1  0  0  0  0
 17 18  1  0  0  0  0
 17 19  2  0  0  0  0
 15 16  1  0  0  0  0
 15 17  1  0  0  0  0
 14 15  2  0  0  0  0
 14 23  1  0  0  0  0
 11 12  1  0  0  0  0
 11 13  1  0  0  0  0
 11 14  1  0  0  0  0
  9 10  1  0  0  0  0
  9 11  1  0  0  0  0
  9 25  1  0  0  0  0
  7  8  1  0  0  0  0
  7  9  1  0  0  0  0
 29 30  1  0  0  0  0
 29 31  1  0  0  0  0
 29 32  1  0  0  0  0
 27 28  1  0  0  0  0
 27 29  1  0  0  0  0
M  END
$$$$
default_name
  -OEChem-01062215323D

 32 32  0     1  0  0  0  0  0999 V2000
   -3.8405   -3.7518    1.6252 H   0  0  0  0  0  0  0  0  0  0  0  0
   -3.7965   -2.8768    0.9782 C   0  0  0  0  0  0  0  0  0  0  0  0
   -4.5465   -2.1527    1.2902 H   0  0  0  0  0  0  0  0  0  0  0  0
   -3.9745   -3.1748   -0.0538 H   0  0  0  0  0  0  0  0  0  0  0  0
   -2.4245   -2.2537    1.0882 C   0  0  0  0  0  0  0  0  0  0  0  0
   -1.5805   -2.7478    1.8242 O   0  0  0  0  0  0  0  0  0  0  0  0
   -2.2045   -1.1637    0.3562 N   0  0  0  0  0  0  0  0  0  0  0  0
   -2.9595   -0.7907   -0.2008 H   0  0  0  0  0  0  0  0  0  0  0  0
   -0.9485   -0.4087    0.3482 C   0  0  1  0  0  0  0  0  0  0  0  0
   -1.1824    0.6567    0.3754 H   0  0  0  0  0  0  0  0  0  0  0  0
   -0.1373   -0.7585    1.6075 C   0  0  0  0  0  0  0  0  0  0  0  0
   -0.0205   -1.8416    1.6654 H   0  0  0  0  0  0  0  0  0  0  0  0
    0.8602   -0.3258    1.5172 H   0  0  0  0  0  0  0  0  0  0  0  0
   -0.7733   -0.2845    2.9005 C   0  0  0  0  0  0  0  0  0  0  0  0
   -0.6276    1.0516    3.3191 C   0  0  0  0  0  0  0  0  0  0  0  0
   -0.0410    1.7437    2.7315 H   0  0  0  0  0  0  0  0  0  0  0  0
   -1.2549    1.4942    4.4984 C   0  0  0  0  0  0  0  0  0  0  0  0
   -1.1396    2.5200    4.8194 H   0  0  0  0  0  0  0  0  0  0  0  0
   -2.0299    0.6029    5.2596 C   0  0  0  0  0  0  0  0  0  0  0  0
   -2.5098    0.9423    6.1668 H   0  0  0  0  0  0  0  0  0  0  0  0
   -2.1762   -0.7334    4.8449 C   0  0  0  0  0  0  0  0  0  0  0  0
   -2.7675   -1.4201    5.4328 H   0  0  0  0  0  0  0  0  0  0  0  0
   -1.5466   -1.1762    3.6681 C   0  0  0  0  0  0  0  0  0  0  0  0
   -1.6572   -2.2053    3.3519 H   0  0  0  0  0  0  0  0  0  0  0  0
   -0.1524   -0.6805   -0.9409 C   0  0  0  0  0  0  0  0  0  0  0  0
    0.9322   -0.1270   -1.1274 O   0  0  0  0  0  0  0  0  0  0  0  0
   -0.6890   -1.5250   -1.8308 N   0  0  0  0  0  0  0  0  0  0  0  0
   -1.6060   -1.8947   -1.6317 H   0  0  0  0  0  0  0  0  0  0  0  0
   -0.0680   -1.8814   -3.1043 C   0  0  0  0  0  0  0  0  0  0  0  0
    0.9572   -2.2172   -2.9345 H   0  0  0  0  0  0  0  0  0  0  0  0
   -0.6319   -2.6791   -3.5885 H   0  0  0  0  0  0  0  0  0  0  0  0
   -0.0446   -1.0079   -3.7587 H   0  0  0  0  0  0  0  0  0  0  0  0
  5  6  2  0  0  0  0
  5  7  1  0  0  0  0
  2  3  1  0  0  0  0
  2  4  1  0  0  0  0
  2  5  1  0  0  0  0
  1  2  1  0  0  0  0
 25 26  2  0  0  0  0
 25 27  1  0  0  0  0
 23 24  1  0  0  0  0
 21 22  1  0  0  0  0
 21 23  2  0  0  0  0
 19 20  1  0  0  0  0
 19 21  1  0  0  0  0
 17 18  1  0  0  0  0
 17 19  2  0  0  0  0
 15 16  1  0  0  0  0
 15 17  1  0  0  0  0
 14 15  2  0  0  0  0
 14 23  1  0  0  0  0
 11 12  1  0  0  0  0
 11 13  1  0  0  0  0
 11 14  1  0  0  0  0
  9 10  1  0  0  0  0
  9 11  1  0  0  0  0
  9 25  1  0  0  0  0
  7  8  1  0  0  0  0
  7  9  1  0  0  0  0
 29 30  1  0  0  0  0
 29 31  1  0  0  0  0
 29 32  1  0  0  0  0
 27 28  1  0  0  0  0
 27 29  1  0  0  0  0
M  END
$$$$
default_name
  -OEChem-01062215323D

 32 32  0     1  0  0  0  0  0999 V2000
   -3.8405   -3.7518    1.6252 H   0  0  0  0  0  0  0  0  0  0  0  0
   -3.7965   -2.8768    0.9782 C   0  0  0  0  0  0  0  0  0  0  0  0
   -4.5465   -2.1527    1.2902 H   0  0  0  0  0  0  0  0  0  0  0  0
   -3.9745   -3.1748   -0.0538 H   0  0  0  0  0  0  0  0  0  0  0  0
   -2.4245   -2.2537    1.0882 C   0  0  0  0  0  0  0  0  0  0  0  0
   -1.5805   -2.7478    1.8242 O   0  0  0  0  0  0  0  0  0  0  0  0
   -2.2045   -1.1637    0.3562 N   0  0  0  0  0  0  0  0  0  0  0  0
   -2.9595   -0.7907   -0.2008 H   0  0  0  0  0  0  0  0  0  0  0  0
   -0.9485   -0.4087    0.3482 C   0  0  1  0  0  0  0  0  0  0  0  0
   -1.1824    0.6567    0.3754 H   0  0  0  0  0  0  0  0  0  0  0  0
   -0.1373   -0.7585    1.6075 C   0  0  0  0  0  0  0  0  0  0  0  0
   -0.0205   -1.8416    1.6654 H   0  0  0  0  0  0  0  0  0  0  0  0
    0.8602   -0.3258    1.5172 H   0  0  0  0  0  0  0  0  0  0  0  0
   -0.7733   -0.2845    2.9005 C   0  0  0  0  0  0  0  0  0  0  0  0
   -0.6276    1.0516    3.3191 C   0  0  0  0  0  0  0  0  0  0  0  0
   -0.0410    1.7437    2.7315 H   0  0  0  0  0  0  0  0  0  0  0  0
   -1.2549    1.4942    4.4984 C   0  0  0  0  0  0  0  0  0  0  0  0
   -1.1396    2.5200    4.8194 H   0  0  0  0  0  0  0  0  0  0  0  0
   -2.0299    0.6029    5.2596 C   0  0  0  0  0  0  0  0  0  0  0  0
   -2.5098    0.9423    6.1668 H   0  0  0  0  0  0  0  0  0  0  0  0
   -2.1762   -0.7334    4.8449 C   0  0  0  0  0  0  0  0  0  0  0  0
   -2.7675   -1.4201    5.4328 H   0  0  0  0  0  0  0  0  0  0  0  0
   -1.5466   -1.1762    3.6681 C   0  0  0  0  0  0  0  0  0  0  0  0
   -1.6572   -2.2053    3.3519 H   0  0  0  0  0  0  0  0  0  0  0  0
   -0.1524   -0.6805   -0.9409 C   0  0  0  0  0  0  0  0  0  0  0  0
    1.0346   -0.3597   -1.0151 O   0  0  0  0  0  0  0  0  0  0  0  0
   -0.8022   -1.2645   -1.9557 N   0  0  0  0  0  0  0  0  0  0  0  0
   -1.7874   -1.4460   -1.8383 H   0  0  0  0  0  0  0  0  0  0  0  0
   -0.1958   -1.5816   -3.2464 C   0  0  0  0  0  0  0  0  0  0  0  0
    0.7217   -2.1536   -3.0933 H   0  0  0  0  0  0  0  0  0  0  0  0
   -0.8869   -2.1666   -3.8540 H   0  0  0  0  0  0  0  0  0  0  0  0
    0.0531   -0.6578   -3.7721 H   0  0  0  0  0  0  0  0  0  0  0  0
  5  6  2  0  0  0  0
  5  7  1  0  0  0  0
  2  3  1  0  0  0  0
  2  4  1  0  0  0  0
  2  5  1  0  0  0  0
  1  2  1  0  0  0  0
 25 26  2  0  0  0  0
 25 27  1  0  0  0  0
 23 24  1  0  0  0  0
 21 22  1  0  0  0  0
 21 23  2  0  0  0  0
 19 20  1  0  0  0  0
 19 21  1  0  0  0  0
 17 18  1  0  0  0  0
 17 19  2  0  0  0  0
 15 16  1  0  0  0  0
 15 17  1  0  0  0  0
 14 15  2  0  0  0  0
 14 23  1  0  0  0  0
 11 12  1  0  0  0  0
 11 13  1  0  0  0  0
 11 14  1  0  0  0  0
  9 10  1  0  0  0  0
  9 11  1  0  0  0  0
  9 25  1  0  0  0  0
  7  8  1  0  0  0  0
  7  9  1  0  0  0  0
 29 30  1  0  0  0  0
 29 31  1  0  0  0  0
 29 32  1  0  0  0  0
 27 28  1  0  0  0  0
 27 29  1  0  0  0  0
M  END
$$$$
default_name
  -OEChem-01062215323D

 32 32  0     1  0  0  0  0  0999 V2000
   -3.8405   -3.7518    1.6252 H   0  0  0  0  0  0  0  0  0  0  0  0
   -3.7965   -2.8768    0.9782 C   0  0  0  0  0  0  0  0  0  0  0  0
   -4.5465   -2.1527    1.2902 H   0  0  0  0  0  0  0  0  0  0  0  0
   -3.9745   -3.1748   -0.0538 H   0  0  0  0  0  0  0  0  0  0  0  0
   -2.4245   -2.2537    1.0882 C   0  0  0  0  0  0  0  0  0  0  0  0
   -1.5805   -2.7478    1.8242 O   0  0  0  0  0  0  0  0  0  0  0  0
   -2.2045   -1.1637    0.3562 N   0  0  0  0  0  0  0  0  0  0  0  0
   -2.9595   -0.7907   -0.2008 H   0  0  0  0  0  0  0  0  0  0  0  0
   -0.9485   -0.4087    0.3482 C   0  0  1  0  0  0  0  0  0  0  0  0
   -1.1824    0.6567    0.3754 H   0  0  0  0  0  0  0  0  0  0  0  0
   -0.1373   -0.7585    1.6075 C   0  0  0  0  0  0  0  0  0  0  0  0
   -0.0205   -1.8416    1.6654 H   0  0  0  0  0  0  0  0  0  0  0  0
    0.8602   -0.3258    1.5172 H   0  0  0  0  0  0  0  0  0  0  0  0
   -0.7733   -0.2845    2.9005 C   0  0  0  0  0  0  0  0  0  0  0  0
   -0.6276    1.0516    3.3191 C   0  0  0  0  0  0  0  0  0  0  0  0
   -0.0410    1.7437    2.7315 H   0  0  0  0  0  0  0  0  0  0  0  0
   -1.2549    1.4942    4.4984 C   0  0  0  0  0  0  0  0  0  0  0  0
   -1.1396    2.5200    4.8194 H   0  0  0  0  0  0  0  0  0  0  0  0
   -2.0299    0.6029    5.2596 C   0  0  0  0  0  0  0  0  0  0  0  0
   -2.5098    0.9423    6.1668 H   0  0  0  0  0  0  0  0  0  0  0  0
   -2.1762   -0.7334    4.8449 C   0  0  0  0  0  0  0  0  0  0  0  0
   -2.7675   -1.4201    5.4328 H   0  0  0  0  0  0  0  0  0  0  0  0
   -1.5466   -1.1762    3.6681 C   0  0  0  0  0  0  0  0  0  0  0  0
   -1.6572   -2.2053    3.3519 H   0  0  0  0  0  0  0  0  0  0  0  0
   -0.1524   -0.6805   -0.9409 C   0  0  0  0  0  0  0  0  0  0  0  0
    1.0780   -0.6217   -0.9331 O   0  0  0  0  0  0  0  0  0  0  0  0
   -0.8494   -0.9717   -2.0466 N   0  0  0  0  0  0  0  0  0  0  0  0
   -1.8559   -0.9457   -1.9860 H   0  0  0  0  0  0  0  0  0  0  0  0
   -0.2479   -1.2453   -3.3495 C   0  0  0  0  0  0  0  0  0  0  0  0
    0.5153   -2.0199   -3.2490 H   0  0  0  0  0  0  0  0  0  0  0  0
   -1.0099   -1.5808   -4.0535 H   0  0  0  0  0  0  0  0  0  0  0  0
    0.2240   -0.3390   -3.7338 H   0  0  0  0  0  0  0  0  0  0  0  0
  5  6  2  0  0  0  0
  5  7  1  0  0  0  0
  2  3  1  0  0  0  0
  2  4  1  0  0  0  0
  2  5  1  0  0  0  0
  1  2  1  0  0  0  0
 25 26  2  0  0  0  0
 25 27  1  0  0  0  0
 23 24  1  0  0  0  0
 21 22  1  0  0  0  0
 21 23  2  0  0  0  0
 19 20  1  0  0  0  0
 19 21  1  0  0  0  0
 17 18  1  0  0  0  0
 17 19  2  0  0  0  0
 15 16  1  0  0  0  0
 15 17  1  0  0  0  0
 14 15  2  0  0  0  0
 14 23  1  0  0  0  0
 11 12  1  0  0  0  0
 11 13  1  0  0  0  0
 11 14  1  0  0  0  0
  9 10  1  0  0  0  0
  9 11  1  0  0  0  0
  9 25  1  0  0  0  0
  7  8  1  0  0  0  0
  7  9  1  0  0  0  0
 29 30  1  0  0  0  0
 29 31  1  0  0  0  0
 29 32  1  0  0  0  0
 27 28  1  0  0  0  0
 27 29  1  0  0  0  0
M  END
$$$$
default_name
  -OEChem-01062215323D

 32 32  0     1  0  0  0  0  0999 V2000
   -3.8405   -3.7518    1.6252 H   0  0  0  0  0  0  0  0  0  0  0  0
   -3.7965   -2.8768    0.9782 C   0  0  0  0  0  0  0  0  0  0  0  0
   -4.5465   -2.1527    1.2902 H   0  0  0  0  0  0  0  0  0  0  0  0
   -3.9745   -3.1748   -0.0538 H   0  0  0  0  0  0  0  0  0  0  0  0
   -2.4245   -2.2537    1.0882 C   0  0  0  0  0  0  0  0  0  0  0  0
   -1.5805   -2.7478    1.8242 O   0  0  0  0  0  0  0  0  0  0  0  0
   -2.2045   -1.1637    0.3562 N   0  0  0  0  0  0  0  0  0  0  0  0
   -2.9595   -0.7907   -0.2008 H   0  0  0  0  0  0  0  0  0  0  0  0
   -0.9485   -0.4087    0.3482 C   0  0  1  0  0  0  0  0  0  0  0  0
   -1.1824    0.6567    0.3754 H   0  0  0  0  0  0  0  0  0  0  0  0
   -0.1373   -0.7585    1.6075 C   0  0  0  0  0  0  0  0  0  0  0  0
   -0.0205   -1.8416    1.6654 H   0  0  0  0  0  0  0  0  0  0  0  0
    0.8602   -0.3258    1.5172 H   0  0  0  0  0  0  0  0  0  0  0  0
   -0.7733   -0.2845    2.9005 C   0  0  0  0  0  0  0  0  0  0  0  0
   -0.6276    1.0516    3.3191 C   0  0  0  0  0  0  0  0  0  0  0  0
   -0.0410    1.7437    2.7315 H   0  0  0  0  0  0  0  0  0  0  0  0
   -1.2549    1.4942    4.4984 C   0  0  0  0  0  0  0  0  0  0  0  0
   -1.1396    2.5200    4.8194 H   0  0  0  0  0  0  0  0  0  0  0  0
   -2.0299    0.6029    5.2596 C   0  0  0  0  0  0  0  0  0  0  0  0
   -2.5098    0.9423    6.1668 H   0  0  0  0  0  0  0  0  0  0  0  0
   -2.1762   -0.7334    4.8449 C   0  0  0  0  0  0  0  0  0  0  0  0
   -2.7675   -1.4201    5.4328 H   0  0  0  0  0  0  0  0  0  0  0  0
   -1.5466   -1.1762    3.6681 C   0  0  0  0  0  0  0  0  0  0  0  0
   -1.6572   -2.2053    3.3519 H   0  0  0  0  0  0  0  0  0  0  0  0
   -0.1524   -0.6805   -0.9409 C   0  0  0  0  0  0  0  0  0  0  0  0
    1.0594   -0.8952   -0.8869 O   0  0  0  0  0  0  0  0  0  0  0  0
   -0.8274   -0.6664   -2.0973 N   0  0  0  0  0  0  0  0  0  0  0  0
   -1.8068   -0.4278   -2.0649 H   0  0  0  0  0  0  0  0  0  0  0  0
   -0.2206   -0.8954   -3.4064 C   0  0  0  0  0  0  0  0  0  0  0  0
    0.3520   -1.8252   -3.3909 H   0  0  0  0  0  0  0  0  0  0  0  0
   -0.9927   -0.9616   -4.1734 H   0  0  0  0  0  0  0  0  0  0  0  0
    0.4564   -0.0733   -3.6463 H   0  0  0  0  0  0  0  0  0  0  0  0
  5  6  2  0  0  0  0
  5  7  1  0  0  0  0
  2  3  1  0  0  0  0
  2  4  1  0  0  0  0
  2  5  1  0  0  0  0
  1  2  1  0  0  0  0
 25 26  2  0  0  0  0
 25 27  1  0  0  0  0
 23 24  1  0  0  0  0
 21 22  1  0  0  0  0
 21 23  2  0  0  0  0
 19 20  1  0  0  0  0
 19 21  1  0  0  0  0
 17 18  1  0  0  0  0
 17 19  2  0  0  0  0
 15 16  1  0  0  0  0
 15 17  1  0  0  0  0
 14 15  2  0  0  0  0
 14 23  1  0  0  0  0
 11 12  1  0  0  0  0
 11 13  1  0  0  0  0
 11 14  1  0  0  0  0
  9 10  1  0  0  0  0
  9 11  1  0  0  0  0
  9 25  1  0  0  0  0
  7  8  1  0  0  0  0
  7  9  1  0  0  0  0
 29 30  1  0  0  0  0
 29 31  1  0  0  0  0
 29 32  1  0  0  0  0
 27 28  1  0  0  0  0
 27 29  1  0  0  0  0
M  END
$$$$
default_name
  -OEChem-01062215323D

 32 32  0     1  0  0  0  0  0999 V2000
   -3.8405   -3.7518    1.6252 H   0  0  0  0  0  0  0  0  0  0  0  0
   -3.7965   -2.8768    0.9782 C   0  0  0  0  0  0  0  0  0  0  0  0
   -4.5465   -2.1527    1.2902 H   0  0  0  0  0  0  0  0  0  0  0  0
   -3.9745   -3.1748   -0.0538 H   0  0  0  0  0  0  0  0  0  0  0  0
   -2.4245   -2.2537    1.0882 C   0  0  0  0  0  0  0  0  0  0  0  0
   -1.5805   -2.7478    1.8242 O   0  0  0  0  0  0  0  0  0  0  0  0
   -2.2045   -1.1637    0.3562 N   0  0  0  0  0  0  0  0  0  0  0  0
   -2.9595   -0.7907   -0.2008 H   0  0  0  0  0  0  0  0  0  0  0  0
   -0.9485   -0.4087    0.3482 C   0  0  1  0  0  0  0  0  0  0  0  0
   -1.1824    0.6567    0.3754 H   0  0  0  0  0  0  0  0  0  0  0  0
   -0.1373   -0.7585    1.6075 C   0  0  0  0  0  0  0  0  0  0  0  0
   -0.0205   -1.8416    1.6654 H   0  0  0  0  0  0  0  0  0  0  0  0
    0.8602   -0.3258    1.5172 H   0  0  0  0  0  0  0  0  0  0  0  0
   -0.7733   -0.2845    2.9005 C   0  0  0  0  0  0  0  0  0  0  0  0
   -0.6276    1.0516    3.3191 C   0  0  0  0  0  0  0  0  0  0  0  0
   -0.0410    1.7437    2.7315 H   0  0  0  0  0  0  0  0  0  0  0  0
   -1.2549    1.4942    4.4984 C   0  0  0  0  0  0  0  0  0  0  0  0
   -1.1396    2.5200    4.8194 H   0  0  0  0  0  0  0  0  0  0  0  0
   -2.0299    0.6029    5.2596 C   0  0  0  0  0  0  0  0  0  0  0  0
   -2.5098    0.9423    6.1668 H   0  0  0  0  0  0  0  0  0  0  0  0
   -2.1762   -0.7334    4.8449 C   0  0  0  0  0  0  0  0  0  0  0  0
   -2.7675   -1.4201    5.4328 H   0  0  0  0  0  0  0  0  0  0  0  0
   -1.5466   -1.1762    3.6681 C   0  0  0  0  0  0  0  0  0  0  0  0
   -1.6572   -2.2053    3.3519 H   0  0  0  0  0  0  0  0  0  0  0  0
   -0.1524   -0.6805   -0.9409 C   0  0  0  0  0  0  0  0  0  0  0  0
    0.9800   -1.1615   -0.8798 O   0  0  0  0  0  0  0  0  0  0  0  0
   -0.7376   -0.3695   -2.1045 N   0  0  0  0  0  0  0  0  0  0  0  0
   -1.6436    0.0724   -2.0696 H   0  0  0  0  0  0  0  0  0  0  0  0
   -0.1158   -0.5557   -3.4133 C   0  0  0  0  0  0  0  0  0  0  0  0
    0.2430   -1.5827   -3.5093 H   0  0  0  0  0  0  0  0  0  0  0  0
   -0.8364   -0.3512   -4.2055 H   0  0  0  0  0  0  0  0  0  0  0  0
    0.7345    0.1214   -3.5156 H   0  0  0  0  0  0  0  0  0  0  0  0
  5  6  2  0  0  0  0
  5  7  1  0  0  0  0
  2  3  1  0  0  0  0
  2  4  1  0  0  0  0
  2  5  1  0  0  0  0
  1  2  1  0  0  0  0
 25 26  2  0  0  0  0
 25 27  1  0  0  0  0
 23 24  1  0  0  0  0
 21 22  1  0  0  0  0
 21 23  2  0  0  0  0
 19 20  1  0  0  0  0
 19 21  1  0  0  0  0
 17 18  1  0  0  0  0
 17 19  2  0  0  0  0
 15 16  1  0  0  0  0
 15 17  1  0  0  0  0
 14 15  2  0  0  0  0
 14 23  1  0  0  0  0
 11 12  1  0  0  0  0
 11 13  1  0  0  0  0
 11 14  1  0  0  0  0
  9 10  1  0  0  0  0
  9 11  1  0  0  0  0
  9 25  1  0  0  0  0
  7  8  1  0  0  0  0
  7  9  1  0  0  0  0
 29 30  1  0  0  0  0
 29 31  1  0  0  0  0
 29 32  1  0  0  0  0
 27 28  1  0  0  0  0
 27 29  1  0  0  0  0
M  END
$$$$
default_name
  -OEChem-01062215323D

 32 32  0     1  0  0  0  0  0999 V2000
   -3.8405   -3.7518    1.6252 H   0  0  0  0  0  0  0  0  0  0  0  0
   -3.7965   -2.8768    0.9782 C   0  0  0  0  0  0  0  0  0  0  0  0
   -4.5465   -2.1527    1.2902 H   0  0  0  0  0  0  0  0  0  0  0  0
   -3.9745   -3.1748   -0.0538 H   0  0  0  0  0  0  0  0  0  0  0  0
   -2.4245   -2.2537    1.0882 C   0  0  0  0  0  0  0  0  0  0  0  0
   -1.5805   -2.7478    1.8242 O   0  0  0  0  0  0  0  0  0  0  0  0
   -2.2045   -1.1637    0.3562 N   0  0  0  0  0  0  0  0  0  0  0  0
   -2.9595   -0.7907   -0.2008 H   0  0  0  0  0  0  0  0  0  0  0  0
   -0.9485   -0.4087    0.3482 C   0  0  1  0  0  0  0  0  0  0  0  0
   -1.1824    0.6567    0.3754 H   0  0  0  0  0  0  0  0  0  0  0  0
   -0.1373   -0.7585    1.6075 C   0  0  0  0  0  0  0  0  0  0  0  0
   -0.0205   -1.8416    1.6654 H   0  0  0  0  0  0  0  0  0  0  0  0
    0.8602   -0.3258    1.5172 H   0  0  0  0  0  0  0  0  0  0  0  0
   -0.7733   -0.2845    2.9005 C   0  0  0  0  0  0  0  0  0  0  0  0
   -0.6276    1.0516    3.3191 C   0  0  0  0  0  0  0  0  0  0  0  0
   -0.0410    1.7437    2.7315 H   0  0  0  0  0  0  0  0  0  0  0  0
   -1.2549    1.4942    4.4984 C   0  0  0  0  0  0  0  0  0  0  0  0
   -1.1396    2.5200    4.8194 H   0  0  0  0  0  0  0  0  0  0  0  0
   -2.0299    0.6029    5.2596 C   0  0  0  0  0  0  0  0  0  0  0  0
   -2.5098    0.9423    6.1668 H   0  0  0  0  0  0  0  0  0  0  0  0
   -2.1762   -0.7334    4.8449 C   0  0  0  0  0  0  0  0  0  0  0  0
   -2.7675   -1.4201    5.4328 H   0  0  0  0  0  0  0  0  0  0  0  0
   -1.5466   -1.1762    3.6681 C   0  0  0  0  0  0  0  0  0  0  0  0
   -1.6572   -2.2053    3.3519 H   0  0  0  0  0  0  0  0  0  0  0  0
   -0.1524   -0.6805   -0.9409 C   0  0  0  0  0  0  0  0  0  0  0  0
    0.8453   -1.4024   -0.9122 O   0  0  0  0  0  0  0  0  0  0  0  0
   -0.5862   -0.1012   -2.0675 N   0  0  0  0  0  0  0  0  0  0  0  0
   -1.3773    0.5208   -1.9996 H   0  0  0  0  0  0  0  0  0  0  0  0
    0.0594   -0.2494   -3.3696 C   0  0  0  0  0  0  0  0  0  0  0  0
    0.1956   -1.3089   -3.5962 H   0  0  0  0  0  0  0  0  0  0  0  0
   -0.5516    0.2089   -4.1477 H   0  0  0  0  0  0  0  0  0  0  0  0
    1.0393    0.2316   -3.3506 H   0  0  0  0  0  0  0  0  0  0  0  0
  5  6  2  0  0  0  0
  5  7  1  0  0  0  0
  2  3  1  0  0  0  0
  2  4  1  0  0  0  0
  2  5  1  0  0  0  0
  1  2  1  0  0  0  0
 25 26  2  0  0  0  0
 25 27  1  0  0  0  0
 23 24  1  0  0  0  0
 21 22  1  0  0  0  0
 21 23  2  0  0  0  0
 19 20  1  0  0  0  0
 19 21  1  0  0  0  0
 17 18  1  0  0  0  0
 17 19  2  0  0  0  0
 15 16  1  0  0  0  0
 15 17  1  0  0  0  0
 14 15  2  0  0  0  0
 14 23  1  0  0  0  0
 11 12  1  0  0  0  0
 11 13  1  0  0  0  0
 11 14  1  0  0  0  0
  9 10  1  0  0  0  0
  9 11  1  0  0  0  0
  9 25  1  0  0  0  0
  7  8  1  0  0  0  0
  7  9  1  0  0  0  0
 29 30  1  0  0  0  0
 29 31  1  0  0  0  0
 29 32  1  0  0  0  0
 27 28  1  0  0  0  0
 27 29  1  0  0  0  0
M  END
$$$$
default_name
  -OEChem-01062215323D

 32 32  0     1  0  0  0  0  0999 V2000
   -3.8405   -3.7518    1.6252 H   0  0  0  0  0  0  0  0  0  0  0  0
   -3.7965   -2.8768    0.9782 C   0  0  0  0  0  0  0  0  0  0  0  0
   -4.5465   -2.1527    1.2902 H   0  0  0  0  0  0  0  0  0  0  0  0
   -3.9745   -3.1748   -0.0538 H   0  0  0  0  0  0  0  0  0  0  0  0
   -2.4245   -2.2537    1.0882 C   0  0  0  0  0  0  0  0  0  0  0  0
   -1.5805   -2.7478    1.8242 O   0  0  0  0  0  0  0  0  0  0  0  0
   -2.2045   -1.1637    0.3562 N   0  0  0  0  0  0  0  0  0  0  0  0
   -2.9595   -0.7907   -0.2008 H   0  0  0  0  0  0  0  0  0  0  0  0
   -0.9485   -0.4087    0.3482 C   0  0  1  0  0  0  0  0  0  0  0  0
   -1.1824    0.6567    0.3754 H   0  0  0  0  0  0  0  0  0  0  0  0
   -0.1373   -0.7585    1.6075 C   0  0  0  0  0  0  0  0  0  0  0  0
   -0.0205   -1.8416    1.6654 H   0  0  0  0  0  0  0  0  0  0  0  0
    0.8602   -0.3258    1.5172 H   0  0  0  0  0  0  0  0  0  0  0  0
   -0.7733   -0.2845    2.9005 C   0  0  0  0  0  0  0  0  0  0  0  0
   -0.6276    1.0516    3.3191 C   0  0  0  0  0  0  0  0  0  0  0  0
   -0.0410    1.7437    2.7315 H   0  0  0  0  0  0  0  0  0  0  0  0
   -1.2549    1.4942    4.4984 C   0  0  0  0  0  0  0  0  0  0  0  0
   -1.1396    2.5200    4.8194 H   0  0  0  0  0  0  0  0  0  0  0  0
   -2.0299    0.6029    5.2596 C   0  0  0  0  0  0  0  0  0  0  0  0
   -2.5098    0.9423    6.1668 H   0  0  0  0  0  0  0  0  0  0  0  0
   -2.1762   -0.7334    4.8449 C   0  0  0  0  0  0  0  0  0  0  0  0
   -2.7675   -1.4201    5.4328 H   0  0  0  0  0  0  0  0  0  0  0  0
   -1.5466   -1.1762    3.6681 C   0  0  0  0  0  0  0  0  0  0  0  0
   -1.6572   -2.2053    3.3519 H   0  0  0  0  0  0  0  0  0  0  0  0
   -0.1524   -0.6805   -0.9409 C   0  0  0  0  0  0  0  0  0  0  0  0
    0.6644   -1.6017   -0.9819 O   0  0  0  0  0  0  0  0  0  0  0  0
   -0.3835    0.1202   -1.9890 N   0  0  0  0  0  0  0  0  0  0  0  0
   -1.0261    0.8869   -1.8599 H   0  0  0  0  0  0  0  0  0  0  0  0
    0.2930    0.0027   -3.2785 C   0  0  0  0  0  0  0  0  0  0  0  0
    0.2132   -1.0226   -3.6458 H   0  0  0  0  0  0  0  0  0  0  0  0
   -0.1578    0.6804   -4.0039 H   0  0  0  0  0  0  0  0  0  0  0  0
    1.3501    0.2499   -3.1625 H   0  0  0  0  0  0  0  0  0  0  0  0
  5  6  2  0  0  0  0
  5  7  1  0  0  0  0
  2  3  1  0  0  0  0
  2  4  1  0  0  0  0
  2  5  1  0  0  0  0
  1  2  1  0  0  0  0
 25 26  2  0  0  0  0
 25 27  1  0  0  0  0
 23 24  1  0  0  0  0
 21 22  1  0  0  0  0
 21 23  2  0  0  0  0
 19 20  1  0  0  0  0
 19 21  1  0  0  0  0
 17 18  1  0  0  0  0
 17 19  2  0  0  0  0
 15 16  1  0  0  0  0
 15 17  1  0  0  0  0
 14 15  2  0  0  0  0
 14 23  1  0  0  0  0
 11 12  1  0  0  0  0
 11 13  1  0  0  0  0
 11 14  1  0  0  0  0
  9 10  1  0  0  0  0
  9 11  1  0  0  0  0
  9 25  1  0  0  0  0
  7  8  1  0  0  0  0
  7  9  1  0  0  0  0
 29 30  1  0  0  0  0
 29 31  1  0  0  0  0
 29 32  1  0  0  0  0
 27 28  1  0  0  0  0
 27 29  1  0  0  0  0
M  END
$$$$
default_name
  -OEChem-01062215323D

 32 32  0     1  0  0  0  0  0999 V2000
   -3.8405   -3.7518    1.6252 H   0  0  0  0  0  0  0  0  0  0  0  0
   -3.7965   -2.8768    0.9782 C   0  0  0  0  0  0  0  0  0  0  0  0
   -4.5465   -2.1527    1.2902 H   0  0  0  0  0  0  0  0  0  0  0  0
   -3.9745   -3.1748   -0.0538 H   0  0  0  0  0  0  0  0  0  0  0  0
   -2.4245   -2.2537    1.0882 C   0  0  0  0  0  0  0  0  0  0  0  0
   -1.5805   -2.7478    1.8242 O   0  0  0  0  0  0  0  0  0  0  0  0
   -2.2045   -1.1637    0.3562 N   0  0  0  0  0  0  0  0  0  0  0  0
   -2.9595   -0.7907   -0.2008 H   0  0  0  0  0  0  0  0  0  0  0  0
   -0.9485   -0.4087    0.3482 C   0  0  1  0  0  0  0  0  0  0  0  0
   -1.1824    0.6567    0.3754 H   0  0  0  0  0  0  0  0  0  0  0  0
   -0.1373   -0.7585    1.6075 C   0  0  0  0  0  0  0  0  0  0  0  0
   -0.0205   -1.8416    1.6654 H   0  0  0  0  0  0  0  0  0  0  0  0
    0.8602   -0.3258    1.5172 H   0  0  0  0  0  0  0  0  0  0  0  0
   -0.7733   -0.2845    2.9005 C   0  0  0  0  0  0  0  0  0  0  0  0
   -0.6276    1.0516    3.3191 C   0  0  0  0  0  0  0  0  0  0  0  0
   -0.0410    1.7437    2.7315 H   0  0  0  0  0  0  0  0  0  0  0  0
   -1.2549    1.4942    4.4984 C   0  0  0  0  0  0  0  0  0  0  0  0
   -1.1396    2.5200    4.8194 H   0  0  0  0  0  0  0  0  0  0  0  0
   -2.0299    0.6029    5.2596 C   0  0  0  0  0  0  0  0  0  0  0  0
   -2.5098    0.9423    6.1668 H   0  0  0  0  0  0  0  0  0  0  0  0
   -2.1762   -0.7334    4.8449 C   0  0  0  0  0  0  0  0  0  0  0  0
   -2.7675   -1.4201    5.4328 H   0  0  0  0  0  0  0  0  0  0  0  0
   -1.5466   -1.1762    3.6681 C   0  0  0  0  0  0  0  0  0  0  0  0
   -1.6572   -2.2053    3.3519 H   0  0  0  0  0  0  0  0  0  0  0  0
   -0.1524   -0.6805   -0.9409 C   0  0  0  0  0  0  0  0  0  0  0  0
    0.4497   -1.7456   -1.0842 O   0  0  0  0  0  0  0  0  0  0  0  0
   -0.1433    0.2796   -1.8743 N   0  0  0  0  0  0  0  0  0  0  0  0
   -0.6139    1.1456   -1.6598 H   0  0  0  0  0  0  0  0  0  0  0  0
    0.5692    0.1833   -3.1460 C   0  0  0  0  0  0  0  0  0  0  0  0
    0.2945   -0.7433   -3.6544 H   0  0  0  0  0  0  0  0  0  0  0  0
    0.3182    1.0313   -3.7839 H   0  0  0  0  0  0  0  0  0  0  0  0
    1.6456    0.1750   -2.9642 H   0  0  0  0  0  0  0  0  0  0  0  0
  5  6  2  0  0  0  0
  5  7  1  0  0  0  0
  2  3  1  0  0  0  0
  2  4  1  0  0  0  0
  2  5  1  0  0  0  0
  1  2  1  0  0  0  0
 25 26  2  0  0  0  0
 25 27  1  0  0  0  0
 23 24  1  0  0  0  0
 21 22  1  0  0  0  0
 21 23  2  0  0  0  0
 19 20  1  0  0  0  0
 19 21  1  0  0  0  0
 17 18  1  0  0  0  0
 17 19  2  0  0  0  0
 15 16  1  0  0  0  0
 15 17  1  0  0  0  0
 14 15  2  0  0  0  0
 14 23  1  0  0  0  0
 11 12  1  0  0  0  0
 11 13  1  0  0  0  0
 11 14  1  0  0  0  0
  9 10  1  0  0  0  0
  9 11  1  0  0  0  0
  9 25  1  0  0  0  0
  7  8  1  0  0  0  0
  7  9  1  0  0  0  0
 29 30  1  0  0  0  0
 29 31  1  0  0  0  0
 29 32  1  0  0  0  0
 27 28  1  0  0  0  0
 27 29  1  0  0  0  0
M  END
$$$$
default_name
  -OEChem-01062215323D

 32 32  0     1  0  0  0  0  0999 V2000
   -3.8405   -3.7518    1.6252 H   0  0  0  0  0  0  0  0  0  0  0  0
   -3.7965   -2.8768    0.9782 C   0  0  0  0  0  0  0  0  0  0  0  0
   -4.5465   -2.1527    1.2902 H   0  0  0  0  0  0  0  0  0  0  0  0
   -3.9745   -3.1748   -0.0538 H   0  0  0  0  0  0  0  0  0  0  0  0
   -2.4245   -2.2537    1.0882 C   0  0  0  0  0  0  0  0  0  0  0  0
   -1.5805   -2.7478    1.8242 O   0  0  0  0  0  0  0  0  0  0  0  0
   -2.2045   -1.1637    0.3562 N   0  0  0  0  0  0  0  0  0  0  0  0
   -2.9595   -0.7907   -0.2008 H   0  0  0  0  0  0  0  0  0  0  0  0
   -0.9485   -0.4087    0.3482 C   0  0  1  0  0  0  0  0  0  0  0  0
   -1.1824    0.6567    0.3754 H   0  0  0  0  0  0  0  0  0  0  0  0
   -0.1373   -0.7585    1.6075 C   0  0  0  0  0  0  0  0  0  0  0  0
   -0.0205   -1.8416    1.6654 H   0  0  0  0  0  0  0  0  0  0  0  0
    0.8602   -0.3258    1.5172 H   0  0  0  0  0  0  0  0  0  0  0  0
   -0.7733   -0.2845    2.9005 C   0  0  0  0  0  0  0  0  0  0  0  0
   -0.6276    1.0516    3.3191 C   0  0  0  0  0  0  0  0  0  0  0  0
   -0.0410    1.7437    2.7315 H   0  0  0  0  0  0  0  0  0  0  0  0
   -1.2549    1.4942    4.4984 C   0  0  0  0  0  0  0  0  0  0  0  0
   -1.1396    2.5200    4.8194 H   0  0  0  0  0  0  0  0  0  0  0  0
   -2.0299    0.6029    5.2596 C   0  0  0  0  0  0  0  0  0  0  0  0
   -2.5098    0.9423    6.1668 H   0  0  0  0  0  0  0  0  0  0  0  0
   -2.1762   -0.7334    4.8449 C   0  0  0  0  0  0  0  0  0  0  0  0
   -2.7675   -1.4201    5.4328 H   0  0  0  0  0  0  0  0  0  0  0  0
   -1.5466   -1.1762    3.6681 C   0  0  0  0  0  0  0  0  0  0  0  0
   -1.6572   -2.2053    3.3519 H   0  0  0  0  0  0  0  0  0  0  0  0
   -0.1524   -0.6805   -0.9409 C   0  0  0  0  0  0  0  0  0  0  0  0
    0.2158   -1.8243   -1.2120 O   0  0  0  0  0  0  0  0  0  0  0  0
    0.1180    0.3662   -1.7312 N   0  0  0  0  0  0  0  0  0  0  0  0
   -0.1688    1.2794   -1.4132 H   0  0  0  0  0  0  0  0  0  0  0  0
    0.8690    0.2802   -2.9813 C   0  0  0  0  0  0  0  0  0  0  0  0
    0.4339   -0.4899   -3.6217 H   0  0  0  0  0  0  0  0  0  0  0  0
    0.8440    1.2375   -3.5026 H   0  0  0  0  0  0  0  0  0  0  0  0
    1.9058    0.0121   -2.7692 H   0  0  0  0  0  0  0  0  0  0  0  0
  5  6  2  0  0  0  0
  5  7  1  0  0  0  0
  2  3  1  0  0  0  0
  2  4  1  0  0  0  0
  2  5  1  0  0  0  0
  1  2  1  0  0  0  0
 25 26  2  0  0  0  0
 25 27  1  0  0  0  0
 23 24  1  0  0  0  0
 21 22  1  0  0  0  0
 21 23  2  0  0  0  0
 19 20  1  0  0  0  0
 19 21  1  0  0  0  0
 17 18  1  0  0  0  0
 17 19  2  0  0  0  0
 15 16  1  0  0  0  0
 15 17  1  0  0  0  0
 14 15  2  0  0  0  0
 14 23  1  0  0  0  0
 11 12  1  0  0  0  0
 11 13  1  0  0  0  0
 11 14  1  0  0  0  0
  9 10  1  0  0  0  0
  9 11  1  0  0  0  0
  9 25  1  0  0  0  0
  7  8  1  0  0  0  0
  7  9  1  0  0  0  0
 29 30  1  0  0  0  0
 29 31  1  0  0  0  0
 29 32  1  0  0  0  0
 27 28  1  0  0  0  0
 27 29  1  0  0  0  0
M  END
$$$$
default_name
  -OEChem-01062215323D

 32 32  0     1  0  0  0  0  0999 V2000
   -3.8405   -3.7518    1.6252 H   0  0  0  0  0  0  0  0  0  0  0  0
   -3.7965   -2.8768    0.9782 C   0  0  0  0  0  0  0  0  0  0  0  0
   -4.5465   -2.1527    1.2902 H   0  0  0  0  0  0  0  0  0  0  0  0
   -3.9745   -3.1748   -0.0538 H   0  0  0  0  0  0  0  0  0  0  0  0
   -2.4245   -2.2537    1.0882 C   0  0  0  0  0  0  0  0  0  0  0  0
   -1.5805   -2.7478    1.8242 O   0  0  0  0  0  0  0  0  0  0  0  0
   -2.2045   -1.1637    0.3562 N   0  0  0  0  0  0  0  0  0  0  0  0
   -2.9595   -0.7907   -0.2008 H   0  0  0  0  0  0  0  0  0  0  0  0
   -0.9485   -0.4087    0.3482 C   0  0  1  0  0  0  0  0  0  0  0  0
   -1.1824    0.6567    0.3754 H   0  0  0  0  0  0  0  0  0  0  0  0
   -0.1373   -0.7585    1.6075 C   0  0  0  0  0  0  0  0  0  0  0  0
   -0.0205   -1.8416    1.6654 H   0  0  0  0  0  0  0  0  0  0  0  0
    0.8602   -0.3258    1.5172 H   0  0  0  0  0  0  0  0  0  0  0  0
   -0.7733   -0.2845    2.9005 C   0  0  0  0  0  0  0  0  0  0  0  0
   -0.6276    1.0516    3.3191 C   0  0  0  0  0  0  0  0  0  0  0  0
   -0.0410    1.7437    2.7315 H   0  0  0  0  0  0  0  0  0  0  0  0
   -1.2549    1.4942    4.4984 C   0  0  0  0  0  0  0  0  0  0  0  0
   -1.1396    2.5200    4.8194 H   0  0  0  0  0  0  0  0  0  0  0  0
   -2.0299    0.6029    5.2596 C   0  0  0  0  0  0  0  0  0  0  0  0
   -2.5098    0.9423    6.1668 H   0  0  0  0  0  0  0  0  0  0  0  0
   -2.1762   -0.7334    4.8449 C   0  0  0  0  0  0  0  0  0  0  0  0
   -2.7675   -1.4201    5.4328 H   0  0  0  0  0  0  0  0  0  0  0  0
   -1.5466   -1.1762    3.6681 C   0  0  0  0  0  0  0  0  0  0  0  0
   -1.6572   -2.2053    3.3519 H   0  0  0  0  0  0  0  0  0  0  0  0
   -0.1524   -0.6805   -0.9409 C   0  0  0  0  0  0  0  0  0  0  0  0
   -0.0214   -1.8326   -1.3567 O   0  0  0  0  0  0  0  0  0  0  0  0
    0.3826    0.3740   -1.5694 N   0  0  0  0  0  0  0  0  0  0  0  0
    0.2789    1.2791   -1.1366 H   0  0  0  0  0  0  0  0  0  0  0  0
    1.1721    0.2868   -2.7955 C   0  0  0  0  0  0  0  0  0  0  0  0
    0.6221   -0.2798   -3.5498 H   0  0  0  0  0  0  0  0  0  0  0  0
    1.3838    1.2851   -3.1793 H   0  0  0  0  0  0  0  0  0  0  0  0
    2.1129   -0.2278   -2.5907 H   0  0  0  0  0  0  0  0  0  0  0  0
  5  6  2  0  0  0  0
  5  7  1  0  0  0  0
  2  3  1  0  0  0  0
  2  4  1  0  0  0  0
  2  5  1  0  0  0  0
  1  2  1  0  0  0  0
 25 26  2  0  0  0  0
 25 27  1  0  0  0  0
 23 24  1  0  0  0  0
 21 22  1  0  0  0  0
 21 23  2  0  0  0  0
 19 20  1  0  0  0  0
 19 21  1  0  0  0  0
 17 18  1  0  0  0  0
 17 19  2  0  0  0  0
 15 16  1  0  0  0  0
 15 17  1  0  0  0  0
 14 15  2  0  0  0  0
 14 23  1  0  0  0  0
 11 12  1  0  0  0  0
 11 13  1  0  0  0  0
 11 14  1  0  0  0  0
  9 10  1  0  0  0  0
  9 11  1  0  0  0  0
  9 25  1  0  0  0  0
  7  8  1  0  0  0  0
  7  9  1  0  0  0  0
 29 30  1  0  0  0  0
 29 31  1  0  0  0  0
 29 32  1  0  0  0  0
 27 28  1  0  0  0  0
 27 29  1  0  0  0  0
M  END
$$$$
default_name
  -OEChem-01062215323D

 32 32  0     1  0  0  0  0  0999 V2000
   -3.8405   -3.7518    1.6252 H   0  0  0  0  0  0  0  0  0  0  0  0
   -3.7965   -2.8768    0.9782 C   0  0  0  0  0  0  0  0  0  0  0  0
   -4.5465   -2.1527    1.2902 H   0  0  0  0  0  0  0  0  0  0  0  0
   -3.9745   -3.1748   -0.0538 H   0  0  0  0  0  0  0  0  0  0  0  0
   -2.4245   -2.2537    1.0882 C   0  0  0  0  0  0  0  0  0  0  0  0
   -1.5805   -2.7478    1.8242 O   0  0  0  0  0  0  0  0  0  0  0  0
   -2.2045   -1.1637    0.3562 N   0  0  0  0  0  0  0  0  0  0  0  0
   -2.9595   -0.7907   -0.2008 H   0  0  0  0  0  0  0  0  0  0  0  0
   -0.9485   -0.4087    0.3482 C   0  0  1  0  0  0  0  0  0  0  0  0
   -1.1824    0.6567    0.3754 H   0  0  0  0  0  0  0  0  0  0  0  0
   -0.1373   -0.7585    1.6075 C   0  0  0  0  0  0  0  0  0  0  0  0
   -0.0205   -1.8416    1.6654 H   0  0  0  0  0  0  0  0  0  0  0  0
    0.8602   -0.3258    1.5172 H   0  0  0  0  0  0  0  0  0  0  0  0
   -0.7733   -0.2845    2.9005 C   0  0  0  0  0  0  0  0  0  0  0  0
   -0.6276    1.0516    3.3191 C   0  0  0  0  0  0  0  0  0  0  0  0
   -0.0410    1.7437    2.7315 H   0  0  0  0  0  0  0  0  0  0  0  0
   -1.2549    1.4942    4.4984 C   0  0  0  0  0  0  0  0  0  0  0  0
   -1.1396    2.5200    4.8194 H   0  0  0  0  0  0  0  0  0  0  0  0
   -2.0299    0.6029    5.2596 C   0  0  0  0  0  0  0  0  0  0  0  0
   -2.5098    0.9423    6.1668 H   0  0  0  0  0  0  0  0  0  0  0  0
   -2.1762   -0.7334    4.8449 C   0  0  0  0  0  0  0  0  0  0  0  0
   -2.7675   -1.4201    5.4328 H   0  0  0  0  0  0  0  0  0  0  0  0
   -1.5466   -1.1762    3.6681 C   0  0  0  0  0  0  0  0  0  0  0  0
   -1.6572   -2.2053    3.3519 H   0  0  0  0  0  0  0  0  0  0  0  0
   -0.1524   -0.6805   -0.9409 C   0  0  0  0  0  0  0  0  0  0  0  0
   -0.2456   -1.7698   -1.5085 O   0  0  0  0  0  0  0  0  0  0  0  0
    0.6325    0.3025   -1.4000 N   0  0  0  0  0  0  0  0  0  0  0  0
    0.6986    1.1448   -0.8491 H   0  0  0  0  0  0  0  0  0  0  0  0
    1.4578    0.2025   -2.6013 C   0  0  0  0  0  0  0  0  0  0  0  0
    0.8461   -0.1272   -3.4437 H   0  0  0  0  0  0  0  0  0  0  0  0
    1.9007    1.1708   -2.8360 H   0  0  0  0  0  0  0  0  0  0  0  0
    2.2528   -0.5283   -2.4410 H   0  0  0  0  0  0  0  0  0  0  0  0
  5  6  2  0  0  0  0
  5  7  1  0  0  0  0
  2  3  1  0  0  0  0
  2  4  1  0  0  0  0
  2  5  1  0  0  0  0
  1  2  1  0  0  0  0
 25 26  2  0  0  0  0
 25 27  1  0  0  0  0
 23 24  1  0  0  0  0
 21 22  1  0  0  0  0
 21 23  2  0  0  0  0
 19 20  1  0  0  0  0
 19 21  1  0  0  0  0
 17 18  1  0  0  0  0
 17 19  2  0  0  0  0
 15 16  1  0  0  0  0
 15 17  1  0  0  0  0
 14 15  2  0  0  0  0
 14 23  1  0  0  0  0
 11 12  1  0  0  0  0
 11 13  1  0  0  0  0
 11 14  1  0  0  0  0
  9 10  1  0  0  0  0
  9 11  1  0  0  0  0
  9 25  1  0  0  0  0
  7  8  1  0  0  0  0
  7  9  1  0  0  0  0
 29 30  1  0  0  0  0
 29 31  1  0  0  0  0
 29 32  1  0  0  0  0
 27 28  1  0  0  0  0
 27 29  1  0  0  0  0
M  END
$$$$
default_name
  -OEChem-01062215323D

 32 32  0     1  0  0  0  0  0999 V2000
   -3.8405   -3.7518    1.6252 H   0  0  0  0  0  0  0  0  0  0  0  0
   -3.7965   -2.8768    0.9782 C   0  0  0  0  0  0  0  0  0  0  0  0
   -4.5465   -2.1527    1.2902 H   0  0  0  0  0  0  0  0  0  0  0  0
   -3.9745   -3.1748   -0.0538 H   0  0  0  0  0  0  0  0  0  0  0  0
   -2.4245   -2.2537    1.0882 C   0  0  0  0  0  0  0  0  0  0  0  0
   -1.5805   -2.7478    1.8242 O   0  0  0  0  0  0  0  0  0  0  0  0
   -2.2045   -1.1637    0.3562 N   0  0  0  0  0  0  0  0  0  0  0  0
   -2.9595   -0.7907   -0.2008 H   0  0  0  0  0  0  0  0  0  0  0  0
   -0.9485   -0.4087    0.3482 C   0  0  1  0  0  0  0  0  0  0  0  0
   -1.1824    0.6567    0.3754 H   0  0  0  0  0  0  0  0  0  0  0  0
   -0.1373   -0.7585    1.6075 C   0  0  0  0  0  0  0  0  0  0  0  0
   -0.0205   -1.8416    1.6654 H   0  0  0  0  0  0  0  0  0  0  0  0
    0.8602   -0.3258    1.5172 H   0  0  0  0  0  0  0  0  0  0  0  0
   -0.7733   -0.2845    2.9005 C   0  0  0  0  0  0  0  0  0  0  0  0
   -0.6276    1.0516    3.3191 C   0  0  0  0  0  0  0  0  0  0  0  0
   -0.0410    1.7437    2.7315 H   0  0  0  0  0  0  0  0  0  0  0  0
   -1.2549    1.4942    4.4984 C   0  0  0  0  0  0  0  0  0  0  0  0
   -1.1396    2.5200    4.8194 H   0  0  0  0  0  0  0  0  0  0  0  0
   -2.0299    0.6029    5.2596 C   0  0  0  0  0  0  0  0  0  0  0  0
   -2.5098    0.9423    6.1668 H   0  0  0  0  0  0  0  0  0  0  0  0
   -2.1762   -0.7334    4.8449 C   0  0  0  0  0  0  0  0  0  0  0  0
   -2.7675   -1.4201    5.4328 H   0  0  0  0  0  0  0  0  0  0  0  0
   -1.5466   -1.1762    3.6681 C   0  0  0  0  0  0  0  0  0  0  0  0
   -1.6572   -2.2053    3.3519 H   0  0  0  0  0  0  0  0  0  0  0  0
   -0.1524   -0.6805   -0.9409 C   0  0  0  0  0  0  0  0  0  0  0  0
   -0.4417   -1.6402   -1.6569 O   0  0  0  0  0  0  0  0  0  0  0  0
    0.8507    0.1566   -1.2345 N   0  0  0  0  0  0  0  0  0  0  0  0
    1.0618    0.8856   -0.5702 H   0  0  0  0  0  0  0  0  0  0  0  0
    1.7066    0.0333   -2.4120 C   0  0  0  0  0  0  0  0  0  0  0  0
    1.0906   -0.0426   -3.3105 H   0  0  0  0  0  0  0  0  0  0  0  0
    2.3595    0.9024   -2.4961 H   0  0  0  0  0  0  0  0  0  0  0  0
    2.3160   -0.8689   -2.3302 H   0  0  0  0  0  0  0  0  0  0  0  0
  5  6  2  0  0  0  0
  5  7  1  0  0  0  0
  2  3  1  0  0  0  0
  2  4  1  0  0  0  0
  2  5  1  0  0  0  0
  1  2  1  0  0  0  0
 25 26  2  0  0  0  0
 25 27  1  0  0  0  0
 23 24  1  0  0  0  0
 21 22  1  0  0  0  0
 21 23  2  0  0  0  0
 19 20  1  0  0  0  0
 19 21  1  0  0  0  0
 17 18  1  0  0  0  0
 17 19  2  0  0  0  0
 15 16  1  0  0  0  0
 15 17  1  0  0  0  0
 14 15  2  0  0  0  0
 14 23  1  0  0  0  0
 11 12  1  0  0  0  0
 11 13  1  0  0  0  0
 11 14  1  0  0  0  0
  9 10  1  0  0  0  0
  9 11  1  0  0  0  0
  9 25  1  0  0  0  0
  7  8  1  0  0  0  0
  7  9  1  0  0  0  0
 29 30  1  0  0  0  0
 29 31  1  0  0  0  0
 29 32  1  0  0  0  0
 27 28  1  0  0  0  0
 27 29  1  0  0  0  0
M  END
$$$$
default_name
  -OEChem-01062215323D

 32 32  0     1  0  0  0  0  0999 V2000
   -3.8405   -3.7518    1.6252 H   0  0  0  0  0  0  0  0  0  0  0  0
   -3.7965   -2.8768    0.9782 C   0  0  0  0  0  0  0  0  0  0  0  0
   -4.5465   -2.1527    1.2902 H   0  0  0  0  0  0  0  0  0  0  0  0
   -3.9745   -3.1748   -0.0538 H   0  0  0  0  0  0  0  0  0  0  0  0
   -2.4245   -2.2537    1.0882 C   0  0  0  0  0  0  0  0  0  0  0  0
   -1.5805   -2.7478    1.8242 O   0  0  0  0  0  0  0  0  0  0  0  0
   -2.2045   -1.1637    0.3562 N   0  0  0  0  0  0  0  0  0  0  0  0
   -2.9595   -0.7907   -0.2008 H   0  0  0  0  0  0  0  0  0  0  0  0
   -0.9485   -0.4087    0.3482 C   0  0  1  0  0  0  0  0  0  0  0  0
   -1.1591    0.6208    0.6419 H   0  0  0  0  0  0  0  0  0  0  0  0
    0.0174   -1.0181    1.3788 C   0  0  0  0  0  0  0  0  0  0  0  0
    0.1230   -2.0854    1.1789 H   0  0  0  0  0  0  0  0  0  0  0  0
    1.0009   -0.5627    1.2543 H   0  0  0  0  0  0  0  0  0  0  0  0
   -0.4329   -0.8517    2.8177 C   0  0  0  0  0  0  0  0  0  0  0  0
   -0.2108    0.3602    3.4989 C   0  0  0  0  0  0  0  0  0  0  0  0
    0.3036    1.1732    3.0064 H   0  0  0  0  0  0  0  0  0  0  0  0
   -0.6680    0.5214    4.8198 C   0  0  0  0  0  0  0  0  0  0  0  0
   -0.4942    1.4518    5.3419 H   0  0  0  0  0  0  0  0  0  0  0  0
   -1.3493   -0.5271    5.4609 C   0  0  0  0  0  0  0  0  0  0  0  0
   -1.6985   -0.4041    6.4766 H   0  0  0  0  0  0  0  0  0  0  0  0
   -1.5716   -1.7399    4.7836 C   0  0  0  0  0  0  0  0  0  0  0  0
   -2.0905   -2.5479    5.2781 H   0  0  0  0  0  0  0  0  0  0  0  0
   -1.1116   -1.9019    3.4647 C   0  0  0  0  0  0  0  0  0  0  0  0
   -1.2803   -2.8366    2.9458 H   0  0  0  0  0  0  0  0  0  0  0  0
   -0.3358   -0.3768   -1.0635 C   0  0  0  0  0  0  0  0  0  0  0  0
   -0.9016   -0.9469   -1.9974 O   0  0  0  0  0  0  0  0  0  0  0  0
    0.8195    0.2821   -1.2198 N   0  0  0  0  0  0  0  0  0  0  0  0
    1.2494    0.6753   -0.3964 H   0  0  0  0  0  0  0  0  0  0  0  0
    1.5344    0.3988   -2.4885 C   0  0  0  0  0  0  0  0  0  0  0  0
    0.8575    0.7685   -3.2616 H   0  0  0  0  0  0  0  0  0  0  0  0
    2.3736    1.0873   -2.3863 H   0  0  0  0  0  0  0  0  0  0  0  0
    1.9072   -0.5816   -2.7915 H   0  0  0  0  0  0  0  0  0  0  0  0
  5  6  2  0  0  0  0
  5  7  1  0  0  0  0
  2  3  1  0  0  0  0
  2  4  1  0  0  0  0
  2  5  1  0  0  0  0
  1  2  1  0  0  0  0
 25 26  2  0  0  0  0
 25 27  1  0  0  0  0
 23 24  1  0  0  0  0
 21 22  1  0  0  0  0
 21 23  2  0  0  0  0
 19 20  1  0  0  0  0
 19 21  1  0  0  0  0
 17 18  1  0  0  0  0
 17 19  2  0  0  0  0
 15 16  1  0  0  0  0
 15 17  1  0  0  0  0
 14 15  2  0  0  0  0
 14 23  1  0  0  0  0
 11 12  1  0  0  0  0
 11 13  1  0  0  0  0
 11 14  1  0  0  0  0
  9 10  1  0  0  0  0
  9 11  1  0  0  0  0
  9 25  1  0  0  0  0
  7  8  1  0  0  0  0
  7  9  1  0  0  0  0
 29 30  1  0  0  0  0
 29 31  1  0  0  0  0
 29 32  1  0  0  0  0
 27 28  1  0  0  0  0
 27 29  1  0  0  0  0
M  END
$$$$
default_name
  -OEChem-01062215323D

 32 32  0     1  0  0  0  0  0999 V2000
   -3.8405   -3.7518    1.6252 H   0  0  0  0  0  0  0  0  0  0  0  0
   -3.7965   -2.8768    0.9782 C   0  0  0  0  0  0  0  0  0  0  0  0
   -4.5465   -2.1527    1.2902 H   0  0  0  0  0  0  0  0  0  0  0  0
   -3.9745   -3.1748   -0.0538 H   0  0  0  0  0  0  0  0  0  0  0  0
   -2.4245   -2.2537    1.0882 C   0  0  0  0  0  0  0  0  0  0  0  0
   -1.5805   -2.7478    1.8242 O   0  0  0  0  0  0  0  0  0  0  0  0
   -2.2045   -1.1637    0.3562 N   0  0  0  0  0  0  0  0  0  0  0  0
   -2.9595   -0.7907   -0.2008 H   0  0  0  0  0  0  0  0  0  0  0  0
   -0.9485   -0.4087    0.3482 C   0  0  1  0  0  0  0  0  0  0  0  0
   -1.1591    0.6208    0.6419 H   0  0  0  0  0  0  0  0  0  0  0  0
    0.0174   -1.0181    1.3788 C   0  0  0  0  0  0  0  0  0  0  0  0
    0.1230   -2.0854    1.1789 H   0  0  0  0  0  0  0  0  0  0  0  0
    1.0009   -0.5627    1.2543 H   0  0  0  0  0  0  0  0  0  0  0  0
   -0.4329   -0.8517    2.8177 C   0  0  0  0  0  0  0  0  0  0  0  0
   -0.2108    0.3602    3.4989 C   0  0  0  0  0  0  0  0  0  0  0  0
    0.3036    1.1732    3.0064 H   0  0  0  0  0  0  0  0  0  0  0  0
   -0.6680    0.5214    4.8198 C   0  0  0  0  0  0  0  0  0  0  0  0
   -0.4942    1.4518    5.3419 H   0  0  0  0  0  0  0  0  0  0  0  0
   -1.3493   -0.5271    5.4609 C   0  0  0  0  0  0  0  0  0  0  0  0
   -1.6985   -0.4041    6.4766 H   0  0  0  0  0  0  0  0  0  0  0  0
   -1.5716   -1.7399    4.7836 C   0  0  0  0  0  0  0  0  0  0  0  0
   -2.0905   -2.5479    5.2781 H   0  0  0  0  0  0  0  0  0  0  0  0
   -1.1116   -1.9019    3.4647 C   0  0  0  0  0  0  0  0  0  0  0  0
   -1.2803   -2.8366    2.9458 H   0  0  0  0  0  0  0  0  0  0  0  0
   -0.3358   -0.3768   -1.0635 C   0  0  0  0  0  0  0  0  0  0  0  0
   -1.0143   -0.6965   -2.0407 O   0  0  0  0  0  0  0  0  0  0  0  0
    0.9440    0.0020   -1.1721 N   0  0  0  0  0  0  0  0  0  0  0  0
    1.4492    0.1945   -0.3206 H   0  0  0  0  0  0  0  0  0  0  0  0
    1.6751    0.0767   -2.4347 C   0  0  0  0  0  0  0  0  0  0  0  0
    1.1110    0.6744   -3.1537 H   0  0  0  0  0  0  0  0  0  0  0  0
    2.6532    0.5322   -2.2775 H   0  0  0  0  0  0  0  0  0  0  0  0
    1.8064   -0.9272   -2.8431 H   0  0  0  0  0  0  0  0  0  0  0  0
  5  6  2  0  0  0  0
  5  7  1  0  0  0  0
  2  3  1  0  0  0  0
  2  4  1  0  0  0  0
  2  5  1  0  0  0  0
  1  2  1  0  0  0  0
 25 26  2  0  0  0  0
 25 27  1  0  0  0  0
 23 24  1  0  0  0  0
 21 22  1  0  0  0  0
 21 23  2  0  0  0  0
 19 20  1  0  0  0  0
 19 21  1  0  0  0  0
 17 18  1  0  0  0  0
 17 19  2  0  0  0  0
 15 16  1  0  0  0  0
 15 17  1  0  0  0  0
 14 15  2  0  0  0  0
 14 23  1  0  0  0  0
 11 12  1  0  0  0  0
 11 13  1  0  0  0  0
 11 14  1  0  0  0  0
  9 10  1  0  0  0  0
  9 11  1  0  0  0  0
  9 25  1  0  0  0  0
  7  8  1  0  0  0  0
  7  9  1  0  0  0  0
 29 30  1  0  0  0  0
 29 31  1  0  0  0  0
 29 32  1  0  0  0  0
 27 28  1  0  0  0  0
 27 29  1  0  0  0  0
M  END
$$$$
default_name
  -OEChem-01062215323D

 32 32  0     1  0  0  0  0  0999 V2000
   -3.8405   -3.7518    1.6252 H   0  0  0  0  0  0  0  0  0  0  0  0
   -3.7965   -2.8768    0.9782 C   0  0  0  0  0  0  0  0  0  0  0  0
   -4.5465   -2.1527    1.2902 H   0  0  0  0  0  0  0  0  0  0  0  0
   -3.9745   -3.1748   -0.0538 H   0  0  0  0  0  0  0  0  0  0  0  0
   -2.4245   -2.2537    1.0882 C   0  0  0  0  0  0  0  0  0  0  0  0
   -1.5805   -2.7478    1.8242 O   0  0  0  0  0  0  0  0  0  0  0  0
   -2.2045   -1.1637    0.3562 N   0  0  0  0  0  0  0  0  0  0  0  0
   -2.9595   -0.7907   -0.2008 H   0  0  0  0  0  0  0  0  0  0  0  0
   -0.9485   -0.4087    0.3482 C   0  0  1  0  0  0  0  0  0  0  0  0
   -1.1591    0.6208    0.6419 H   0  0  0  0  0  0  0  0  0  0  0  0
    0.0174   -1.0181    1.3788 C   0  0  0  0  0  0  0  0  0  0  0  0
    0.1230   -2.0854    1.1789 H   0  0  0  0  0  0  0  0  0  0  0  0
    1.0009   -0.5627    1.2543 H   0  0  0  0  0  0  0  0  0  0  0  0
   -0.4329   -0.8517    2.8177 C   0  0  0  0  0  0  0  0  0  0  0  0
   -0.2108    0.3602    3.4989 C   0  0  0  0  0  0  0  0  0  0  0  0
    0.3036    1.1732    3.0064 H   0  0  0  0  0  0  0  0  0  0  0  0
   -0.6680    0.5214    4.8198 C   0  0  0  0  0  0  0  0  0  0  0  0
   -0.4942    1.4518    5.3419 H   0  0  0  0  0  0  0  0  0  0  0  0
   -1.3493   -0.5271    5.4609 C   0  0  0  0  0  0  0  0  0  0  0  0
   -1.6985   -0.4041    6.4766 H   0  0  0  0  0  0  0  0  0  0  0  0
   -1.5716   -1.7399    4.7836 C   0  0  0  0  0  0  0  0  0  0  0  0
   -2.0905   -2.5479    5.2781 H   0  0  0  0  0  0  0  0  0  0  0  0
   -1.1116   -1.9019    3.4647 C   0  0  0  0  0  0  0  0  0  0  0  0
   -1.2803   -2.8366    2.9458 H   0  0  0  0  0  0  0  0  0  0  0  0
   -0.3358   -0.3768   -1.0635 C   0  0  0  0  0  0  0  0  0  0  0  0
   -1.0639   -0.4234   -2.0560 O   0  0  0  0  0  0  0  0  0  0  0  0
    0.9981   -0.3031   -1.1555 N   0  0  0  0  0  0  0  0  0  0  0  0
    1.5285   -0.3252   -0.2979 H   0  0  0  0  0  0  0  0  0  0  0  0
    1.7349   -0.2733   -2.4167 C   0  0  0  0  0  0  0  0  0  0  0  0
    1.3341    0.5123   -3.0605 H   0  0  0  0  0  0  0  0  0  0  0  0
    2.7921   -0.0815   -2.2311 H   0  0  0  0  0  0  0  0  0  0  0  0
    1.6267   -1.2318   -2.9279 H   0  0  0  0  0  0  0  0  0  0  0  0
  5  6  2  0  0  0  0
  5  7  1  0  0  0  0
  2  3  1  0  0  0  0
  2  4  1  0  0  0  0
  2  5  1  0  0  0  0
  1  2  1  0  0  0  0
 25 26  2  0  0  0  0
 25 27  1  0  0  0  0
 23 24  1  0  0  0  0
 21 22  1  0  0  0  0
 21 23  2  0  0  0  0
 19 20  1  0  0  0  0
 19 21  1  0  0  0  0
 17 18  1  0  0  0  0
 17 19  2  0  0  0  0
 15 16  1  0  0  0  0
 15 17  1  0  0  0  0
 14 15  2  0  0  0  0
 14 23  1  0  0  0  0
 11 12  1  0  0  0  0
 11 13  1  0  0  0  0
 11 14  1  0  0  0  0
  9 10  1  0  0  0  0
  9 11  1  0  0  0  0
  9 25  1  0  0  0  0
  7  8  1  0  0  0  0
  7  9  1  0  0  0  0
 29 30  1  0  0  0  0
 29 31  1  0  0  0  0
 29 32  1  0  0  0  0
 27 28  1  0  0  0  0
 27 29  1  0  0  0  0
M  END
$$$$
default_name
  -OEChem-01062215323D

 32 32  0     1  0  0  0  0  0999 V2000
   -3.8405   -3.7518    1.6252 H   0  0  0  0  0  0  0  0  0  0  0  0
   -3.7965   -2.8768    0.9782 C   0  0  0  0  0  0  0  0  0  0  0  0
   -4.5465   -2.1527    1.2902 H   0  0  0  0  0  0  0  0  0  0  0  0
   -3.9745   -3.1748   -0.0538 H   0  0  0  0  0  0  0  0  0  0  0  0
   -2.4245   -2.2537    1.0882 C   0  0  0  0  0  0  0  0  0  0  0  0
   -1.5805   -2.7478    1.8242 O   0  0  0  0  0  0  0  0  0  0  0  0
   -2.2045   -1.1637    0.3562 N   0  0  0  0  0  0  0  0  0  0  0  0
   -2.9595   -0.7907   -0.2008 H   0  0  0  0  0  0  0  0  0  0  0  0
   -0.9485   -0.4087    0.3482 C   0  0  1  0  0  0  0  0  0  0  0  0
   -1.1591    0.6208    0.6419 H   0  0  0  0  0  0  0  0  0  0  0  0
    0.0174   -1.0181    1.3788 C   0  0  0  0  0  0  0  0  0  0  0  0
    0.1230   -2.0854    1.1789 H   0  0  0  0  0  0  0  0  0  0  0  0
    1.0009   -0.5627    1.2543 H   0  0  0  0  0  0  0  0  0  0  0  0
   -0.4329   -0.8517    2.8177 C   0  0  0  0  0  0  0  0  0  0  0  0
   -0.2108    0.3602    3.4989 C   0  0  0  0  0  0  0  0  0  0  0  0
    0.3036    1.1732    3.0064 H   0  0  0  0  0  0  0  0  0  0  0  0
   -0.6680    0.5214    4.8198 C   0  0  0  0  0  0  0  0  0  0  0  0
   -0.4942    1.4518    5.3419 H   0  0  0  0  0  0  0  0  0  0  0  0
   -1.3493   -0.5271    5.4609 C   0  0  0  0  0  0  0  0  0  0  0  0
   -1.6985   -0.4041    6.4766 H   0  0  0  0  0  0  0  0  0  0  0  0
   -1.5716   -1.7399    4.7836 C   0  0  0  0  0  0  0  0  0  0  0  0
   -2.0905   -2.5479    5.2781 H   0  0  0  0  0  0  0  0  0  0  0  0
   -1.1116   -1.9019    3.4647 C   0  0  0  0  0  0  0  0  0  0  0  0
   -1.2803   -2.8366    2.9458 H   0  0  0  0  0  0  0  0  0  0  0  0
   -0.3358   -0.3768   -1.0635 C   0  0  0  0  0  0  0  0  0  0  0  0
   -1.0471   -0.1463   -2.0424 O   0  0  0  0  0  0  0  0  0  0  0  0
    0.9780   -0.6123   -1.1712 N   0  0  0  0  0  0  0  0  0  0  0  0
    1.4819   -0.8483   -0.3300 H   0  0  0  0  0  0  0  0  0  0  0  0
    1.7097   -0.6275   -2.4356 C   0  0  0  0  0  0  0  0  0  0  0  0
    1.5116    0.2932   -2.9885 H   0  0  0  0  0  0  0  0  0  0  0  0
    2.7808   -0.7121   -2.2503 H   0  0  0  0  0  0  0  0  0  0  0  0
    1.3804   -1.4747   -3.0404 H   0  0  0  0  0  0  0  0  0  0  0  0
  5  6  2  0  0  0  0
  5  7  1  0  0  0  0
  2  3  1  0  0  0  0
  2  4  1  0  0  0  0
  2  5  1  0  0  0  0
  1  2  1  0  0  0  0
 25 26  2  0  0  0  0
 25 27  1  0  0  0  0
 23 24  1  0  0  0  0
 21 22  1  0  0  0  0
 21 23  2  0  0  0  0
 19 20  1  0  0  0  0
 19 21  1  0  0  0  0
 17 18  1  0  0  0  0
 17 19  2  0  0  0  0
 15 16  1  0  0  0  0
 15 17  1  0  0  0  0
 14 15  2  0  0  0  0
 14 23  1  0  0  0  0
 11 12  1  0  0  0  0
 11 13  1  0  0  0  0
 11 14  1  0  0  0  0
  9 10  1  0  0  0  0
  9 11  1  0  0  0  0
  9 25  1  0  0  0  0
  7  8  1  0  0  0  0
  7  9  1  0  0  0  0
 29 30  1  0  0  0  0
 29 31  1  0  0  0  0
 29 32  1  0  0  0  0
 27 28  1  0  0  0  0
 27 29  1  0  0  0  0
M  END
$$$$
default_name
  -OEChem-01062215323D

 32 32  0     1  0  0  0  0  0999 V2000
   -3.8405   -3.7518    1.6252 H   0  0  0  0  0  0  0  0  0  0  0  0
   -3.7965   -2.8768    0.9782 C   0  0  0  0  0  0  0  0  0  0  0  0
   -4.5465   -2.1527    1.2902 H   0  0  0  0  0  0  0  0  0  0  0  0
   -3.9745   -3.1748   -0.0538 H   0  0  0  0  0  0  0  0  0  0  0  0
   -2.4245   -2.2537    1.0882 C   0  0  0  0  0  0  0  0  0  0  0  0
   -1.5805   -2.7478    1.8242 O   0  0  0  0  0  0  0  0  0  0  0  0
   -2.2045   -1.1637    0.3562 N   0  0  0  0  0  0  0  0  0  0  0  0
   -2.9595   -0.7907   -0.2008 H   0  0  0  0  0  0  0  0  0  0  0  0
   -0.9485   -0.4087    0.3482 C   0  0  1  0  0  0  0  0  0  0  0  0
   -1.1591    0.6208    0.6419 H   0  0  0  0  0  0  0  0  0  0  0  0
    0.0174   -1.0181    1.3788 C   0  0  0  0  0  0  0  0  0  0  0  0
    0.1230   -2.0854    1.1789 H   0  0  0  0  0  0  0  0  0  0  0  0
    1.0009   -0.5627    1.2543 H   0  0  0  0  0  0  0  0  0  0  0  0
   -0.4329   -0.8517    2.8177 C   0  0  0  0  0  0  0  0  0  0  0  0
   -0.2108    0.3602    3.4989 C   0  0  0  0  0  0  0  0  0  0  0  0
    0.3036    1.1732    3.0064 H   0  0  0  0  0  0  0  0  0  0  0  0
   -0.6680    0.5214    4.8198 C   0  0  0  0  0  0  0  0  0  0  0  0
   -0.4942    1.4518    5.3419 H   0  0  0  0  0  0  0  0  0  0  0  0
   -1.3493   -0.5271    5.4609 C   0  0  0  0  0  0  0  0  0  0  0  0
   -1.6985   -0.4041    6.4766 H   0  0  0  0  0  0  0  0  0  0  0  0
   -1.5716   -1.7399    4.7836 C   0  0  0  0  0  0  0  0  0  0  0  0
   -2.0905   -2.5479    5.2781 H   0  0  0  0  0  0  0  0  0  0  0  0
   -1.1116   -1.9019    3.4647 C   0  0  0  0  0  0  0  0  0  0  0  0
   -1.2803   -2.8366    2.9458 H   0  0  0  0  0  0  0  0  0  0  0  0
   -0.3358   -0.3768   -1.0635 C   0  0  0  0  0  0  0  0  0  0  0  0
   -0.9650    0.1160   -2.0009 O   0  0  0  0  0  0  0  0  0  0  0  0
    0.8851   -0.9046   -1.2182 N   0  0  0  0  0  0  0  0  0  0  0  0
    1.3126   -1.3393   -0.4146 H   0  0  0  0  0  0  0  0  0  0  0  0
    1.6011   -0.9616   -2.4903 C   0  0  0  0  0  0  0  0  0  0  0  0
    1.6314    0.0320   -2.9424 H   0  0  0  0  0  0  0  0  0  0  0  0
    2.6202   -1.3165   -2.3338 H   0  0  0  0  0  0  0  0  0  0  0  0
    1.0842   -1.6392   -3.1726 H   0  0  0  0  0  0  0  0  0  0  0  0
  5  6  2  0  0  0  0
  5  7  1  0  0  0  0
  2  3  1  0  0  0  0
  2  4  1  0  0  0  0
  2  5  1  0  0  0  0
  1  2  1  0  0  0  0
 25 26  2  0  0  0  0
 25 27  1  0  0  0  0
 23 24  1  0  0  0  0
 21 22  1  0  0  0  0
 21 23  2  0  0  0  0
 19 20  1  0  0  0  0
 19 21  1  0  0  0  0
 17 18  1  0  0  0  0
 17 19  2  0  0  0  0
 15 16  1  0  0  0  0
 15 17  1  0  0  0  0
 14 15  2  0  0  0  0
 14 23  1  0  0  0  0
 11 12  1  0  0  0  0
 11 13  1  0  0  0  0
 11 14  1  0  0  0  0
  9 10  1  0  0  0  0
  9 11  1  0  0  0  0
  9 25  1  0  0  0  0
  7  8  1  0  0  0  0
  7  9  1  0  0  0  0
 29 30  1  0  0  0  0
 29 31  1  0  0  0  0
 29 32  1  0  0  0  0
 27 28  1  0  0  0  0
 27 29  1  0  0  0  0
M  END
$$$$
default_name
  -OEChem-01062215323D

 32 32  0     1  0  0  0  0  0999 V2000
   -3.8405   -3.7518    1.6252 H   0  0  0  0  0  0  0  0  0  0  0  0
   -3.7965   -2.8768    0.9782 C   0  0  0  0  0  0  0  0  0  0  0  0
   -4.5465   -2.1527    1.2902 H   0  0  0  0  0  0  0  0  0  0  0  0
   -3.9745   -3.1748   -0.0538 H   0  0  0  0  0  0  0  0  0  0  0  0
   -2.4245   -2.2537    1.0882 C   0  0  0  0  0  0  0  0  0  0  0  0
   -1.5805   -2.7478    1.8242 O   0  0  0  0  0  0  0  0  0  0  0  0
   -2.2045   -1.1637    0.3562 N   0  0  0  0  0  0  0  0  0  0  0  0
   -2.9595   -0.7907   -0.2008 H   0  0  0  0  0  0  0  0  0  0  0  0
   -0.9485   -0.4087    0.3482 C   0  0  1  0  0  0  0  0  0  0  0  0
   -1.1591    0.6208    0.6419 H   0  0  0  0  0  0  0  0  0  0  0  0
    0.0174   -1.0181    1.3788 C   0  0  0  0  0  0  0  0  0  0  0  0
    0.1230   -2.0854    1.1789 H   0  0  0  0  0  0  0  0  0  0  0  0
    1.0009   -0.5627    1.2543 H   0  0  0  0  0  0  0  0  0  0  0  0
   -0.4329   -0.8517    2.8177 C   0  0  0  0  0  0  0  0  0  0  0  0
   -0.2108    0.3602    3.4989 C   0  0  0  0  0  0  0  0  0  0  0  0
    0.3036    1.1732    3.0064 H   0  0  0  0  0  0  0  0  0  0  0  0
   -0.6680    0.5214    4.8198 C   0  0  0  0  0  0  0  0  0  0  0  0
   -0.4942    1.4518    5.3419 H   0  0  0  0  0  0  0  0  0  0  0  0
   -1.3493   -0.5271    5.4609 C   0  0  0  0  0  0  0  0  0  0  0  0
   -1.6985   -0.4041    6.4766 H   0  0  0  0  0  0  0  0  0  0  0  0
   -1.5716   -1.7399    4.7836 C   0  0  0  0  0  0  0  0  0  0  0  0
   -2.0905   -2.5479    5.2781 H   0  0  0  0  0  0  0  0  0  0  0  0
   -1.1116   -1.9019    3.4647 C   0  0  0  0  0  0  0  0  0  0  0  0
   -1.2803   -2.8366    2.9458 H   0  0  0  0  0  0  0  0  0  0  0  0
   -0.3358   -0.3768   -1.0635 C   0  0  0  0  0  0  0  0  0  0  0  0
   -0.8233    0.3456   -1.9341 O   0  0  0  0  0  0  0  0  0  0  0  0
    0.7258   -1.1600   -1.2931 N   0  0  0  0  0  0  0  0  0  0  0  0
    1.0320   -1.7646   -0.5461 H   0  0  0  0  0  0  0  0  0  0  0  0
    1.4167   -1.2530   -2.5770 C   0  0  0  0  0  0  0  0  0  0  0  0
    1.6854   -0.2535   -2.9254 H   0  0  0  0  0  0  0  0  0  0  0  0
    2.3210   -1.8536   -2.4758 H   0  0  0  0  0  0  0  0  0  0  0  0
    0.7584   -1.7142   -3.3158 H   0  0  0  0  0  0  0  0  0  0  0  0
  5  6  2  0  0  0  0
  5  7  1  0  0  0  0
  2  3  1  0  0  0  0
  2  4  1  0  0  0  0
  2  5  1  0  0  0  0
  1  2  1  0  0  0  0
 25 26  2  0  0  0  0
 25 27  1  0  0  0  0
 23 24  1  0  0  0  0
 21 22  1  0  0  0  0
 21 23  2  0  0  0  0
 19 20  1  0  0  0  0
 19 21  1  0  0  0  0
 17 18  1  0  0  0  0
 17 19  2  0  0  0  0
 15 16  1  0  0  0  0
 15 17  1  0  0  0  0
 14 15  2  0  0  0  0
 14 23  1  0  0  0  0
 11 12  1  0  0  0  0
 11 13  1  0  0  0  0
 11 14  1  0  0  0  0
  9 10  1  0  0  0  0
  9 11  1  0  0  0  0
  9 25  1  0  0  0  0
  7  8  1  0  0  0  0
  7  9  1  0  0  0  0
 29 30  1  0  0  0  0
 29 31  1  0  0  0  0
 29 32  1  0  0  0  0
 27 28  1  0  0  0  0
 27 29  1  0  0  0  0
M  END
$$$$
default_name
  -OEChem-01062215323D

 32 32  0     1  0  0  0  0  0999 V2000
   -3.8405   -3.7518    1.6252 H   0  0  0  0  0  0  0  0  0  0  0  0
   -3.7965   -2.8768    0.9782 C   0  0  0  0  0  0  0  0  0  0  0  0
   -4.5465   -2.1527    1.2902 H   0  0  0  0  0  0  0  0  0  0  0  0
   -3.9745   -3.1748   -0.0538 H   0  0  0  0  0  0  0  0  0  0  0  0
   -2.4245   -2.2537    1.0882 C   0  0  0  0  0  0  0  0  0  0  0  0
   -1.5805   -2.7478    1.8242 O   0  0  0  0  0  0  0  0  0  0  0  0
   -2.2045   -1.1637    0.3562 N   0  0  0  0  0  0  0  0  0  0  0  0
   -2.9595   -0.7907   -0.2008 H   0  0  0  0  0  0  0  0  0  0  0  0
   -0.9485   -0.4087    0.3482 C   0  0  1  0  0  0  0  0  0  0  0  0
   -1.1591    0.6208    0.6419 H   0  0  0  0  0  0  0  0  0  0  0  0
    0.0174   -1.0181    1.3788 C   0  0  0  0  0  0  0  0  0  0  0  0
    0.1230   -2.0854    1.1789 H   0  0  0  0  0  0  0  0  0  0  0  0
    1.0009   -0.5627    1.2543 H   0  0  0  0  0  0  0  0  0  0  0  0
   -0.4329   -0.8517    2.8177 C   0  0  0  0  0  0  0  0  0  0  0  0
   -0.2108    0.3602    3.4989 C   0  0  0  0  0  0  0  0  0  0  0  0
    0.3036    1.1732    3.0064 H   0  0  0  0  0  0  0  0  0  0  0  0
   -0.6680    0.5214    4.8198 C   0  0  0  0  0  0  0  0  0  0  0  0
   -0.4942    1.4518    5.3419 H   0  0  0  0  0  0  0  0  0  0  0  0
   -1.3493   -0.5271    5.4609 C   0  0  0  0  0  0  0  0  0  0  0  0
   -1.6985   -0.4041    6.4766 H   0  0  0  0  0  0  0  0  0  0  0  0
   -1.5716   -1.7399    4.7836 C   0  0  0  0  0  0  0  0  0  0  0  0
   -2.0905   -2.5479    5.2781 H   0  0  0  0  0  0  0  0  0  0  0  0
   -1.1116   -1.9019    3.4647 C   0  0  0  0  0  0  0  0  0  0  0  0
   -1.2803   -2.8366    2.9458 H   0  0  0  0  0  0  0  0  0  0  0  0
   -0.3358   -0.3768   -1.0635 C   0  0  0  0  0  0  0  0  0  0  0  0
   -0.6315    0.5269   -1.8468 O   0  0  0  0  0  0  0  0  0  0  0  0
    0.5108   -1.3612   -1.3910 N   0  0  0  0  0  0  0  0  0  0  0  0
    0.6593   -2.0952   -0.7153 H   0  0  0  0  0  0  0  0  0  0  0  0
    1.1689   -1.4817   -2.6897 C   0  0  0  0  0  0  0  0  0  0  0  0
    1.6699   -0.5439   -2.9387 H   0  0  0  0  0  0  0  0  0  0  0  0
    1.9038   -2.2868   -2.6667 H   0  0  0  0  0  0  0  0  0  0  0  0
    0.4251   -1.6945   -3.4600 H   0  0  0  0  0  0  0  0  0  0  0  0
  5  6  2  0  0  0  0
  5  7  1  0  0  0  0
  2  3  1  0  0  0  0
  2  4  1  0  0  0  0
  2  5  1  0  0  0  0
  1  2  1  0  0  0  0
 25 26  2  0  0  0  0
 25 27  1  0  0  0  0
 23 24  1  0  0  0  0
 21 22  1  0  0  0  0
 21 23  2  0  0  0  0
 19 20  1  0  0  0  0
 19 21  1  0  0  0  0
 17 18  1  0  0  0  0
 17 19  2  0  0  0  0
 15 16  1  0  0  0  0
 15 17  1  0  0  0  0
 14 15  2  0  0  0  0
 14 23  1  0  0  0  0
 11 12  1  0  0  0  0
 11 13  1  0  0  0  0
 11 14  1  0  0  0  0
  9 10  1  0  0  0  0
  9 11  1  0  0  0  0
  9 25  1  0  0  0  0
  7  8  1  0  0  0  0
  7  9  1  0  0  0  0
 29 30  1  0  0  0  0
 29 31  1  0  0  0  0
 29 32  1  0  0  0  0
 27 28  1  0  0  0  0
 27 29  1  0  0  0  0
M  END
$$$$
default_name
  -OEChem-01062215323D

 32 32  0     1  0  0  0  0  0999 V2000
   -3.8405   -3.7518    1.6252 H   0  0  0  0  0  0  0  0  0  0  0  0
   -3.7965   -2.8768    0.9782 C   0  0  0  0  0  0  0  0  0  0  0  0
   -4.5465   -2.1527    1.2902 H   0  0  0  0  0  0  0  0  0  0  0  0
   -3.9745   -3.1748   -0.0538 H   0  0  0  0  0  0  0  0  0  0  0  0
   -2.4245   -2.2537    1.0882 C   0  0  0  0  0  0  0  0  0  0  0  0
   -1.5805   -2.7478    1.8242 O   0  0  0  0  0  0  0  0  0  0  0  0
   -2.2045   -1.1637    0.3562 N   0  0  0  0  0  0  0  0  0  0  0  0
   -2.9595   -0.7907   -0.2008 H   0  0  0  0  0  0  0  0  0  0  0  0
   -0.9485   -0.4087    0.3482 C   0  0  1  0  0  0  0  0  0  0  0  0
   -1.1591    0.6208    0.6419 H   0  0  0  0  0  0  0  0  0  0  0  0
    0.0174   -1.0181    1.3788 C   0  0  0  0  0  0  0  0  0  0  0  0
    0.1230   -2.0854    1.1789 H   0  0  0  0  0  0  0  0  0  0  0  0
    1.0009   -0.5627    1.2543 H   0  0  0  0  0  0  0  0  0  0  0  0
   -0.4329   -0.8517    2.8177 C   0  0  0  0  0  0  0  0  0  0  0  0
   -0.2108    0.3602    3.4989 C   0  0  0  0  0  0  0  0  0  0  0  0
    0.3036    1.1732    3.0064 H   0  0  0  0  0  0  0  0  0  0  0  0
   -0.6680    0.5214    4.8198 C   0  0  0  0  0  0  0  0  0  0  0  0
   -0.4942    1.4518    5.3419 H   0  0  0  0  0  0  0  0  0  0  0  0
   -1.3493   -0.5271    5.4609 C   0  0  0  0  0  0  0  0  0  0  0  0
   -1.6985   -0.4041    6.4766 H   0  0  0  0  0  0  0  0  0  0  0  0
   -1.5716   -1.7399    4.7836 C   0  0  0  0  0  0  0  0  0  0  0  0
   -2.0905   -2.5479    5.2781 H   0  0  0  0  0  0  0  0  0  0  0  0
   -1.1116   -1.9019    3.4647 C   0  0  0  0  0  0  0  0  0  0  0  0
   -1.2803   -2.8366    2.9458 H   0  0  0  0  0  0  0  0  0  0  0  0
   -0.3358   -0.3768   -1.0635 C   0  0  0  0  0  0  0  0  0  0  0  0
   -0.4027    0.6474   -1.7447 O   0  0  0  0  0  0  0  0  0  0  0  0
    0.2549   -1.4945   -1.5051 N   0  0  0  0  0  0  0  0  0  0  0  0
    0.2199   -2.3087   -0.9109 H   0  0  0  0  0  0  0  0  0  0  0  0
    0.8746   -1.6322   -2.8209 C   0  0  0  0  0  0  0  0  0  0  0  0
    1.5859   -0.8193   -2.9814 H   0  0  0  0  0  0  0  0  0  0  0  0
    1.3970   -2.5865   -2.8934 H   0  0  0  0  0  0  0  0  0  0  0  0
    0.1070   -1.5816   -3.5955 H   0  0  0  0  0  0  0  0  0  0  0  0
  5  6  2  0  0  0  0
  5  7  1  0  0  0  0
  2  3  1  0  0  0  0
  2  4  1  0  0  0  0
  2  5  1  0  0  0  0
  1  2  1  0  0  0  0
 25 26  2  0  0  0  0
 25 27  1  0  0  0  0
 23 24  1  0  0  0  0
 21 22  1  0  0  0  0
 21 23  2  0  0  0  0
 19 20  1  0  0  0  0
 19 21  1  0  0  0  0
 17 18  1  0  0  0  0
 17 19  2  0  0  0  0
 15 16  1  0  0  0  0
 15 17  1  0  0  0  0
 14 15  2  0  0  0  0
 14 23  1  0  0  0  0
 11 12  1  0  0  0  0
 11 13  1  0  0  0  0
 11 14  1  0  0  0  0
  9 10  1  0  0  0  0
  9 11  1  0  0  0  0
  9 25  1  0  0  0  0
  7  8  1  0  0  0  0
  7  9  1  0  0  0  0
 29 30  1  0  0  0  0
 29 31  1  0  0  0  0
 29 32  1  0  0  0  0
 27 28  1  0  0  0  0
 27 29  1  0  0  0  0
M  END
$$$$
default_name
  -OEChem-01062215323D

 32 32  0     1  0  0  0  0  0999 V2000
   -3.8405   -3.7518    1.6252 H   0  0  0  0  0  0  0  0  0  0  0  0
   -3.7965   -2.8768    0.9782 C   0  0  0  0  0  0  0  0  0  0  0  0
   -4.5465   -2.1527    1.2902 H   0  0  0  0  0  0  0  0  0  0  0  0
   -3.9745   -3.1748   -0.0538 H   0  0  0  0  0  0  0  0  0  0  0  0
   -2.4245   -2.2537    1.0882 C   0  0  0  0  0  0  0  0  0  0  0  0
   -1.5805   -2.7478    1.8242 O   0  0  0  0  0  0  0  0  0  0  0  0
   -2.2045   -1.1637    0.3562 N   0  0  0  0  0  0  0  0  0  0  0  0
   -2.9595   -0.7907   -0.2008 H   0  0  0  0  0  0  0  0  0  0  0  0
   -0.9485   -0.4087    0.3482 C   0  0  1  0  0  0  0  0  0  0  0  0
   -1.1591    0.6208    0.6419 H   0  0  0  0  0  0  0  0  0  0  0  0
    0.0174   -1.0181    1.3788 C   0  0  0  0  0  0  0  0  0  0  0  0
    0.1230   -2.0854    1.1789 H   0  0  0  0  0  0  0  0  0  0  0  0
    1.0009   -0.5627    1.2543 H   0  0  0  0  0  0  0  0  0  0  0  0
   -0.4329   -0.8517    2.8177 C   0  0  0  0  0  0  0  0  0  0  0  0
   -0.2108    0.3602    3.4989 C   0  0  0  0  0  0  0  0  0  0  0  0
    0.3036    1.1732    3.0064 H   0  0  0  0  0  0  0  0  0  0  0  0
   -0.6680    0.5214    4.8198 C   0  0  0  0  0  0  0  0  0  0  0  0
   -0.4942    1.4518    5.3419 H   0  0  0  0  0  0  0  0  0  0  0  0
   -1.3493   -0.5271    5.4609 C   0  0  0  0  0  0  0  0  0  0  0  0
   -1.6985   -0.4041    6.4766 H   0  0  0  0  0  0  0  0  0  0  0  0
   -1.5716   -1.7399    4.7836 C   0  0  0  0  0  0  0  0  0  0  0  0
   -2.0905   -2.5479    5.2781 H   0  0  0  0  0  0  0  0  0  0  0  0
   -1.1116   -1.9019    3.4647 C   0  0  0  0  0  0  0  0  0  0  0  0
   -1.2803   -2.8366    2.9458 H   0  0  0  0  0  0  0  0  0  0  0  0
   -0.3358   -0.3768   -1.0635 C   0  0  0  0  0  0  0  0  0  0  0  0
   -0.1526    0.6990   -1.6350 O   0  0  0  0  0  0  0  0  0  0  0  0
   -0.0246   -1.5506   -1.6277 N   0  0  0  0  0  0  0  0  0  0  0  0
   -0.2562   -2.3905   -1.1194 H   0  0  0  0  0  0  0  0  0  0  0  0
    0.5540   -1.6942   -2.9614 C   0  0  0  0  0  0  0  0  0  0  0  0
    1.4392   -1.0610   -3.0506 H   0  0  0  0  0  0  0  0  0  0  0  0
    0.8351   -2.7323   -3.1406 H   0  0  0  0  0  0  0  0  0  0  0  0
   -0.1741   -1.3830   -3.7130 H   0  0  0  0  0  0  0  0  0  0  0  0
  5  6  2  0  0  0  0
  5  7  1  0  0  0  0
  2  3  1  0  0  0  0
  2  4  1  0  0  0  0
  2  5  1  0  0  0  0
  1  2  1  0  0  0  0
 25 26  2  0  0  0  0
 25 27  1  0  0  0  0
 23 24  1  0  0  0  0
 21 22  1  0  0  0  0
 21 23  2  0  0  0  0
 19 20  1  0  0  0  0
 19 21  1  0  0  0  0
 17 18  1  0  0  0  0
 17 19  2  0  0  0  0
 15 16  1  0  0  0  0
 15 17  1  0  0  0  0
 14 15  2  0  0  0  0
 14 23  1  0  0  0  0
 11 12  1  0  0  0  0
 11 13  1  0  0  0  0
 11 14  1  0  0  0  0
  9 10  1  0  0  0  0
  9 11  1  0  0  0  0
  9 25  1  0  0  0  0
  7  8  1  0  0  0  0
  7  9  1  0  0  0  0
 29 30  1  0  0  0  0
 29 31  1  0  0  0  0
 29 32  1  0  0  0  0
 27 28  1  0  0  0  0
 27 29  1  0  0  0  0
M  END
$$$$
default_name
  -OEChem-01062215323D

 32 32  0     1  0  0  0  0  0999 V2000
   -3.8405   -3.7518    1.6252 H   0  0  0  0  0  0  0  0  0  0  0  0
   -3.7965   -2.8768    0.9782 C   0  0  0  0  0  0  0  0  0  0  0  0
   -4.5465   -2.1527    1.2902 H   0  0  0  0  0  0  0  0  0  0  0  0
   -3.9745   -3.1748   -0.0538 H   0  0  0  0  0  0  0  0  0  0  0  0
   -2.4245   -2.2537    1.0882 C   0  0  0  0  0  0  0  0  0  0  0  0
   -1.5805   -2.7478    1.8242 O   0  0  0  0  0  0  0  0  0  0  0  0
   -2.2045   -1.1637    0.3562 N   0  0  0  0  0  0  0  0  0  0  0  0
   -2.9595   -0.7907   -0.2008 H   0  0  0  0  0  0  0  0  0  0  0  0
   -0.9485   -0.4087    0.3482 C   0  0  1  0  0  0  0  0  0  0  0  0
   -1.1591    0.6208    0.6419 H   0  0  0  0  0  0  0  0  0  0  0  0
    0.0174   -1.0181    1.3788 C   0  0  0  0  0  0  0  0  0  0  0  0
    0.1230   -2.0854    1.1789 H   0  0  0  0  0  0  0  0  0  0  0  0
    1.0009   -0.5627    1.2543 H   0  0  0  0  0  0  0  0  0  0  0  0
   -0.4329   -0.8517    2.8177 C   0  0  0  0  0  0  0  0  0  0  0  0
   -0.2108    0.3602    3.4989 C   0  0  0  0  0  0  0  0  0  0  0  0
    0.3036    1.1732    3.0064 H   0  0  0  0  0  0  0  0  0  0  0  0
   -0.6680    0.5214    4.8198 C   0  0  0  0  0  0  0  0  0  0  0  0
   -0.4942    1.4518    5.3419 H   0  0  0  0  0  0  0  0  0  0  0  0
   -1.3493   -0.5271    5.4609 C   0  0  0  0  0  0  0  0  0  0  0  0
   -1.6985   -0.4041    6.4766 H   0  0  0  0  0  0  0  0  0  0  0  0
   -1.5716   -1.7399    4.7836 C   0  0  0  0  0  0  0  0  0  0  0  0
   -2.0905   -2.5479    5.2781 H   0  0  0  0  0  0  0  0  0  0  0  0
   -1.1116   -1.9019    3.4647 C   0  0  0  0  0  0  0  0  0  0  0  0
   -1.2803   -2.8366    2.9458 H   0  0  0  0  0  0  0  0  0  0  0  0
   -0.3358   -0.3768   -1.0635 C   0  0  0  0  0  0  0  0  0  0  0  0
    0.1019    0.6782   -1.5250 O   0  0  0  0  0  0  0  0  0  0  0  0
   -0.3085   -1.5260   -1.7503 N   0  0  0  0  0  0  0  0  0  0  0  0
   -0.7367   -2.3349   -1.3267 H   0  0  0  0  0  0  0  0  0  0  0  0
    0.2288   -1.6635   -3.1019 C   0  0  0  0  0  0  0  0  0  0  0  0
    1.2397   -1.2525   -3.1415 H   0  0  0  0  0  0  0  0  0  0  0  0
    0.2564   -2.7144   -3.3914 H   0  0  0  0  0  0  0  0  0  0  0  0
   -0.3992   -1.1123   -3.8046 H   0  0  0  0  0  0  0  0  0  0  0  0
  5  6  2  0  0  0  0
  5  7  1  0  0  0  0
  2  3  1  0  0  0  0
  2  4  1  0  0  0  0
  2  5  1  0  0  0  0
  1  2  1  0  0  0  0
 25 26  2  0  0  0  0
 25 27  1  0  0  0  0
 23 24  1  0  0  0  0
 21 22  1  0  0  0  0
 21 23  2  0  0  0  0
 19 20  1  0  0  0  0
 19 21  1  0  0  0  0
 17 18  1  0  0  0  0
 17 19  2  0  0  0  0
 15 16  1  0  0  0  0
 15 17  1  0  0  0  0
 14 15  2  0  0  0  0
 14 23  1  0  0  0  0
 11 12  1  0  0  0  0
 11 13  1  0  0  0  0
 11 14  1  0  0  0  0
  9 10  1  0  0  0  0
  9 11  1  0  0  0  0
  9 25  1  0  0  0  0
  7  8  1  0  0  0  0
  7  9  1  0  0  0  0
 29 30  1  0  0  0  0
 29 31  1  0  0  0  0
 29 32  1  0  0  0  0
 27 28  1  0  0  0  0
 27 29  1  0  0  0  0
M  END
$$$$
default_name
  -OEChem-01062215323D

 32 32  0     1  0  0  0  0  0999 V2000
   -3.8405   -3.7518    1.6252 H   0  0  0  0  0  0  0  0  0  0  0  0
   -3.7965   -2.8768    0.9782 C   0  0  0  0  0  0  0  0  0  0  0  0
   -4.5465   -2.1527    1.2902 H   0  0  0  0  0  0  0  0  0  0  0  0
   -3.9745   -3.1748   -0.0538 H   0  0  0  0  0  0  0  0  0  0  0  0
   -2.4245   -2.2537    1.0882 C   0  0  0  0  0  0  0  0  0  0  0  0
   -1.5805   -2.7478    1.8242 O   0  0  0  0  0  0  0  0  0  0  0  0
   -2.2045   -1.1637    0.3562 N   0  0  0  0  0  0  0  0  0  0  0  0
   -2.9595   -0.7907   -0.2008 H   0  0  0  0  0  0  0  0  0  0  0  0
   -0.9485   -0.4087    0.3482 C   0  0  1  0  0  0  0  0  0  0  0  0
   -1.1591    0.6208    0.6419 H   0  0  0  0  0  0  0  0  0  0  0  0
    0.0174   -1.0181    1.3788 C   0  0  0  0  0  0  0  0  0  0  0  0
    0.1230   -2.0854    1.1789 H   0  0  0  0  0  0  0  0  0  0  0  0
    1.0009   -0.5627    1.2543 H   0  0  0  0  0  0  0  0  0  0  0  0
   -0.4329   -0.8517    2.8177 C   0  0  0  0  0  0  0  0  0  0  0  0
   -0.2108    0.3602    3.4989 C   0  0  0  0  0  0  0  0  0  0  0  0
    0.3036    1.1732    3.0064 H   0  0  0  0  0  0  0  0  0  0  0  0
   -0.6680    0.5214    4.8198 C   0  0  0  0  0  0  0  0  0  0  0  0
   -0.4942    1.4518    5.3419 H   0  0  0  0  0  0  0  0  0  0  0  0
   -1.3493   -0.5271    5.4609 C   0  0  0  0  0  0  0  0  0  0  0  0
   -1.6985   -0.4041    6.4766 H   0  0  0  0  0  0  0  0  0  0  0  0
   -1.5716   -1.7399    4.7836 C   0  0  0  0  0  0  0  0  0  0  0  0
   -2.0905   -2.5479    5.2781 H   0  0  0  0  0  0  0  0  0  0  0  0
   -1.1116   -1.9019    3.4647 C   0  0  0  0  0  0  0  0  0  0  0  0
   -1.2803   -2.8366    2.9458 H   0  0  0  0  0  0  0  0  0  0  0  0
   -0.3358   -0.3768   -1.0635 C   0  0  0  0  0  0  0  0  0  0  0  0
    0.3433    0.5864   -1.4223 O   0  0  0  0  0  0  0  0  0  0  0  0
   -0.5775   -1.4221   -1.8648 N   0  0  0  0  0  0  0  0  0  0  0  0
   -1.1887   -2.1459   -1.5186 H   0  0  0  0  0  0  0  0  0  0  0  0
   -0.0788   -1.5422   -3.2327 C   0  0  0  0  0  0  0  0  0  0  0  0
    1.0011   -1.3807   -3.2480 H   0  0  0  0  0  0  0  0  0  0  0  0
   -0.2996   -2.5338   -3.6287 H   0  0  0  0  0  0  0  0  0  0  0  0
   -0.5528   -0.7881   -3.8639 H   0  0  0  0  0  0  0  0  0  0  0  0
  5  6  2  0  0  0  0
  5  7  1  0  0  0  0
  2  3  1  0  0  0  0
  2  4  1  0  0  0  0
  2  5  1  0  0  0  0
  1  2  1  0  0  0  0
 25 26  2  0  0  0  0
 25 27  1  0  0  0  0
 23 24  1  0  0  0  0
 21 22  1  0  0  0  0
 21 23  2  0  0  0  0
 19 20  1  0  0  0  0
 19 21  1  0  0  0  0
 17 18  1  0  0  0  0
 17 19  2  0  0  0  0
 15 16  1  0  0  0  0
 15 17  1  0  0  0  0
 14 15  2  0  0  0  0
 14 23  1  0  0  0  0
 11 12  1  0  0  0  0
 11 13  1  0  0  0  0
 11 14  1  0  0  0  0
  9 10  1  0  0  0  0
  9 11  1  0  0  0  0
  9 25  1  0  0  0  0
  7  8  1  0  0  0  0
  7  9  1  0  0  0  0
 29 30  1  0  0  0  0
 29 31  1  0  0  0  0
 29 32  1  0  0  0  0
 27 28  1  0  0  0  0
 27 29  1  0  0  0  0
M  END
$$$$
default_name
  -OEChem-01062215323D

 32 32  0     1  0  0  0  0  0999 V2000
   -3.8405   -3.7518    1.6252 H   0  0  0  0  0  0  0  0  0  0  0  0
   -3.7965   -2.8768    0.9782 C   0  0  0  0  0  0  0  0  0  0  0  0
   -4.5465   -2.1527    1.2902 H   0  0  0  0  0  0  0  0  0  0  0  0
   -3.9745   -3.1748   -0.0538 H   0  0  0  0  0  0  0  0  0  0  0  0
   -2.4245   -2.2537    1.0882 C   0  0  0  0  0  0  0  0  0  0  0  0
   -1.5805   -2.7478    1.8242 O   0  0  0  0  0  0  0  0  0  0  0  0
   -2.2045   -1.1637    0.3562 N   0  0  0  0  0  0  0  0  0  0  0  0
   -2.9595   -0.7907   -0.2008 H   0  0  0  0  0  0  0  0  0  0  0  0
   -0.9485   -0.4087    0.3482 C   0  0  1  0  0  0  0  0  0  0  0  0
   -1.1591    0.6208    0.6419 H   0  0  0  0  0  0  0  0  0  0  0  0
    0.0174   -1.0181    1.3788 C   0  0  0  0  0  0  0  0  0  0  0  0
    0.1230   -2.0854    1.1789 H   0  0  0  0  0  0  0  0  0  0  0  0
    1.0009   -0.5627    1.2543 H   0  0  0  0  0  0  0  0  0  0  0  0
   -0.4329   -0.8517    2.8177 C   0  0  0  0  0  0  0  0  0  0  0  0
   -0.2108    0.3602    3.4989 C   0  0  0  0  0  0  0  0  0  0  0  0
    0.3036    1.1732    3.0064 H   0  0  0  0  0  0  0  0  0  0  0  0
   -0.6680    0.5214    4.8198 C   0  0  0  0  0  0  0  0  0  0  0  0
   -0.4942    1.4518    5.3419 H   0  0  0  0  0  0  0  0  0  0  0  0
   -1.3493   -0.5271    5.4609 C   0  0  0  0  0  0  0  0  0  0  0  0
   -1.6985   -0.4041    6.4766 H   0  0  0  0  0  0  0  0  0  0  0  0
   -1.5716   -1.7399    4.7836 C   0  0  0  0  0  0  0  0  0  0  0  0
   -2.0905   -2.5479    5.2781 H   0  0  0  0  0  0  0  0  0  0  0  0
   -1.1116   -1.9019    3.4647 C   0  0  0  0  0  0  0  0  0  0  0  0
   -1.2803   -2.8366    2.9458 H   0  0  0  0  0  0  0  0  0  0  0  0
   -0.3358   -0.3768   -1.0635 C   0  0  0  0  0  0  0  0  0  0  0  0
    0.5552    0.4298   -1.3339 O   0  0  0  0  0  0  0  0  0  0  0  0
   -0.8133   -1.2461   -1.9631 N   0  0  0  0  0  0  0  0  0  0  0  0
   -1.5815   -1.8363   -1.6820 H   0  0  0  0  0  0  0  0  0  0  0  0
   -0.3479   -1.3385   -3.3448 C   0  0  0  0  0  0  0  0  0  0  0  0
    0.7396   -1.4370   -3.3627 H   0  0  0  0  0  0  0  0  0  0  0  0
   -0.7952   -2.2029   -3.8363 H   0  0  0  0  0  0  0  0  0  0  0  0
   -0.6246   -0.4323   -3.8870 H   0  0  0  0  0  0  0  0  0  0  0  0
  5  6  2  0  0  0  0
  5  7  1  0  0  0  0
  2  3  1  0  0  0  0
  2  4  1  0  0  0  0
  2  5  1  0  0  0  0
  1  2  1  0  0  0  0
 25 26  2  0  0  0  0
 25 27  1  0  0  0  0
 23 24  1  0  0  0  0
 21 22  1  0  0  0  0
 21 23  2  0  0  0  0
 19 20  1  0  0  0  0
 19 21  1  0  0  0  0
 17 18  1  0  0  0  0
 17 19  2  0  0  0  0
 15 16  1  0  0  0  0
 15 17  1  0  0  0  0
 14 15  2  0  0  0  0
 14 23  1  0  0  0  0
 11 12  1  0  0  0  0
 11 13  1  0  0  0  0
 11 14  1  0  0  0  0
  9 10  1  0  0  0  0
  9 11  1  0  0  0  0
  9 25  1  0  0  0  0
  7  8  1  0  0  0  0
  7  9  1  0  0  0  0
 29 30  1  0  0  0  0
 29 31  1  0  0  0  0
 29 32  1  0  0  0  0
 27 28  1  0  0  0  0
 27 29  1  0  0  0  0
M  END
$$$$
default_name
  -OEChem-01062215323D

 32 32  0     1  0  0  0  0  0999 V2000
   -3.8405   -3.7518    1.6252 H   0  0  0  0  0  0  0  0  0  0  0  0
   -3.7965   -2.8768    0.9782 C   0  0  0  0  0  0  0  0  0  0  0  0
   -4.5465   -2.1527    1.2902 H   0  0  0  0  0  0  0  0  0  0  0  0
   -3.9745   -3.1748   -0.0538 H   0  0  0  0  0  0  0  0  0  0  0  0
   -2.4245   -2.2537    1.0882 C   0  0  0  0  0  0  0  0  0  0  0  0
   -1.5805   -2.7478    1.8242 O   0  0  0  0  0  0  0  0  0  0  0  0
   -2.2045   -1.1637    0.3562 N   0  0  0  0  0  0  0  0  0  0  0  0
   -2.9595   -0.7907   -0.2008 H   0  0  0  0  0  0  0  0  0  0  0  0
   -0.9485   -0.4087    0.3482 C   0  0  1  0  0  0  0  0  0  0  0  0
   -1.1591    0.6208    0.6419 H   0  0  0  0  0  0  0  0  0  0  0  0
    0.0174   -1.0181    1.3788 C   0  0  0  0  0  0  0  0  0  0  0  0
    0.1230   -2.0854    1.1789 H   0  0  0  0  0  0  0  0  0  0  0  0
    1.0009   -0.5627    1.2543 H   0  0  0  0  0  0  0  0  0  0  0  0
   -0.4329   -0.8517    2.8177 C   0  0  0  0  0  0  0  0  0  0  0  0
   -0.2108    0.3602    3.4989 C   0  0  0  0  0  0  0  0  0  0  0  0
    0.3036    1.1732    3.0064 H   0  0  0  0  0  0  0  0  0  0  0  0
   -0.6680    0.5214    4.8198 C   0  0  0  0  0  0  0  0  0  0  0  0
   -0.4942    1.4518    5.3419 H   0  0  0  0  0  0  0  0  0  0  0  0
   -1.3493   -0.5271    5.4609 C   0  0  0  0  0  0  0  0  0  0  0  0
   -1.6985   -0.4041    6.4766 H   0  0  0  0  0  0  0  0  0  0  0  0
   -1.5716   -1.7399    4.7836 C   0  0  0  0  0  0  0  0  0  0  0  0
   -2.0905   -2.5479    5.2781 H   0  0  0  0  0  0  0  0  0  0  0  0
   -1.1116   -1.9019    3.4647 C   0  0  0  0  0  0  0  0  0  0  0  0
   -1.2803   -2.8366    2.9458 H   0  0  0  0  0  0  0  0  0  0  0  0
   -0.3358   -0.3768   -1.0635 C   0  0  0  0  0  0  0  0  0  0  0  0
    0.7233    0.2191   -1.2657 O   0  0  0  0  0  0  0  0  0  0  0  0
   -0.9999   -1.0100   -2.0387 N   0  0  0  0  0  0  0  0  0  0  0  0
   -1.8882   -1.4271   -1.8059 H   0  0  0  0  0  0  0  0  0  0  0  0
   -0.5600   -1.0664   -3.4307 C   0  0  0  0  0  0  0  0  0  0  0  0
    0.4730   -1.4175   -3.4780 H   0  0  0  0  0  0  0  0  0  0  0  0
   -1.1964   -1.7443   -4.0000 H   0  0  0  0  0  0  0  0  0  0  0  0
   -0.6096   -0.0692   -3.8722 H   0  0  0  0  0  0  0  0  0  0  0  0
  5  6  2  0  0  0  0
  5  7  1  0  0  0  0
  2  3  1  0  0  0  0
  2  4  1  0  0  0  0
  2  5  1  0  0  0  0
  1  2  1  0  0  0  0
 25 26  2  0  0  0  0
 25 27  1  0  0  0  0
 23 24  1  0  0  0  0
 21 22  1  0  0  0  0
 21 23  2  0  0  0  0
 19 20  1  0  0  0  0
 19 21  1  0  0  0  0
 17 18  1  0  0  0  0
 17 19  2  0  0  0  0
 15 16  1  0  0  0  0
 15 17  1  0  0  0  0
 14 15  2  0  0  0  0
 14 23  1  0  0  0  0
 11 12  1  0  0  0  0
 11 13  1  0  0  0  0
 11 14  1  0  0  0  0
  9 10  1  0  0  0  0
  9 11  1  0  0  0  0
  9 25  1  0  0  0  0
  7  8  1  0  0  0  0
  7  9  1  0  0  0  0
 29 30  1  0  0  0  0
 29 31  1  0  0  0  0
 29 32  1  0  0  0  0
 27 28  1  0  0  0  0
 27 29  1  0  0  0  0
M  END
$$$$
default_name
  -OEChem-01062215323D

 32 32  0     1  0  0  0  0  0999 V2000
   -3.8405   -3.7518    1.6252 H   0  0  0  0  0  0  0  0  0  0  0  0
   -3.7965   -2.8768    0.9782 C   0  0  0  0  0  0  0  0  0  0  0  0
   -4.5465   -2.1527    1.2902 H   0  0  0  0  0  0  0  0  0  0  0  0
   -3.9745   -3.1748   -0.0538 H   0  0  0  0  0  0  0  0  0  0  0  0
   -2.4245   -2.2537    1.0882 C   0  0  0  0  0  0  0  0  0  0  0  0
   -1.5805   -2.7478    1.8242 O   0  0  0  0  0  0  0  0  0  0  0  0
   -2.2045   -1.1637    0.3562 N   0  0  0  0  0  0  0  0  0  0  0  0
   -2.9595   -0.7907   -0.2008 H   0  0  0  0  0  0  0  0  0  0  0  0
   -0.9485   -0.4087    0.3482 C   0  0  1  0  0  0  0  0  0  0  0  0
   -1.1591    0.6208    0.6419 H   0  0  0  0  0  0  0  0  0  0  0  0
    0.0174   -1.0181    1.3788 C   0  0  0  0  0  0  0  0  0  0  0  0
    0.1230   -2.0854    1.1789 H   0  0  0  0  0  0  0  0  0  0  0  0
    1.0009   -0.5627    1.2543 H   0  0  0  0  0  0  0  0  0  0  0  0
   -0.4329   -0.8517    2.8177 C   0  0  0  0  0  0  0  0  0  0  0  0
   -0.2108    0.3602    3.4989 C   0  0  0  0  0  0  0  0  0  0  0  0
    0.3036    1.1732    3.0064 H   0  0  0  0  0  0  0  0  0  0  0  0
   -0.6680    0.5214    4.8198 C   0  0  0  0  0  0  0  0  0  0  0  0
   -0.4942    1.4518    5.3419 H   0  0  0  0  0  0  0  0  0  0  0  0
   -1.3493   -0.5271    5.4609 C   0  0  0  0  0  0  0  0  0  0  0  0
   -1.6985   -0.4041    6.4766 H   0  0  0  0  0  0  0  0  0  0  0  0
   -1.5716   -1.7399    4.7836 C   0  0  0  0  0  0  0  0  0  0  0  0
   -2.0905   -2.5479    5.2781 H   0  0  0  0  0  0  0  0  0  0  0  0
   -1.1116   -1.9019    3.4647 C   0  0  0  0  0  0  0  0  0  0  0  0
   -1.2803   -2.8366    2.9458 H   0  0  0  0  0  0  0  0  0  0  0  0
   -0.3358   -0.3768   -1.0635 C   0  0  0  0  0  0  0  0  0  0  0  0
    0.8359   -0.0313   -1.2225 O   0  0  0  0  0  0  0  0  0  0  0  0
   -1.1244   -0.7299   -2.0865 N   0  0  0  0  0  0  0  0  0  0  0  0
   -2.0881   -0.9463   -1.8818 H   0  0  0  0  0  0  0  0  0  0  0  0
   -0.7007   -0.7443   -3.4845 C   0  0  0  0  0  0  0  0  0  0  0  0
    0.2196   -1.3234   -3.5859 H   0  0  0  0  0  0  0  0  0  0  0  0
   -1.4760   -1.1893   -4.1088 H   0  0  0  0  0  0  0  0  0  0  0  0
   -0.5088    0.2765   -3.8207 H   0  0  0  0  0  0  0  0  0  0  0  0
  5  6  2  0  0  0  0
  5  7  1  0  0  0  0
  2  3  1  0  0  0  0
  2  4  1  0  0  0  0
  2  5  1  0  0  0  0
  1  2  1  0  0  0  0
 25 26  2  0  0  0  0
 25 27  1  0  0  0  0
 23 24  1  0  0  0  0
 21 22  1  0  0  0  0
 21 23  2  0  0  0  0
 19 20  1  0  0  0  0
 19 21  1  0  0  0  0
 17 18  1  0  0  0  0
 17 19  2  0  0  0  0
 15 16  1  0  0  0  0
 15 17  1  0  0  0  0
 14 15  2  0  0  0  0
 14 23  1  0  0  0  0
 11 12  1  0  0  0  0
 11 13  1  0  0  0  0
 11 14  1  0  0  0  0
  9 10  1  0  0  0  0
  9 11  1  0  0  0  0
  9 25  1  0  0  0  0
  7  8  1  0  0  0  0
  7  9  1  0  0  0  0
 29 30  1  0  0  0  0
 29 31  1  0  0  0  0
 29 32  1  0  0  0  0
 27 28  1  0  0  0  0
 27 29  1  0  0  0  0
M  END
$$$$
default_name
  -OEChem-01062215323D

 32 32  0     1  0  0  0  0  0999 V2000
   -3.8405   -3.7518    1.6252 H   0  0  0  0  0  0  0  0  0  0  0  0
   -3.7965   -2.8768    0.9782 C   0  0  0  0  0  0  0  0  0  0  0  0
   -4.5465   -2.1527    1.2902 H   0  0  0  0  0  0  0  0  0  0  0  0
   -3.9745   -3.1748   -0.0538 H   0  0  0  0  0  0  0  0  0  0  0  0
   -2.4245   -2.2537    1.0882 C   0  0  0  0  0  0  0  0  0  0  0  0
   -1.5805   -2.7478    1.8242 O   0  0  0  0  0  0  0  0  0  0  0  0
   -2.2045   -1.1637    0.3562 N   0  0  0  0  0  0  0  0  0  0  0  0
   -2.9595   -0.7907   -0.2008 H   0  0  0  0  0  0  0  0  0  0  0  0
   -0.9485   -0.4087    0.3482 C   0  0  1  0  0  0  0  0  0  0  0  0
   -1.1591    0.6208    0.6419 H   0  0  0  0  0  0  0  0  0  0  0  0
    0.0174   -1.0181    1.3788 C   0  0  0  0  0  0  0  0  0  0  0  0
    0.1230   -2.0854    1.1789 H   0  0  0  0  0  0  0  0  0  0  0  0
    1.0009   -0.5627    1.2543 H   0  0  0  0  0  0  0  0  0  0  0  0
   -0.4329   -0.8517    2.8177 C   0  0  0  0  0  0  0  0  0  0  0  0
   -0.2108    0.3602    3.4989 C   0  0  0  0  0  0  0  0  0  0  0  0
    0.3036    1.1732    3.0064 H   0  0  0  0  0  0  0  0  0  0  0  0
   -0.6680    0.5214    4.8198 C   0  0  0  0  0  0  0  0  0  0  0  0
   -0.4942    1.4518    5.3419 H   0  0  0  0  0  0  0  0  0  0  0  0
   -1.3493   -0.5271    5.4609 C   0  0  0  0  0  0  0  0  0  0  0  0
   -1.6985   -0.4041    6.4766 H   0  0  0  0  0  0  0  0  0  0  0  0
   -1.5716   -1.7399    4.7836 C   0  0  0  0  0  0  0  0  0  0  0  0
   -2.0905   -2.5479    5.2781 H   0  0  0  0  0  0  0  0  0  0  0  0
   -1.1116   -1.9019    3.4647 C   0  0  0  0  0  0  0  0  0  0  0  0
   -1.2803   -2.8366    2.9458 H   0  0  0  0  0  0  0  0  0  0  0  0
   -0.3358   -0.3768   -1.0635 C   0  0  0  0  0  0  0  0  0  0  0  0
    0.8855   -0.3044   -1.2072 O   0  0  0  0  0  0  0  0  0  0  0  0
   -1.1785   -0.4248   -2.1030 N   0  0  0  0  0  0  0  0  0  0  0  0
   -2.1674   -0.4266   -1.9044 H   0  0  0  0  0  0  0  0  0  0  0  0
   -0.7605   -0.3943   -3.5025 C   0  0  0  0  0  0  0  0  0  0  0  0
   -0.0035   -1.1613   -3.6790 H   0  0  0  0  0  0  0  0  0  0  0  0
   -1.6149   -0.5755   -4.1552 H   0  0  0  0  0  0  0  0  0  0  0  0
   -0.3291    0.5811   -3.7358 H   0  0  0  0  0  0  0  0  0  0  0  0
  5  6  2  0  0  0  0
  5  7  1  0  0  0  0
  2  3  1  0  0  0  0
  2  4  1  0  0  0  0
  2  5  1  0  0  0  0
  1  2  1  0  0  0  0
 25 26  2  0  0  0  0
 25 27  1  0  0  0  0
 23 24  1  0  0  0  0
 21 22  1  0  0  0  0
 21 23  2  0  0  0  0
 19 20  1  0  0  0  0
 19 21  1  0  0  0  0
 17 18  1  0  0  0  0
 17 19  2  0  0  0  0
 15 16  1  0  0  0  0
 15 17  1  0  0  0  0
 14 15  2  0  0  0  0
 14 23  1  0  0  0  0
 11 12  1  0  0  0  0
 11 13  1  0  0  0  0
 11 14  1  0  0  0  0
  9 10  1  0  0  0  0
  9 11  1  0  0  0  0
  9 25  1  0  0  0  0
  7  8  1  0  0  0  0
  7  9  1  0  0  0  0
 29 30  1  0  0  0  0
 29 31  1  0  0  0  0
 29 32  1  0  0  0  0
 27 28  1  0  0  0  0
 27 29  1  0  0  0  0
M  END
$$$$
default_name
  -OEChem-01062215323D

 32 32  0     1  0  0  0  0  0999 V2000
   -3.8405   -3.7518    1.6252 H   0  0  0  0  0  0  0  0  0  0  0  0
   -3.7965   -2.8768    0.9782 C   0  0  0  0  0  0  0  0  0  0  0  0
   -4.5465   -2.1527    1.2902 H   0  0  0  0  0  0  0  0  0  0  0  0
   -3.9745   -3.1748   -0.0538 H   0  0  0  0  0  0  0  0  0  0  0  0
   -2.4245   -2.2537    1.0882 C   0  0  0  0  0  0  0  0  0  0  0  0
   -1.5805   -2.7478    1.8242 O   0  0  0  0  0  0  0  0  0  0  0  0
   -2.2045   -1.1637    0.3562 N   0  0  0  0  0  0  0  0  0  0  0  0
   -2.9595   -0.7907   -0.2008 H   0  0  0  0  0  0  0  0  0  0  0  0
   -0.9485   -0.4087    0.3482 C   0  0  1  0  0  0  0  0  0  0  0  0
   -1.1591    0.6208    0.6419 H   0  0  0  0  0  0  0  0  0  0  0  0
    0.0174   -1.0181    1.3788 C   0  0  0  0  0  0  0  0  0  0  0  0
    0.1230   -2.0854    1.1789 H   0  0  0  0  0  0  0  0  0  0  0  0
    1.0009   -0.5627    1.2543 H   0  0  0  0  0  0  0  0  0  0  0  0
   -0.4329   -0.8517    2.8177 C   0  0  0  0  0  0  0  0  0  0  0  0
   -0.2108    0.3602    3.4989 C   0  0  0  0  0  0  0  0  0  0  0  0
    0.3036    1.1732    3.0064 H   0  0  0  0  0  0  0  0  0  0  0  0
   -0.6680    0.5214    4.8198 C   0  0  0  0  0  0  0  0  0  0  0  0
   -0.4942    1.4518    5.3419 H   0  0  0  0  0  0  0  0  0  0  0  0
   -1.3493   -0.5271    5.4609 C   0  0  0  0  0  0  0  0  0  0  0  0
   -1.6985   -0.4041    6.4766 H   0  0  0  0  0  0  0  0  0  0  0  0
   -1.5716   -1.7399    4.7836 C   0  0  0  0  0  0  0  0  0  0  0  0
   -2.0905   -2.5479    5.2781 H   0  0  0  0  0  0  0  0  0  0  0  0
   -1.1116   -1.9019    3.4647 C   0  0  0  0  0  0  0  0  0  0  0  0
   -1.2803   -2.8366    2.9458 H   0  0  0  0  0  0  0  0  0  0  0  0
   -0.3358   -0.3768   -1.0635 C   0  0  0  0  0  0  0  0  0  0  0  0
    0.8687   -0.5815   -1.2207 O   0  0  0  0  0  0  0  0  0  0  0  0
   -1.1584   -0.1156   -2.0873 N   0  0  0  0  0  0  0  0  0  0  0  0
   -2.1208    0.0965   -1.8723 H   0  0  0  0  0  0  0  0  0  0  0  0
   -0.7352   -0.0401   -3.4835 C   0  0  0  0  0  0  0  0  0  0  0  0
   -0.1810   -0.9422   -3.7511 H   0  0  0  0  0  0  0  0  0  0  0  0
   -1.6036    0.0551   -4.1360 H   0  0  0  0  0  0  0  0  0  0  0  0
   -0.0828    0.8240   -3.6234 H   0  0  0  0  0  0  0  0  0  0  0  0
  5  6  2  0  0  0  0
  5  7  1  0  0  0  0
  2  3  1  0  0  0  0
  2  4  1  0  0  0  0
  2  5  1  0  0  0  0
  1  2  1  0  0  0  0
 25 26  2  0  0  0  0
 25 27  1  0  0  0  0
 23 24  1  0  0  0  0
 21 22  1  0  0  0  0
 21 23  2  0  0  0  0
 19 20  1  0  0  0  0
 19 21  1  0  0  0  0
 17 18  1  0  0  0  0
 17 19  2  0  0  0  0
 15 16  1  0  0  0  0
 15 17  1  0  0  0  0
 14 15  2  0  0  0  0
 14 23  1  0  0  0  0
 11 12  1  0  0  0  0
 11 13  1  0  0  0  0
 11 14  1  0  0  0  0
  9 10  1  0  0  0  0
  9 11  1  0  0  0  0
  9 25  1  0  0  0  0
  7  8  1  0  0  0  0
  7  9  1  0  0  0  0
 29 30  1  0  0  0  0
 29 31  1  0  0  0  0
 29 32  1  0  0  0  0
 27 28  1  0  0  0  0
 27 29  1  0  0  0  0
M  END
$$$$
default_name
  -OEChem-01062215323D

 32 32  0     1  0  0  0  0  0999 V2000
   -3.8405   -3.7518    1.6252 H   0  0  0  0  0  0  0  0  0  0  0  0
   -3.7965   -2.8768    0.9782 C   0  0  0  0  0  0  0  0  0  0  0  0
   -4.5465   -2.1527    1.2902 H   0  0  0  0  0  0  0  0  0  0  0  0
   -3.9745   -3.1748   -0.0538 H   0  0  0  0  0  0  0  0  0  0  0  0
   -2.4245   -2.2537    1.0882 C   0  0  0  0  0  0  0  0  0  0  0  0
   -1.5805   -2.7478    1.8242 O   0  0  0  0  0  0  0  0  0  0  0  0
   -2.2045   -1.1637    0.3562 N   0  0  0  0  0  0  0  0  0  0  0  0
   -2.9595   -0.7907   -0.2008 H   0  0  0  0  0  0  0  0  0  0  0  0
   -0.9485   -0.4087    0.3482 C   0  0  1  0  0  0  0  0  0  0  0  0
   -1.1591    0.6208    0.6419 H   0  0  0  0  0  0  0  0  0  0  0  0
    0.0174   -1.0181    1.3788 C   0  0  0  0  0  0  0  0  0  0  0  0
    0.1230   -2.0854    1.1789 H   0  0  0  0  0  0  0  0  0  0  0  0
    1.0009   -0.5627    1.2543 H   0  0  0  0  0  0  0  0  0  0  0  0
   -0.4329   -0.8517    2.8177 C   0  0  0  0  0  0  0  0  0  0  0  0
   -0.2108    0.3602    3.4989 C   0  0  0  0  0  0  0  0  0  0  0  0
    0.3036    1.1732    3.0064 H   0  0  0  0  0  0  0  0  0  0  0  0
   -0.6680    0.5214    4.8198 C   0  0  0  0  0  0  0  0  0  0  0  0
   -0.4942    1.4518    5.3419 H   0  0  0  0  0  0  0  0  0  0  0  0
   -1.3493   -0.5271    5.4609 C   0  0  0  0  0  0  0  0  0  0  0  0
   -1.6985   -0.4041    6.4766 H   0  0  0  0  0  0  0  0  0  0  0  0
   -1.5716   -1.7399    4.7836 C   0  0  0  0  0  0  0  0  0  0  0  0
   -2.0905   -2.5479    5.2781 H   0  0  0  0  0  0  0  0  0  0  0  0
   -1.1116   -1.9019    3.4647 C   0  0  0  0  0  0  0  0  0  0  0  0
   -1.2803   -2.8366    2.9458 H   0  0  0  0  0  0  0  0  0  0  0  0
   -0.3358   -0.3768   -1.0635 C   0  0  0  0  0  0  0  0  0  0  0  0
    0.7866   -0.8438   -1.2623 O   0  0  0  0  0  0  0  0  0  0  0  0
   -1.0655    0.1767   -2.0403 N   0  0  0  0  0  0  0  0  0  0  0  0
   -1.9514    0.5875   -1.7877 H   0  0  0  0  0  0  0  0  0  0  0  0
   -0.6267    0.2940   -3.4288 C   0  0  0  0  0  0  0  0  0  0  0  0
   -0.3009   -0.6810   -3.7972 H   0  0  0  0  0  0  0  0  0  0  0  0
   -1.4430    0.6595   -4.0526 H   0  0  0  0  0  0  0  0  0  0  0  0
    0.2134    0.9885   -3.4911 H   0  0  0  0  0  0  0  0  0  0  0  0
  5  6  2  0  0  0  0
  5  7  1  0  0  0  0
  2  3  1  0  0  0  0
  2  4  1  0  0  0  0
  2  5  1  0  0  0  0
  1  2  1  0  0  0  0
 25 26  2  0  0  0  0
 25 27  1  0  0  0  0
 23 24  1  0  0  0  0
 21 22  1  0  0  0  0
 21 23  2  0  0  0  0
 19 20  1  0  0  0  0
 19 21  1  0  0  0  0
 17 18  1  0  0  0  0
 17 19  2  0  0  0  0
 15 16  1  0  0  0  0
 15 17  1  0  0  0  0
 14 15  2  0  0  0  0
 14 23  1  0  0  0  0
 11 12  1  0  0  0  0
 11 13  1  0  0  0  0
 11 14  1  0  0  0  0
  9 10  1  0  0  0  0
  9 11  1  0  0  0  0
  9 25  1  0  0  0  0
  7  8  1  0  0  0  0
  7  9  1  0  0  0  0
 29 30  1  0  0  0  0
 29 31  1  0  0  0  0
 29 32  1  0  0  0  0
 27 28  1  0  0  0  0
 27 29  1  0  0  0  0
M  END
$$$$
default_name
  -OEChem-01062215323D

 32 32  0     1  0  0  0  0  0999 V2000
   -3.8405   -3.7518    1.6252 H   0  0  0  0  0  0  0  0  0  0  0  0
   -3.7965   -2.8768    0.9782 C   0  0  0  0  0  0  0  0  0  0  0  0
   -4.5465   -2.1527    1.2902 H   0  0  0  0  0  0  0  0  0  0  0  0
   -3.9745   -3.1748   -0.0538 H   0  0  0  0  0  0  0  0  0  0  0  0
   -2.4245   -2.2537    1.0882 C   0  0  0  0  0  0  0  0  0  0  0  0
   -1.5805   -2.7478    1.8242 O   0  0  0  0  0  0  0  0  0  0  0  0
   -2.2045   -1.1637    0.3562 N   0  0  0  0  0  0  0  0  0  0  0  0
   -2.9595   -0.7907   -0.2008 H   0  0  0  0  0  0  0  0  0  0  0  0
   -0.9485   -0.4087    0.3482 C   0  0  1  0  0  0  0  0  0  0  0  0
   -1.1591    0.6208    0.6419 H   0  0  0  0  0  0  0  0  0  0  0  0
    0.0174   -1.0181    1.3788 C   0  0  0  0  0  0  0  0  0  0  0  0
    0.1230   -2.0854    1.1789 H   0  0  0  0  0  0  0  0  0  0  0  0
    1.0009   -0.5627    1.2543 H   0  0  0  0  0  0  0  0  0  0  0  0
   -0.4329   -0.8517    2.8177 C   0  0  0  0  0  0  0  0  0  0  0  0
   -0.2108    0.3602    3.4989 C   0  0  0  0  0  0  0  0  0  0  0  0
    0.3036    1.1732    3.0064 H   0  0  0  0  0  0  0  0  0  0  0  0
   -0.6680    0.5214    4.8198 C   0  0  0  0  0  0  0  0  0  0  0  0
   -0.4942    1.4518    5.3419 H   0  0  0  0  0  0  0  0  0  0  0  0
   -1.3493   -0.5271    5.4609 C   0  0  0  0  0  0  0  0  0  0  0  0
   -1.6985   -0.4041    6.4766 H   0  0  0  0  0  0  0  0  0  0  0  0
   -1.5716   -1.7399    4.7836 C   0  0  0  0  0  0  0  0  0  0  0  0
   -2.0905   -2.5479    5.2781 H   0  0  0  0  0  0  0  0  0  0  0  0
   -1.1116   -1.9019    3.4647 C   0  0  0  0  0  0  0  0  0  0  0  0
   -1.2803   -2.8366    2.9458 H   0  0  0  0  0  0  0  0  0  0  0  0
   -0.3358   -0.3768   -1.0635 C   0  0  0  0  0  0  0  0  0  0  0  0
    0.6449   -1.0734   -1.3290 O   0  0  0  0  0  0  0  0  0  0  0  0
   -0.9062    0.4322   -1.9654 N   0  0  0  0  0  0  0  0  0  0  0  0
   -1.6708    1.0128   -1.6563 H   0  0  0  0  0  0  0  0  0  0  0  0
   -0.4422    0.5854   -3.3422 C   0  0  0  0  0  0  0  0  0  0  0  0
   -0.3549   -0.3955   -3.8142 H   0  0  0  0  0  0  0  0  0  0  0  0
   -1.1438    1.1966   -3.9106 H   0  0  0  0  0  0  0  0  0  0  0  0
    0.5392    1.0635   -3.3479 H   0  0  0  0  0  0  0  0  0  0  0  0
  5  6  2  0  0  0  0
  5  7  1  0  0  0  0
  2  3  1  0  0  0  0
  2  4  1  0  0  0  0
  2  5  1  0  0  0  0
  1  2  1  0  0  0  0
 25 26  2  0  0  0  0
 25 27  1  0  0  0  0
 23 24  1  0  0  0  0
 21 22  1  0  0  0  0
 21 23  2  0  0  0  0
 19 20  1  0  0  0  0
 19 21  1  0  0  0  0
 17 18  1  0  0  0  0
 17 19  2  0  0  0  0
 15 16  1  0  0  0  0
 15 17  1  0  0  0  0
 14 15  2  0  0  0  0
 14 23  1  0  0  0  0
 11 12  1  0  0  0  0
 11 13  1  0  0  0  0
 11 14  1  0  0  0  0
  9 10  1  0  0  0  0
  9 11  1  0  0  0  0
  9 25  1  0  0  0  0
  7  8  1  0  0  0  0
  7  9  1  0  0  0  0
 29 30  1  0  0  0  0
 29 31  1  0  0  0  0
 29 32  1  0  0  0  0
 27 28  1  0  0  0  0
 27 29  1  0  0  0  0
M  END
$$$$
default_name
  -OEChem-01062215323D

 32 32  0     1  0  0  0  0  0999 V2000
   -3.8405   -3.7518    1.6252 H   0  0  0  0  0  0  0  0  0  0  0  0
   -3.7965   -2.8768    0.9782 C   0  0  0  0  0  0  0  0  0  0  0  0
   -4.5465   -2.1527    1.2902 H   0  0  0  0  0  0  0  0  0  0  0  0
   -3.9745   -3.1748   -0.0538 H   0  0  0  0  0  0  0  0  0  0  0  0
   -2.4245   -2.2537    1.0882 C   0  0  0  0  0  0  0  0  0  0  0  0
   -1.5805   -2.7478    1.8242 O   0  0  0  0  0  0  0  0  0  0  0  0
   -2.2045   -1.1637    0.3562 N   0  0  0  0  0  0  0  0  0  0  0  0
   -2.9595   -0.7907   -0.2008 H   0  0  0  0  0  0  0  0  0  0  0  0
   -0.9485   -0.4087    0.3482 C   0  0  1  0  0  0  0  0  0  0  0  0
   -1.1591    0.6208    0.6419 H   0  0  0  0  0  0  0  0  0  0  0  0
    0.0174   -1.0181    1.3788 C   0  0  0  0  0  0  0  0  0  0  0  0
    0.1230   -2.0854    1.1789 H   0  0  0  0  0  0  0  0  0  0  0  0
    1.0009   -0.5627    1.2543 H   0  0  0  0  0  0  0  0  0  0  0  0
   -0.4329   -0.8517    2.8177 C   0  0  0  0  0  0  0  0  0  0  0  0
   -0.2108    0.3602    3.4989 C   0  0  0  0  0  0  0  0  0  0  0  0
    0.3036    1.1732    3.0064 H   0  0  0  0  0  0  0  0  0  0  0  0
   -0.6680    0.5214    4.8198 C   0  0  0  0  0  0  0  0  0  0  0  0
   -0.4942    1.4518    5.3419 H   0  0  0  0  0  0  0  0  0  0  0  0
   -1.3493   -0.5271    5.4609 C   0  0  0  0  0  0  0  0  0  0  0  0
   -1.6985   -0.4041    6.4766 H   0  0  0  0  0  0  0  0  0  0  0  0
   -1.5716   -1.7399    4.7836 C   0  0  0  0  0  0  0  0  0  0  0  0
   -2.0905   -2.5479    5.2781 H   0  0  0  0  0  0  0  0  0  0  0  0
   -1.1116   -1.9019    3.4647 C   0  0  0  0  0  0  0  0  0  0  0  0
   -1.2803   -2.8366    2.9458 H   0  0  0  0  0  0  0  0  0  0  0  0
   -0.3358   -0.3768   -1.0635 C   0  0  0  0  0  0  0  0  0  0  0  0
    0.4531   -1.2546   -1.4164 O   0  0  0  0  0  0  0  0  0  0  0  0
   -0.6912    0.6333   -1.8675 N   0  0  0  0  0  0  0  0  0  0  0  0
   -1.2981    1.3434   -1.4870 H   0  0  0  0  0  0  0  0  0  0  0  0
   -0.1944    0.8141   -3.2294 C   0  0  0  0  0  0  0  0  0  0  0  0
   -0.3394   -0.1051   -3.8009 H   0  0  0  0  0  0  0  0  0  0  0  0
   -0.7266    1.6298   -3.7197 H   0  0  0  0  0  0  0  0  0  0  0  0
    0.8725    1.0438   -3.2037 H   0  0  0  0  0  0  0  0  0  0  0  0
  5  6  2  0  0  0  0
  5  7  1  0  0  0  0
  2  3  1  0  0  0  0
  2  4  1  0  0  0  0
  2  5  1  0  0  0  0
  1  2  1  0  0  0  0
 25 26  2  0  0  0  0
 25 27  1  0  0  0  0
 23 24  1  0  0  0  0
 21 22  1  0  0  0  0
 21 23  2  0  0  0  0
 19 20  1  0  0  0  0
 19 21  1  0  0  0  0
 17 18  1  0  0  0  0
 17 19  2  0  0  0  0
 15 16  1  0  0  0  0
 15 17  1  0  0  0  0
 14 15  2  0  0  0  0
 14 23  1  0  0  0  0
 11 12  1  0  0  0  0
 11 13  1  0  0  0  0
 11 14  1  0  0  0  0
  9 10  1  0  0  0  0
  9 11  1  0  0  0  0
  9 25  1  0  0  0  0
  7  8  1  0  0  0  0
  7  9  1  0  0  0  0
 29 30  1  0  0  0  0
 29 31  1  0  0  0  0
 29 32  1  0  0  0  0
 27 28  1  0  0  0  0
 27 29  1  0  0  0  0
M  END
$$$$
default_name
  -OEChem-01062215323D

 32 32  0     1  0  0  0  0  0999 V2000
   -3.8405   -3.7518    1.6252 H   0  0  0  0  0  0  0  0  0  0  0  0
   -3.7965   -2.8768    0.9782 C   0  0  0  0  0  0  0  0  0  0  0  0
   -4.5465   -2.1527    1.2902 H   0  0  0  0  0  0  0  0  0  0  0  0
   -3.9745   -3.1748   -0.0538 H   0  0  0  0  0  0  0  0  0  0  0  0
   -2.4245   -2.2537    1.0882 C   0  0  0  0  0  0  0  0  0  0  0  0
   -1.5805   -2.7478    1.8242 O   0  0  0  0  0  0  0  0  0  0  0  0
   -2.2045   -1.1637    0.3562 N   0  0  0  0  0  0  0  0  0  0  0  0
   -2.9595   -0.7907   -0.2008 H   0  0  0  0  0  0  0  0  0  0  0  0
   -0.9485   -0.4087    0.3482 C   0  0  1  0  0  0  0  0  0  0  0  0
   -1.1591    0.6208    0.6419 H   0  0  0  0  0  0  0  0  0  0  0  0
    0.0174   -1.0181    1.3788 C   0  0  0  0  0  0  0  0  0  0  0  0
    0.1230   -2.0854    1.1789 H   0  0  0  0  0  0  0  0  0  0  0  0
    1.0009   -0.5627    1.2543 H   0  0  0  0  0  0  0  0  0  0  0  0
   -0.4329   -0.8517    2.8177 C   0  0  0  0  0  0  0  0  0  0  0  0
   -0.2108    0.3602    3.4989 C   0  0  0  0  0  0  0  0  0  0  0  0
    0.3036    1.1732    3.0064 H   0  0  0  0  0  0  0  0  0  0  0  0
   -0.6680    0.5214    4.8198 C   0  0  0  0  0  0  0  0  0  0  0  0
   -0.4942    1.4518    5.3419 H   0  0  0  0  0  0  0  0  0  0  0  0
   -1.3493   -0.5271    5.4609 C   0  0  0  0  0  0  0  0  0  0  0  0
   -1.6985   -0.4041    6.4766 H   0  0  0  0  0  0  0  0  0  0  0  0
   -1.5716   -1.7399    4.7836 C   0  0  0  0  0  0  0  0  0  0  0  0
   -2.0905   -2.5479    5.2781 H   0  0  0  0  0  0  0  0  0  0  0  0
   -1.1116   -1.9019    3.4647 C   0  0  0  0  0  0  0  0  0  0  0  0
   -1.2803   -2.8366    2.9458 H   0  0  0  0  0  0  0  0  0  0  0  0
   -0.3358   -0.3768   -1.0635 C   0  0  0  0  0  0  0  0  0  0  0  0
    0.2243   -1.3752   -1.5184 O   0  0  0  0  0  0  0  0  0  0  0  0
   -0.4353    0.7666   -1.7534 N   0  0  0  0  0  0  0  0  0  0  0  0
   -0.8587    1.5569   -1.2915 H   0  0  0  0  0  0  0  0  0  0  0  0
    0.0998    0.9646   -3.0983 C   0  0  0  0  0  0  0  0  0  0  0  0
   -0.2554    0.1703   -3.7582 H   0  0  0  0  0  0  0  0  0  0  0  0
   -0.2198    1.9295   -3.4929 H   0  0  0  0  0  0  0  0  0  0  0  0
    1.1906    0.9308   -3.0682 H   0  0  0  0  0  0  0  0  0  0  0  0
  5  6  2  0  0  0  0
  5  7  1  0  0  0  0
  2  3  1  0  0  0  0
  2  4  1  0  0  0  0
  2  5  1  0  0  0  0
  1  2  1  0  0  0  0
 25 26  2  0  0  0  0
 25 27  1  0  0  0  0
 23 24  1  0  0  0  0
 21 22  1  0  0  0  0
 21 23  2  0  0  0  0
 19 20  1  0  0  0  0
 19 21  1  0  0  0  0
 17 18  1  0  0  0  0
 17 19  2  0  0  0  0
 15 16  1  0  0  0  0
 15 17  1  0  0  0  0
 14 15  2  0  0  0  0
 14 23  1  0  0  0  0
 11 12  1  0  0  0  0
 11 13  1  0  0  0  0
 11 14  1  0  0  0  0
  9 10  1  0  0  0  0
  9 11  1  0  0  0  0
  9 25  1  0  0  0  0
  7  8  1  0  0  0  0
  7  9  1  0  0  0  0
 29 30  1  0  0  0  0
 29 31  1  0  0  0  0
 29 32  1  0  0  0  0
 27 28  1  0  0  0  0
 27 29  1  0  0  0  0
M  END
$$$$
default_name
  -OEChem-01062215323D

 32 32  0     1  0  0  0  0  0999 V2000
   -3.8405   -3.7518    1.6252 H   0  0  0  0  0  0  0  0  0  0  0  0
   -3.7965   -2.8768    0.9782 C   0  0  0  0  0  0  0  0  0  0  0  0
   -4.5465   -2.1527    1.2902 H   0  0  0  0  0  0  0  0  0  0  0  0
   -3.9745   -3.1748   -0.0538 H   0  0  0  0  0  0  0  0  0  0  0  0
   -2.4245   -2.2537    1.0882 C   0  0  0  0  0  0  0  0  0  0  0  0
   -1.5805   -2.7478    1.8242 O   0  0  0  0  0  0  0  0  0  0  0  0
   -2.2045   -1.1637    0.3562 N   0  0  0  0  0  0  0  0  0  0  0  0
   -2.9595   -0.7907   -0.2008 H   0  0  0  0  0  0  0  0  0  0  0  0
   -0.9485   -0.4087    0.3482 C   0  0  1  0  0  0  0  0  0  0  0  0
   -1.1591    0.6208    0.6419 H   0  0  0  0  0  0  0  0  0  0  0  0
    0.0174   -1.0181    1.3788 C   0  0  0  0  0  0  0  0  0  0  0  0
    0.1230   -2.0854    1.1789 H   0  0  0  0  0  0  0  0  0  0  0  0
    1.0009   -0.5627    1.2543 H   0  0  0  0  0  0  0  0  0  0  0  0
   -0.4329   -0.8517    2.8177 C   0  0  0  0  0  0  0  0  0  0  0  0
   -0.2108    0.3602    3.4989 C   0  0  0  0  0  0  0  0  0  0  0  0
    0.3036    1.1732    3.0064 H   0  0  0  0  0  0  0  0  0  0  0  0
   -0.6680    0.5214    4.8198 C   0  0  0  0  0  0  0  0  0  0  0  0
   -0.4942    1.4518    5.3419 H   0  0  0  0  0  0  0  0  0  0  0  0
   -1.3493   -0.5271    5.4609 C   0  0  0  0  0  0  0  0  0  0  0  0
   -1.6985   -0.4041    6.4766 H   0  0  0  0  0  0  0  0  0  0  0  0
   -1.5716   -1.7399    4.7836 C   0  0  0  0  0  0  0  0  0  0  0  0
   -2.0905   -2.5479    5.2781 H   0  0  0  0  0  0  0  0  0  0  0  0
   -1.1116   -1.9019    3.4647 C   0  0  0  0  0  0  0  0  0  0  0  0
   -1.2803   -2.8366    2.9458 H   0  0  0  0  0  0  0  0  0  0  0  0
   -0.3358   -0.3768   -1.0635 C   0  0  0  0  0  0  0  0  0  0  0  0
   -0.0258   -1.4268   -1.6282 O   0  0  0  0  0  0  0  0  0  0  0  0
   -0.1558    0.8228   -1.6309 N   0  0  0  0  0  0  0  0  0  0  0  0
   -0.3826    1.6386   -1.0829 H   0  0  0  0  0  0  0  0  0  0  0  0
    0.4205    1.0266   -2.9577 C   0  0  0  0  0  0  0  0  0  0  0  0
   -0.1086    0.4120   -3.6890 H   0  0  0  0  0  0  0  0  0  0  0  0
    0.3421    2.0753   -3.2457 H   0  0  0  0  0  0  0  0  0  0  0  0
    1.4717    0.7323   -2.9507 H   0  0  0  0  0  0  0  0  0  0  0  0
  5  6  2  0  0  0  0
  5  7  1  0  0  0  0
  2  3  1  0  0  0  0
  2  4  1  0  0  0  0
  2  5  1  0  0  0  0
  1  2  1  0  0  0  0
 25 26  2  0  0  0  0
 25 27  1  0  0  0  0
 23 24  1  0  0  0  0
 21 22  1  0  0  0  0
 21 23  2  0  0  0  0
 19 20  1  0  0  0  0
 19 21  1  0  0  0  0
 17 18  1  0  0  0  0
 17 19  2  0  0  0  0
 15 16  1  0  0  0  0
 15 17  1  0  0  0  0
 14 15  2  0  0  0  0
 14 23  1  0  0  0  0
 11 12  1  0  0  0  0
 11 13  1  0  0  0  0
 11 14  1  0  0  0  0
  9 10  1  0  0  0  0
  9 11  1  0  0  0  0
  9 25  1  0  0  0  0
  7  8  1  0  0  0  0
  7  9  1  0  0  0  0
 29 30  1  0  0  0  0
 29 31  1  0  0  0  0
 29 32  1  0  0  0  0
 27 28  1  0  0  0  0
 27 29  1  0  0  0  0
M  END
$$$$
default_name
  -OEChem-01062215323D

 32 32  0     1  0  0  0  0  0999 V2000
   -3.8405   -3.7518    1.6252 H   0  0  0  0  0  0  0  0  0  0  0  0
   -3.7965   -2.8768    0.9782 C   0  0  0  0  0  0  0  0  0  0  0  0
   -4.5465   -2.1527    1.2902 H   0  0  0  0  0  0  0  0  0  0  0  0
   -3.9745   -3.1748   -0.0538 H   0  0  0  0  0  0  0  0  0  0  0  0
   -2.4245   -2.2537    1.0882 C   0  0  0  0  0  0  0  0  0  0  0  0
   -1.5805   -2.7478    1.8242 O   0  0  0  0  0  0  0  0  0  0  0  0
   -2.2045   -1.1637    0.3562 N   0  0  0  0  0  0  0  0  0  0  0  0
   -2.9595   -0.7907   -0.2008 H   0  0  0  0  0  0  0  0  0  0  0  0
   -0.9485   -0.4087    0.3482 C   0  0  1  0  0  0  0  0  0  0  0  0
   -1.1591    0.6208    0.6419 H   0  0  0  0  0  0  0  0  0  0  0  0
    0.0174   -1.0181    1.3788 C   0  0  0  0  0  0  0  0  0  0  0  0
    0.1230   -2.0854    1.1789 H   0  0  0  0  0  0  0  0  0  0  0  0
    1.0009   -0.5627    1.2543 H   0  0  0  0  0  0  0  0  0  0  0  0
   -0.4329   -0.8517    2.8177 C   0  0  0  0  0  0  0  0  0  0  0  0
   -0.2108    0.3602    3.4989 C   0  0  0  0  0  0  0  0  0  0  0  0
    0.3036    1.1732    3.0064 H   0  0  0  0  0  0  0  0  0  0  0  0
   -0.6680    0.5214    4.8198 C   0  0  0  0  0  0  0  0  0  0  0  0
   -0.4942    1.4518    5.3419 H   0  0  0  0  0  0  0  0  0  0  0  0
   -1.3493   -0.5271    5.4609 C   0  0  0  0  0  0  0  0  0  0  0  0
   -1.6985   -0.4041    6.4766 H   0  0  0  0  0  0  0  0  0  0  0  0
   -1.5716   -1.7399    4.7836 C   0  0  0  0  0  0  0  0  0  0  0  0
   -2.0905   -2.5479    5.2781 H   0  0  0  0  0  0  0  0  0  0  0  0
   -1.1116   -1.9019    3.4647 C   0  0  0  0  0  0  0  0  0  0  0  0
   -1.2803   -2.8366    2.9458 H   0  0  0  0  0  0  0  0  0  0  0  0
   -0.3358   -0.3768   -1.0635 C   0  0  0  0  0  0  0  0  0  0  0  0
   -0.2803   -1.4060   -1.7381 O   0  0  0  0  0  0  0  0  0  0  0  0
    0.1281    0.7981   -1.5082 N   0  0  0  0  0  0  0  0  0  0  0  0
    0.0978    1.5831   -0.8757 H   0  0  0  0  0  0  0  0  0  0  0  0
    0.7457    0.9959   -2.8173 C   0  0  0  0  0  0  0  0  0  0  0  0
    0.0908    0.6035   -3.5981 H   0  0  0  0  0  0  0  0  0  0  0  0
    0.9208    2.0573   -2.9949 H   0  0  0  0  0  0  0  0  0  0  0  0
    1.6968    0.4616   -2.8591 H   0  0  0  0  0  0  0  0  0  0  0  0
  5  6  2  0  0  0  0
  5  7  1  0  0  0  0
  2  3  1  0  0  0  0
  2  4  1  0  0  0  0
  2  5  1  0  0  0  0
  1  2  1  0  0  0  0
 25 26  2  0  0  0  0
 25 27  1  0  0  0  0
 23 24  1  0  0  0  0
 21 22  1  0  0  0  0
 21 23  2  0  0  0  0
 19 20  1  0  0  0  0
 19 21  1  0  0  0  0
 17 18  1  0  0  0  0
 17 19  2  0  0  0  0
 15 16  1  0  0  0  0
 15 17  1  0  0  0  0
 14 15  2  0  0  0  0
 14 23  1  0  0  0  0
 11 12  1  0  0  0  0
 11 13  1  0  0  0  0
 11 14  1  0  0  0  0
  9 10  1  0  0  0  0
  9 11  1  0  0  0  0
  9 25  1  0  0  0  0
  7  8  1  0  0  0  0
  7  9  1  0  0  0  0
 29 30  1  0  0  0  0
 29 31  1  0  0  0  0
 29 32  1  0  0  0  0
 27 28  1  0  0  0  0
 27 29  1  0  0  0  0
M  END
$$$$
default_name
  -OEChem-01062215323D

 32 32  0     1  0  0  0  0  0999 V2000
   -3.8405   -3.7518    1.6252 H   0  0  0  0  0  0  0  0  0  0  0  0
   -3.7965   -2.8768    0.9782 C   0  0  0  0  0  0  0  0  0  0  0  0
   -4.5465   -2.1527    1.2902 H   0  0  0  0  0  0  0  0  0  0  0  0
   -3.9745   -3.1748   -0.0538 H   0  0  0  0  0  0  0  0  0  0  0  0
   -2.4245   -2.2537    1.0882 C   0  0  0  0  0  0  0  0  0  0  0  0
   -1.5805   -2.7478    1.8242 O   0  0  0  0  0  0  0  0  0  0  0  0
   -2.2045   -1.1637    0.3562 N   0  0  0  0  0  0  0  0  0  0  0  0
   -2.9595   -0.7907   -0.2008 H   0  0  0  0  0  0  0  0  0  0  0  0
   -0.9485   -0.4087    0.3482 C   0  0  1  0  0  0  0  0  0  0  0  0
   -1.1591    0.6208    0.6419 H   0  0  0  0  0  0  0  0  0  0  0  0
    0.0174   -1.0181    1.3788 C   0  0  0  0  0  0  0  0  0  0  0  0
    0.1230   -2.0854    1.1789 H   0  0  0  0  0  0  0  0  0  0  0  0
    1.0009   -0.5627    1.2543 H   0  0  0  0  0  0  0  0  0  0  0  0
   -0.4329   -0.8517    2.8177 C   0  0  0  0  0  0  0  0  0  0  0  0
   -0.2108    0.3602    3.4989 C   0  0  0  0  0  0  0  0  0  0  0  0
    0.3036    1.1732    3.0064 H   0  0  0  0  0  0  0  0  0  0  0  0
   -0.6680    0.5214    4.8198 C   0  0  0  0  0  0  0  0  0  0  0  0
   -0.4942    1.4518    5.3419 H   0  0  0  0  0  0  0  0  0  0  0  0
   -1.3493   -0.5271    5.4609 C   0  0  0  0  0  0  0  0  0  0  0  0
   -1.6985   -0.4041    6.4766 H   0  0  0  0  0  0  0  0  0  0  0  0
   -1.5716   -1.7399    4.7836 C   0  0  0  0  0  0  0  0  0  0  0  0
   -2.0905   -2.5479    5.2781 H   0  0  0  0  0  0  0  0  0  0  0  0
   -1.1116   -1.9019    3.4647 C   0  0  0  0  0  0  0  0  0  0  0  0
   -1.2803   -2.8366    2.9458 H   0  0  0  0  0  0  0  0  0  0  0  0
   -0.3358   -0.3768   -1.0635 C   0  0  0  0  0  0  0  0  0  0  0  0
   -0.5217   -1.3141   -1.8408 O   0  0  0  0  0  0  0  0  0  0  0  0
    0.3971    0.6942   -1.3938 N   0  0  0  0  0  0  0  0  0  0  0  0
    0.5498    1.3941   -0.6838 H   0  0  0  0  0  0  0  0  0  0  0  0
    1.0533    0.8746   -2.6865 C   0  0  0  0  0  0  0  0  0  0  0  0
    0.3294    0.7317   -3.4916 H   0  0  0  0  0  0  0  0  0  0  0  0
    1.4768    1.8768   -2.7577 H   0  0  0  0  0  0  0  0  0  0  0  0
    1.8504    0.1373   -2.7998 H   0  0  0  0  0  0  0  0  0  0  0  0
  5  6  2  0  0  0  0
  5  7  1  0  0  0  0
  2  3  1  0  0  0  0
  2  4  1  0  0  0  0
  2  5  1  0  0  0  0
  1  2  1  0  0  0  0
 25 26  2  0  0  0  0
 25 27  1  0  0  0  0
 23 24  1  0  0  0  0
 21 22  1  0  0  0  0
 21 23  2  0  0  0  0
 19 20  1  0  0  0  0
 19 21  1  0  0  0  0
 17 18  1  0  0  0  0
 17 19  2  0  0  0  0
 15 16  1  0  0  0  0
 15 17  1  0  0  0  0
 14 15  2  0  0  0  0
 14 23  1  0  0  0  0
 11 12  1  0  0  0  0
 11 13  1  0  0  0  0
 11 14  1  0  0  0  0
  9 10  1  0  0  0  0
  9 11  1  0  0  0  0
  9 25  1  0  0  0  0
  7  8  1  0  0  0  0
  7  9  1  0  0  0  0
 29 30  1  0  0  0  0
 29 31  1  0  0  0  0
 29 32  1  0  0  0  0
 27 28  1  0  0  0  0
 27 29  1  0  0  0  0
M  END
$$$$
default_name
  -OEChem-01062215323D

 32 32  0     1  0  0  0  0  0999 V2000
   -3.8405   -3.7518    1.6252 H   0  0  0  0  0  0  0  0  0  0  0  0
   -3.7965   -2.8768    0.9782 C   0  0  0  0  0  0  0  0  0  0  0  0
   -4.5465   -2.1527    1.2902 H   0  0  0  0  0  0  0  0  0  0  0  0
   -3.9745   -3.1748   -0.0538 H   0  0  0  0  0  0  0  0  0  0  0  0
   -2.4245   -2.2537    1.0882 C   0  0  0  0  0  0  0  0  0  0  0  0
   -1.5805   -2.7478    1.8242 O   0  0  0  0  0  0  0  0  0  0  0  0
   -2.2045   -1.1637    0.3562 N   0  0  0  0  0  0  0  0  0  0  0  0
   -2.9595   -0.7907   -0.2008 H   0  0  0  0  0  0  0  0  0  0  0  0
   -0.9485   -0.4087    0.3482 C   0  0  1  0  0  0  0  0  0  0  0  0
   -1.1591    0.6208    0.6419 H   0  0  0  0  0  0  0  0  0  0  0  0
    0.0174   -1.0181    1.3788 C   0  0  0  0  0  0  0  0  0  0  0  0
    0.1230   -2.0854    1.1789 H   0  0  0  0  0  0  0  0  0  0  0  0
    1.0009   -0.5627    1.2543 H   0  0  0  0  0  0  0  0  0  0  0  0
   -0.4329   -0.8517    2.8177 C   0  0  0  0  0  0  0  0  0  0  0  0
   -0.2108    0.3602    3.4989 C   0  0  0  0  0  0  0  0  0  0  0  0
    0.3036    1.1732    3.0064 H   0  0  0  0  0  0  0  0  0  0  0  0
   -0.6680    0.5214    4.8198 C   0  0  0  0  0  0  0  0  0  0  0  0
   -0.4942    1.4518    5.3419 H   0  0  0  0  0  0  0  0  0  0  0  0
   -1.3493   -0.5271    5.4609 C   0  0  0  0  0  0  0  0  0  0  0  0
   -1.6985   -0.4041    6.4766 H   0  0  0  0  0  0  0  0  0  0  0  0
   -1.5716   -1.7399    4.7836 C   0  0  0  0  0  0  0  0  0  0  0  0
   -2.0905   -2.5479    5.2781 H   0  0  0  0  0  0  0  0  0  0  0  0
   -1.1116   -1.9019    3.4647 C   0  0  0  0  0  0  0  0  0  0  0  0
   -1.2803   -2.8366    2.9458 H   0  0  0  0  0  0  0  0  0  0  0  0
   -0.3358   -0.3768   -1.0635 C   0  0  0  0  0  0  0  0  0  0  0  0
   -0.7336   -1.1575   -1.9293 O   0  0  0  0  0  0  0  0  0  0  0  0
    0.6329    0.5182   -1.2954 N   0  0  0  0  0  0  0  0  0  0  0  0
    0.9426    1.0844   -0.5203 H   0  0  0  0  0  0  0  0  0  0  0  0
    1.3223    0.6709   -2.5744 C   0  0  0  0  0  0  0  0  0  0  0  0
    0.5909    0.7880   -3.3768 H   0  0  0  0  0  0  0  0  0  0  0  0
    1.9724    1.5459   -2.5501 H   0  0  0  0  0  0  0  0  0  0  0  0
    1.9222   -0.2185   -2.7767 H   0  0  0  0  0  0  0  0  0  0  0  0
  5  6  2  0  0  0  0
  5  7  1  0  0  0  0
  2  3  1  0  0  0  0
  2  4  1  0  0  0  0
  2  5  1  0  0  0  0
  1  2  1  0  0  0  0
 25 26  2  0  0  0  0
 25 27  1  0  0  0  0
 23 24  1  0  0  0  0
 21 22  1  0  0  0  0
 21 23  2  0  0  0  0
 19 20  1  0  0  0  0
 19 21  1  0  0  0  0
 17 18  1  0  0  0  0
 17 19  2  0  0  0  0
 15 16  1  0  0  0  0
 15 17  1  0  0  0  0
 14 15  2  0  0  0  0
 14 23  1  0  0  0  0
 11 12  1  0  0  0  0
 11 13  1  0  0  0  0
 11 14  1  0  0  0  0
  9 10  1  0  0  0  0
  9 11  1  0  0  0  0
  9 25  1  0  0  0  0
  7  8  1  0  0  0  0
  7  9  1  0  0  0  0
 29 30  1  0  0  0  0
 29 31  1  0  0  0  0
 29 32  1  0  0  0  0
 27 28  1  0  0  0  0
 27 29  1  0  0  0  0
M  END
$$$$
default_name
  -OEChem-01062215323D

 32 32  0     1  0  0  0  0  0999 V2000
   -3.8405   -3.7518    1.6252 H   0  0  0  0  0  0  0  0  0  0  0  0
   -3.7965   -2.8768    0.9782 C   0  0  0  0  0  0  0  0  0  0  0  0
   -4.5465   -2.1527    1.2902 H   0  0  0  0  0  0  0  0  0  0  0  0
   -3.9745   -3.1748   -0.0538 H   0  0  0  0  0  0  0  0  0  0  0  0
   -2.4245   -2.2537    1.0882 C   0  0  0  0  0  0  0  0  0  0  0  0
   -1.5805   -2.7478    1.8242 O   0  0  0  0  0  0  0  0  0  0  0  0
   -2.2045   -1.1637    0.3562 N   0  0  0  0  0  0  0  0  0  0  0  0
   -2.9595   -0.7907   -0.2008 H   0  0  0  0  0  0  0  0  0  0  0  0
   -0.9485   -0.4087    0.3482 C   0  0  1  0  0  0  0  0  0  0  0  0
   -1.1012    0.5270    0.8883 H   0  0  0  0  0  0  0  0  0  0  0  0
    0.1359   -1.2184    1.0796 C   0  0  0  0  0  0  0  0  0  0  0  0
    0.1963   -2.2131    0.6358 H   0  0  0  0  0  0  0  0  0  0  0  0
    1.1015   -0.7333    0.9290 H   0  0  0  0  0  0  0  0  0  0  0  0
   -0.1160   -1.3816    2.5665 C   0  0  0  0  0  0  0  0  0  0  0  0
    0.2148   -0.3482    3.4635 C   0  0  0  0  0  0  0  0  0  0  0  0
    0.6724    0.5608    3.0994 H   0  0  0  0  0  0  0  0  0  0  0  0
   -0.0597   -0.4904    4.8362 C   0  0  0  0  0  0  0  0  0  0  0  0
    0.1974    0.3032    5.5237 H   0  0  0  0  0  0  0  0  0  0  0  0
   -0.6667   -1.6643    5.3140 C   0  0  0  0  0  0  0  0  0  0  0  0
   -0.8755   -1.7744    6.3689 H   0  0  0  0  0  0  0  0  0  0  0  0
   -0.9972   -2.6994    4.4205 C   0  0  0  0  0  0  0  0  0  0  0  0
   -1.4588   -3.6040    4.7883 H   0  0  0  0  0  0  0  0  0  0  0  0
   -0.7197   -2.5584    3.0492 C   0  0  0  0  0  0  0  0  0  0  0  0
   -0.9713   -3.3568    2.3633 H   0  0  0  0  0  0  0  0  0  0  0  0
   -0.5288   -0.0559   -1.0901 C   0  0  0  0  0  0  0  0  0  0  0  0
   -1.2233   -0.4122   -2.0431 O   0  0  0  0  0  0  0  0  0  0  0  0
    0.6060    0.6369   -1.2492 N   0  0  0  0  0  0  0  0  0  0  0  0
    1.1482    0.8433   -0.4241 H   0  0  0  0  0  0  0  0  0  0  0  0
    1.1474    1.0419   -2.5442 C   0  0  0  0  0  0  0  0  0  0  0  0
    0.3798    1.5647   -3.1187 H   0  0  0  0  0  0  0  0  0  0  0  0
    2.0040    1.7020   -2.4049 H   0  0  0  0  0  0  0  0  0  0  0  0
    1.4603    0.1584   -3.1041 H   0  0  0  0  0  0  0  0  0  0  0  0
  5  6  2  0  0  0  0
  5  7  1  0  0  0  0
  2  3  1  0  0  0  0
  2  4  1  0  0  0  0
  2  5  1  0  0  0  0
  1  2  1  0  0  0  0
 25 26  2  0  0  0  0
 25 27  1  0  0  0  0
 23 24  1  0  0  0  0
 21 22  1  0  0  0  0
 21 23  2  0  0  0  0
 19 20  1  0  0  0  0
 19 21  1  0  0  0  0
 17 18  1  0  0  0  0
 17 19  2  0  0  0  0
 15 16  1  0  0  0  0
 15 17  1  0  0  0  0
 14 15  2  0  0  0  0
 14 23  1  0  0  0  0
 11 12  1  0  0  0  0
 11 13  1  0  0  0  0
 11 14  1  0  0  0  0
  9 10  1  0  0  0  0
  9 11  1  0  0  0  0
  9 25  1  0  0  0  0
  7  8  1  0  0  0  0
  7  9  1  0  0  0  0
 29 30  1  0  0  0  0
 29 31  1  0  0  0  0
 29 32  1  0  0  0  0
 27 28  1  0  0  0  0
 27 29  1  0  0  0  0
M  END
$$$$
default_name
  -OEChem-01062215323D

 32 32  0     1  0  0  0  0  0999 V2000
   -3.8405   -3.7518    1.6252 H   0  0  0  0  0  0  0  0  0  0  0  0
   -3.7965   -2.8768    0.9782 C   0  0  0  0  0  0  0  0  0  0  0  0
   -4.5465   -2.1527    1.2902 H   0  0  0  0  0  0  0  0  0  0  0  0
   -3.9745   -3.1748   -0.0538 H   0  0  0  0  0  0  0  0  0  0  0  0
   -2.4245   -2.2537    1.0882 C   0  0  0  0  0  0  0  0  0  0  0  0
   -1.5805   -2.7478    1.8242 O   0  0  0  0  0  0  0  0  0  0  0  0
   -2.2045   -1.1637    0.3562 N   0  0  0  0  0  0  0  0  0  0  0  0
   -2.9595   -0.7907   -0.2008 H   0  0  0  0  0  0  0  0  0  0  0  0
   -0.9485   -0.4087    0.3482 C   0  0  1  0  0  0  0  0  0  0  0  0
   -1.1012    0.5270    0.8883 H   0  0  0  0  0  0  0  0  0  0  0  0
    0.1359   -1.2184    1.0796 C   0  0  0  0  0  0  0  0  0  0  0  0
    0.1963   -2.2131    0.6358 H   0  0  0  0  0  0  0  0  0  0  0  0
    1.1015   -0.7333    0.9290 H   0  0  0  0  0  0  0  0  0  0  0  0
   -0.1160   -1.3816    2.5665 C   0  0  0  0  0  0  0  0  0  0  0  0
    0.2148   -0.3482    3.4635 C   0  0  0  0  0  0  0  0  0  0  0  0
    0.6724    0.5608    3.0994 H   0  0  0  0  0  0  0  0  0  0  0  0
   -0.0597   -0.4904    4.8362 C   0  0  0  0  0  0  0  0  0  0  0  0
    0.1974    0.3032    5.5237 H   0  0  0  0  0  0  0  0  0  0  0  0
   -0.6667   -1.6643    5.3140 C   0  0  0  0  0  0  0  0  0  0  0  0
   -0.8755   -1.7744    6.3689 H   0  0  0  0  0  0  0  0  0  0  0  0
   -0.9972   -2.6994    4.4205 C   0  0  0  0  0  0  0  0  0  0  0  0
   -1.4588   -3.6040    4.7883 H   0  0  0  0  0  0  0  0  0  0  0  0
   -0.7197   -2.5584    3.0492 C   0  0  0  0  0  0  0  0  0  0  0  0
   -0.9713   -3.3568    2.3633 H   0  0  0  0  0  0  0  0  0  0  0  0
   -0.5288   -0.0559   -1.0901 C   0  0  0  0  0  0  0  0  0  0  0  0
   -1.3366   -0.1600   -2.0143 O   0  0  0  0  0  0  0  0  0  0  0  0
    0.7312    0.3549   -1.2819 N   0  0  0  0  0  0  0  0  0  0  0  0
    1.3484    0.3605   -0.4841 H   0  0  0  0  0  0  0  0  0  0  0  0
    1.2888    0.7179   -2.5825 C   0  0  0  0  0  0  0  0  0  0  0  0
    0.6438    1.4525   -3.0691 H   0  0  0  0  0  0  0  0  0  0  0  0
    2.2864    1.1405   -2.4602 H   0  0  0  0  0  0  0  0  0  0  0  0
    1.3479   -0.1685   -3.2171 H   0  0  0  0  0  0  0  0  0  0  0  0
  5  6  2  0  0  0  0
  5  7  1  0  0  0  0
  2  3  1  0  0  0  0
  2  4  1  0  0  0  0
  2  5  1  0  0  0  0
  1  2  1  0  0  0  0
 25 26  2  0  0  0  0
 25 27  1  0  0  0  0
 23 24  1  0  0  0  0
 21 22  1  0  0  0  0
 21 23  2  0  0  0  0
 19 20  1  0  0  0  0
 19 21  1  0  0  0  0
 17 18  1  0  0  0  0
 17 19  2  0  0  0  0
 15 16  1  0  0  0  0
 15 17  1  0  0  0  0
 14 15  2  0  0  0  0
 14 23  1  0  0  0  0
 11 12  1  0  0  0  0
 11 13  1  0  0  0  0
 11 14  1  0  0  0  0
  9 10  1  0  0  0  0
  9 11  1  0  0  0  0
  9 25  1  0  0  0  0
  7  8  1  0  0  0  0
  7  9  1  0  0  0  0
 29 30  1  0  0  0  0
 29 31  1  0  0  0  0
 29 32  1  0  0  0  0
 27 28  1  0  0  0  0
 27 29  1  0  0  0  0
M  END
$$$$
default_name
  -OEChem-01062215323D

 32 32  0     1  0  0  0  0  0999 V2000
   -3.8405   -3.7518    1.6252 H   0  0  0  0  0  0  0  0  0  0  0  0
   -3.7965   -2.8768    0.9782 C   0  0  0  0  0  0  0  0  0  0  0  0
   -4.5465   -2.1527    1.2902 H   0  0  0  0  0  0  0  0  0  0  0  0
   -3.9745   -3.1748   -0.0538 H   0  0  0  0  0  0  0  0  0  0  0  0
   -2.4245   -2.2537    1.0882 C   0  0  0  0  0  0  0  0  0  0  0  0
   -1.5805   -2.7478    1.8242 O   0  0  0  0  0  0  0  0  0  0  0  0
   -2.2045   -1.1637    0.3562 N   0  0  0  0  0  0  0  0  0  0  0  0
   -2.9595   -0.7907   -0.2008 H   0  0  0  0  0  0  0  0  0  0  0  0
   -0.9485   -0.4087    0.3482 C   0  0  1  0  0  0  0  0  0  0  0  0
   -1.1012    0.5270    0.8883 H   0  0  0  0  0  0  0  0  0  0  0  0
    0.1359   -1.2184    1.0796 C   0  0  0  0  0  0  0  0  0  0  0  0
    0.1963   -2.2131    0.6358 H   0  0  0  0  0  0  0  0  0  0  0  0
    1.1015   -0.7333    0.9290 H   0  0  0  0  0  0  0  0  0  0  0  0
   -0.1160   -1.3816    2.5665 C   0  0  0  0  0  0  0  0  0  0  0  0
    0.2148   -0.3482    3.4635 C   0  0  0  0  0  0  0  0  0  0  0  0
    0.6724    0.5608    3.0994 H   0  0  0  0  0  0  0  0  0  0  0  0
   -0.0597   -0.4904    4.8362 C   0  0  0  0  0  0  0  0  0  0  0  0
    0.1974    0.3032    5.5237 H   0  0  0  0  0  0  0  0  0  0  0  0
   -0.6667   -1.6643    5.3140 C   0  0  0  0  0  0  0  0  0  0  0  0
   -0.8755   -1.7744    6.3689 H   0  0  0  0  0  0  0  0  0  0  0  0
   -0.9972   -2.6994    4.4205 C   0  0  0  0  0  0  0  0  0  0  0  0
   -1.4588   -3.6040    4.7883 H   0  0  0  0  0  0  0  0  0  0  0  0
   -0.7197   -2.5584    3.0492 C   0  0  0  0  0  0  0  0  0  0  0  0
   -0.9713   -3.3568    2.3633 H   0  0  0  0  0  0  0  0  0  0  0  0
   -0.5288   -0.0559   -1.0901 C   0  0  0  0  0  0  0  0  0  0  0  0
   -1.3833    0.1089   -1.9619 O   0  0  0  0  0  0  0  0  0  0  0  0
    0.7820    0.0545   -1.3407 N   0  0  0  0  0  0  0  0  0  0  0  0
    1.4215   -0.1502   -0.5881 H   0  0  0  0  0  0  0  0  0  0  0  0
    1.3446    0.3734   -2.6507 C   0  0  0  0  0  0  0  0  0  0  0  0
    0.8746    1.2769   -3.0449 H   0  0  0  0  0  0  0  0  0  0  0  0
    2.4201    0.5337   -2.5701 H   0  0  0  0  0  0  0  0  0  0  0  0
    1.1535   -0.4491   -3.3426 H   0  0  0  0  0  0  0  0  0  0  0  0
  5  6  2  0  0  0  0
  5  7  1  0  0  0  0
  2  3  1  0  0  0  0
  2  4  1  0  0  0  0
  2  5  1  0  0  0  0
  1  2  1  0  0  0  0
 25 26  2  0  0  0  0
 25 27  1  0  0  0  0
 23 24  1  0  0  0  0
 21 22  1  0  0  0  0
 21 23  2  0  0  0  0
 19 20  1  0  0  0  0
 19 21  1  0  0  0  0
 17 18  1  0  0  0  0
 17 19  2  0  0  0  0
 15 16  1  0  0  0  0
 15 17  1  0  0  0  0
 14 15  2  0  0  0  0
 14 23  1  0  0  0  0
 11 12  1  0  0  0  0
 11 13  1  0  0  0  0
 11 14  1  0  0  0  0
  9 10  1  0  0  0  0
  9 11  1  0  0  0  0
  9 25  1  0  0  0  0
  7  8  1  0  0  0  0
  7  9  1  0  0  0  0
 29 30  1  0  0  0  0
 29 31  1  0  0  0  0
 29 32  1  0  0  0  0
 27 28  1  0  0  0  0
 27 29  1  0  0  0  0
M  END
$$$$
default_name
  -OEChem-01062215323D

 32 32  0     1  0  0  0  0  0999 V2000
   -3.8405   -3.7518    1.6252 H   0  0  0  0  0  0  0  0  0  0  0  0
   -3.7965   -2.8768    0.9782 C   0  0  0  0  0  0  0  0  0  0  0  0
   -4.5465   -2.1527    1.2902 H   0  0  0  0  0  0  0  0  0  0  0  0
   -3.9745   -3.1748   -0.0538 H   0  0  0  0  0  0  0  0  0  0  0  0
   -2.4245   -2.2537    1.0882 C   0  0  0  0  0  0  0  0  0  0  0  0
   -1.5805   -2.7478    1.8242 O   0  0  0  0  0  0  0  0  0  0  0  0
   -2.2045   -1.1637    0.3562 N   0  0  0  0  0  0  0  0  0  0  0  0
   -2.9595   -0.7907   -0.2008 H   0  0  0  0  0  0  0  0  0  0  0  0
   -0.9485   -0.4087    0.3482 C   0  0  1  0  0  0  0  0  0  0  0  0
   -1.1012    0.5270    0.8883 H   0  0  0  0  0  0  0  0  0  0  0  0
    0.1359   -1.2184    1.0796 C   0  0  0  0  0  0  0  0  0  0  0  0
    0.1963   -2.2131    0.6358 H   0  0  0  0  0  0  0  0  0  0  0  0
    1.1015   -0.7333    0.9290 H   0  0  0  0  0  0  0  0  0  0  0  0
   -0.1160   -1.3816    2.5665 C   0  0  0  0  0  0  0  0  0  0  0  0
    0.2148   -0.3482    3.4635 C   0  0  0  0  0  0  0  0  0  0  0  0
    0.6724    0.5608    3.0994 H   0  0  0  0  0  0  0  0  0  0  0  0
   -0.0597   -0.4904    4.8362 C   0  0  0  0  0  0  0  0  0  0  0  0
    0.1974    0.3032    5.5237 H   0  0  0  0  0  0  0  0  0  0  0  0
   -0.6667   -1.6643    5.3140 C   0  0  0  0  0  0  0  0  0  0  0  0
   -0.8755   -1.7744    6.3689 H   0  0  0  0  0  0  0  0  0  0  0  0
   -0.9972   -2.6994    4.4205 C   0  0  0  0  0  0  0  0  0  0  0  0
   -1.4588   -3.6040    4.7883 H   0  0  0  0  0  0  0  0  0  0  0  0
   -0.7197   -2.5584    3.0492 C   0  0  0  0  0  0  0  0  0  0  0  0
   -0.9713   -3.3568    2.3633 H   0  0  0  0  0  0  0  0  0  0  0  0
   -0.5288   -0.0559   -1.0901 C   0  0  0  0  0  0  0  0  0  0  0  0
   -1.3603    0.3764   -1.8896 O   0  0  0  0  0  0  0  0  0  0  0  0
    0.7549   -0.2438   -1.4218 N   0  0  0  0  0  0  0  0  0  0  0  0
    1.3624   -0.6537   -0.7288 H   0  0  0  0  0  0  0  0  0  0  0  0
    1.3113    0.0320   -2.7442 C   0  0  0  0  0  0  0  0  0  0  0  0
    1.0565    1.0496   -3.0475 H   0  0  0  0  0  0  0  0  0  0  0  0
    2.3960   -0.0770   -2.7269 H   0  0  0  0  0  0  0  0  0  0  0  0
    0.8905   -0.6643   -3.4722 H   0  0  0  0  0  0  0  0  0  0  0  0
  5  6  2  0  0  0  0
  5  7  1  0  0  0  0
  2  3  1  0  0  0  0
  2  4  1  0  0  0  0
  2  5  1  0  0  0  0
  1  2  1  0  0  0  0
 25 26  2  0  0  0  0
 25 27  1  0  0  0  0
 23 24  1  0  0  0  0
 21 22  1  0  0  0  0
 21 23  2  0  0  0  0
 19 20  1  0  0  0  0
 19 21  1  0  0  0  0
 17 18  1  0  0  0  0
 17 19  2  0  0  0  0
 15 16  1  0  0  0  0
 15 17  1  0  0  0  0
 14 15  2  0  0  0  0
 14 23  1  0  0  0  0
 11 12  1  0  0  0  0
 11 13  1  0  0  0  0
 11 14  1  0  0  0  0
  9 10  1  0  0  0  0
  9 11  1  0  0  0  0
  9 25  1  0  0  0  0
  7  8  1  0  0  0  0
  7  9  1  0  0  0  0
 29 30  1  0  0  0  0
 29 31  1  0  0  0  0
 29 32  1  0  0  0  0
 27 28  1  0  0  0  0
 27 29  1  0  0  0  0
M  END
$$$$
default_name
  -OEChem-01062215323D

 32 32  0     1  0  0  0  0  0999 V2000
   -3.8405   -3.7518    1.6252 H   0  0  0  0  0  0  0  0  0  0  0  0
   -3.7965   -2.8768    0.9782 C   0  0  0  0  0  0  0  0  0  0  0  0
   -4.5465   -2.1527    1.2902 H   0  0  0  0  0  0  0  0  0  0  0  0
   -3.9745   -3.1748   -0.0538 H   0  0  0  0  0  0  0  0  0  0  0  0
   -2.4245   -2.2537    1.0882 C   0  0  0  0  0  0  0  0  0  0  0  0
   -1.5805   -2.7478    1.8242 O   0  0  0  0  0  0  0  0  0  0  0  0
   -2.2045   -1.1637    0.3562 N   0  0  0  0  0  0  0  0  0  0  0  0
   -2.9595   -0.7907   -0.2008 H   0  0  0  0  0  0  0  0  0  0  0  0
   -0.9485   -0.4087    0.3482 C   0  0  1  0  0  0  0  0  0  0  0  0
   -1.1012    0.5270    0.8883 H   0  0  0  0  0  0  0  0  0  0  0  0
    0.1359   -1.2184    1.0796 C   0  0  0  0  0  0  0  0  0  0  0  0
    0.1963   -2.2131    0.6358 H   0  0  0  0  0  0  0  0  0  0  0  0
    1.1015   -0.7333    0.9290 H   0  0  0  0  0  0  0  0  0  0  0  0
   -0.1160   -1.3816    2.5665 C   0  0  0  0  0  0  0  0  0  0  0  0
    0.2148   -0.3482    3.4635 C   0  0  0  0  0  0  0  0  0  0  0  0
    0.6724    0.5608    3.0994 H   0  0  0  0  0  0  0  0  0  0  0  0
   -0.0597   -0.4904    4.8362 C   0  0  0  0  0  0  0  0  0  0  0  0
    0.1974    0.3032    5.5237 H   0  0  0  0  0  0  0  0  0  0  0  0
   -0.6667   -1.6643    5.3140 C   0  0  0  0  0  0  0  0  0  0  0  0
   -0.8755   -1.7744    6.3689 H   0  0  0  0  0  0  0  0  0  0  0  0
   -0.9972   -2.6994    4.4205 C   0  0  0  0  0  0  0  0  0  0  0  0
   -1.4588   -3.6040    4.7883 H   0  0  0  0  0  0  0  0  0  0  0  0
   -0.7197   -2.5584    3.0492 C   0  0  0  0  0  0  0  0  0  0  0  0
   -0.9713   -3.3568    2.3633 H   0  0  0  0  0  0  0  0  0  0  0  0
   -0.5288   -0.0559   -1.0901 C   0  0  0  0  0  0  0  0  0  0  0  0
   -1.2691    0.6240   -1.8023 O   0  0  0  0  0  0  0  0  0  0  0  0
    0.6518   -0.5196   -1.5195 N   0  0  0  0  0  0  0  0  0  0  0  0
    1.1752   -1.1159   -0.8968 H   0  0  0  0  0  0  0  0  0  0  0  0
    1.1909   -0.2831   -2.8566 C   0  0  0  0  0  0  0  0  0  0  0  0
    1.1771    0.7864   -3.0769 H   0  0  0  0  0  0  0  0  0  0  0  0
    2.2157   -0.6500   -2.9201 H   0  0  0  0  0  0  0  0  0  0  0  0
    0.5767   -0.7994   -3.5969 H   0  0  0  0  0  0  0  0  0  0  0  0
  5  6  2  0  0  0  0
  5  7  1  0  0  0  0
  2  3  1  0  0  0  0
  2  4  1  0  0  0  0
  2  5  1  0  0  0  0
  1  2  1  0  0  0  0
 25 26  2  0  0  0  0
 25 27  1  0  0  0  0
 23 24  1  0  0  0  0
 21 22  1  0  0  0  0
 21 23  2  0  0  0  0
 19 20  1  0  0  0  0
 19 21  1  0  0  0  0
 17 18  1  0  0  0  0
 17 19  2  0  0  0  0
 15 16  1  0  0  0  0
 15 17  1  0  0  0  0
 14 15  2  0  0  0  0
 14 23  1  0  0  0  0
 11 12  1  0  0  0  0
 11 13  1  0  0  0  0
 11 14  1  0  0  0  0
  9 10  1  0  0  0  0
  9 11  1  0  0  0  0
  9 25  1  0  0  0  0
  7  8  1  0  0  0  0
  7  9  1  0  0  0  0
 29 30  1  0  0  0  0
 29 31  1  0  0  0  0
 29 32  1  0  0  0  0
 27 28  1  0  0  0  0
 27 29  1  0  0  0  0
M  END
$$$$
default_name
  -OEChem-01062215323D

 32 32  0     1  0  0  0  0  0999 V2000
   -3.8405   -3.7518    1.6252 H   0  0  0  0  0  0  0  0  0  0  0  0
   -3.7965   -2.8768    0.9782 C   0  0  0  0  0  0  0  0  0  0  0  0
   -4.5465   -2.1527    1.2902 H   0  0  0  0  0  0  0  0  0  0  0  0
   -3.9745   -3.1748   -0.0538 H   0  0  0  0  0  0  0  0  0  0  0  0
   -2.4245   -2.2537    1.0882 C   0  0  0  0  0  0  0  0  0  0  0  0
   -1.5805   -2.7478    1.8242 O   0  0  0  0  0  0  0  0  0  0  0  0
   -2.2045   -1.1637    0.3562 N   0  0  0  0  0  0  0  0  0  0  0  0
   -2.9595   -0.7907   -0.2008 H   0  0  0  0  0  0  0  0  0  0  0  0
   -0.9485   -0.4087    0.3482 C   0  0  1  0  0  0  0  0  0  0  0  0
   -1.1012    0.5270    0.8883 H   0  0  0  0  0  0  0  0  0  0  0  0
    0.1359   -1.2184    1.0796 C   0  0  0  0  0  0  0  0  0  0  0  0
    0.1963   -2.2131    0.6358 H   0  0  0  0  0  0  0  0  0  0  0  0
    1.1015   -0.7333    0.9290 H   0  0  0  0  0  0  0  0  0  0  0  0
   -0.1160   -1.3816    2.5665 C   0  0  0  0  0  0  0  0  0  0  0  0
    0.2148   -0.3482    3.4635 C   0  0  0  0  0  0  0  0  0  0  0  0
    0.6724    0.5608    3.0994 H   0  0  0  0  0  0  0  0  0  0  0  0
   -0.0597   -0.4904    4.8362 C   0  0  0  0  0  0  0  0  0  0  0  0
    0.1974    0.3032    5.5237 H   0  0  0  0  0  0  0  0  0  0  0  0
   -0.6667   -1.6643    5.3140 C   0  0  0  0  0  0  0  0  0  0  0  0
   -0.8755   -1.7744    6.3689 H   0  0  0  0  0  0  0  0  0  0  0  0
   -0.9972   -2.6994    4.4205 C   0  0  0  0  0  0  0  0  0  0  0  0
   -1.4588   -3.6040    4.7883 H   0  0  0  0  0  0  0  0  0  0  0  0
   -0.7197   -2.5584    3.0492 C   0  0  0  0  0  0  0  0  0  0  0  0
   -0.9713   -3.3568    2.3633 H   0  0  0  0  0  0  0  0  0  0  0  0
   -0.5288   -0.0559   -1.0901 C   0  0  0  0  0  0  0  0  0  0  0  0
   -1.1159    0.8349   -1.7058 O   0  0  0  0  0  0  0  0  0  0  0  0
    0.4797   -0.7542   -1.6273 N   0  0  0  0  0  0  0  0  0  0  0  0
    0.8726   -1.5052   -1.0806 H   0  0  0  0  0  0  0  0  0  0  0  0
    0.9918   -0.5505   -2.9803 C   0  0  0  0  0  0  0  0  0  0  0  0
    1.2282    0.5050   -3.1311 H   0  0  0  0  0  0  0  0  0  0  0  0
    1.8916   -1.1462   -3.1364 H   0  0  0  0  0  0  0  0  0  0  0  0
    0.2335   -0.8452   -3.7082 H   0  0  0  0  0  0  0  0  0  0  0  0
  5  6  2  0  0  0  0
  5  7  1  0  0  0  0
  2  3  1  0  0  0  0
  2  4  1  0  0  0  0
  2  5  1  0  0  0  0
  1  2  1  0  0  0  0
 25 26  2  0  0  0  0
 25 27  1  0  0  0  0
 23 24  1  0  0  0  0
 21 22  1  0  0  0  0
 21 23  2  0  0  0  0
 19 20  1  0  0  0  0
 19 21  1  0  0  0  0
 17 18  1  0  0  0  0
 17 19  2  0  0  0  0
 15 16  1  0  0  0  0
 15 17  1  0  0  0  0
 14 15  2  0  0  0  0
 14 23  1  0  0  0  0
 11 12  1  0  0  0  0
 11 13  1  0  0  0  0
 11 14  1  0  0  0  0
  9 10  1  0  0  0  0
  9 11  1  0  0  0  0
  9 25  1  0  0  0  0
  7  8  1  0  0  0  0
  7  9  1  0  0  0  0
 29 30  1  0  0  0  0
 29 31  1  0  0  0  0
 29 32  1  0  0  0  0
 27 28  1  0  0  0  0
 27 29  1  0  0  0  0
M  END
$$$$
default_name
  -OEChem-01062215323D

 32 32  0     1  0  0  0  0  0999 V2000
   -3.8405   -3.7518    1.6252 H   0  0  0  0  0  0  0  0  0  0  0  0
   -3.7965   -2.8768    0.9782 C   0  0  0  0  0  0  0  0  0  0  0  0
   -4.5465   -2.1527    1.2902 H   0  0  0  0  0  0  0  0  0  0  0  0
   -3.9745   -3.1748   -0.0538 H   0  0  0  0  0  0  0  0  0  0  0  0
   -2.4245   -2.2537    1.0882 C   0  0  0  0  0  0  0  0  0  0  0  0
   -1.5805   -2.7478    1.8242 O   0  0  0  0  0  0  0  0  0  0  0  0
   -2.2045   -1.1637    0.3562 N   0  0  0  0  0  0  0  0  0  0  0  0
   -2.9595   -0.7907   -0.2008 H   0  0  0  0  0  0  0  0  0  0  0  0
   -0.9485   -0.4087    0.3482 C   0  0  1  0  0  0  0  0  0  0  0  0
   -1.1012    0.5270    0.8883 H   0  0  0  0  0  0  0  0  0  0  0  0
    0.1359   -1.2184    1.0796 C   0  0  0  0  0  0  0  0  0  0  0  0
    0.1963   -2.2131    0.6358 H   0  0  0  0  0  0  0  0  0  0  0  0
    1.1015   -0.7333    0.9290 H   0  0  0  0  0  0  0  0  0  0  0  0
   -0.1160   -1.3816    2.5665 C   0  0  0  0  0  0  0  0  0  0  0  0
    0.2148   -0.3482    3.4635 C   0  0  0  0  0  0  0  0  0  0  0  0
    0.6724    0.5608    3.0994 H   0  0  0  0  0  0  0  0  0  0  0  0
   -0.0597   -0.4904    4.8362 C   0  0  0  0  0  0  0  0  0  0  0  0
    0.1974    0.3032    5.5237 H   0  0  0  0  0  0  0  0  0  0  0  0
   -0.6667   -1.6643    5.3140 C   0  0  0  0  0  0  0  0  0  0  0  0
   -0.8755   -1.7744    6.3689 H   0  0  0  0  0  0  0  0  0  0  0  0
   -0.9972   -2.6994    4.4205 C   0  0  0  0  0  0  0  0  0  0  0  0
   -1.4588   -3.6040    4.7883 H   0  0  0  0  0  0  0  0  0  0  0  0
   -0.7197   -2.5584    3.0492 C   0  0  0  0  0  0  0  0  0  0  0  0
   -0.9713   -3.3568    2.3633 H   0  0  0  0  0  0  0  0  0  0  0  0
   -0.5288   -0.0559   -1.0901 C   0  0  0  0  0  0  0  0  0  0  0  0
   -0.9112    0.9949   -1.6068 O   0  0  0  0  0  0  0  0  0  0  0  0
    0.2503   -0.9315   -1.7377 N   0  0  0  0  0  0  0  0  0  0  0  0
    0.4753   -1.7951   -1.2677 H   0  0  0  0  0  0  0  0  0  0  0  0
    0.7275   -0.7518   -3.1068 C   0  0  0  0  0  0  0  0  0  0  0  0
    1.2062    0.2246   -3.2062 H   0  0  0  0  0  0  0  0  0  0  0  0
    1.4456   -1.5318   -3.3611 H   0  0  0  0  0  0  0  0  0  0  0  0
   -0.1157   -0.7985   -3.7987 H   0  0  0  0  0  0  0  0  0  0  0  0
  5  6  2  0  0  0  0
  5  7  1  0  0  0  0
  2  3  1  0  0  0  0
  2  4  1  0  0  0  0
  2  5  1  0  0  0  0
  1  2  1  0  0  0  0
 25 26  2  0  0  0  0
 25 27  1  0  0  0  0
 23 24  1  0  0  0  0
 21 22  1  0  0  0  0
 21 23  2  0  0  0  0
 19 20  1  0  0  0  0
 19 21  1  0  0  0  0
 17 18  1  0  0  0  0
 17 19  2  0  0  0  0
 15 16  1  0  0  0  0
 15 17  1  0  0  0  0
 14 15  2  0  0  0  0
 14 23  1  0  0  0  0
 11 12  1  0  0  0  0
 11 13  1  0  0  0  0
 11 14  1  0  0  0  0
  9 10  1  0  0  0  0
  9 11  1  0  0  0  0
  9 25  1  0  0  0  0
  7  8  1  0  0  0  0
  7  9  1  0  0  0  0
 29 30  1  0  0  0  0
 29 31  1  0  0  0  0
 29 32  1  0  0  0  0
 27 28  1  0  0  0  0
 27 29  1  0  0  0  0
M  END
$$$$
default_name
  -OEChem-01062215323D

 32 32  0     1  0  0  0  0  0999 V2000
   -3.8405   -3.7518    1.6252 H   0  0  0  0  0  0  0  0  0  0  0  0
   -3.7965   -2.8768    0.9782 C   0  0  0  0  0  0  0  0  0  0  0  0
   -4.5465   -2.1527    1.2902 H   0  0  0  0  0  0  0  0  0  0  0  0
   -3.9745   -3.1748   -0.0538 H   0  0  0  0  0  0  0  0  0  0  0  0
   -2.4245   -2.2537    1.0882 C   0  0  0  0  0  0  0  0  0  0  0  0
   -1.5805   -2.7478    1.8242 O   0  0  0  0  0  0  0  0  0  0  0  0
   -2.2045   -1.1637    0.3562 N   0  0  0  0  0  0  0  0  0  0  0  0
   -2.9595   -0.7907   -0.2008 H   0  0  0  0  0  0  0  0  0  0  0  0
   -0.9485   -0.4087    0.3482 C   0  0  1  0  0  0  0  0  0  0  0  0
   -1.1012    0.5270    0.8883 H   0  0  0  0  0  0  0  0  0  0  0  0
    0.1359   -1.2184    1.0796 C   0  0  0  0  0  0  0  0  0  0  0  0
    0.1963   -2.2131    0.6358 H   0  0  0  0  0  0  0  0  0  0  0  0
    1.1015   -0.7333    0.9290 H   0  0  0  0  0  0  0  0  0  0  0  0
   -0.1160   -1.3816    2.5665 C   0  0  0  0  0  0  0  0  0  0  0  0
    0.2148   -0.3482    3.4635 C   0  0  0  0  0  0  0  0  0  0  0  0
    0.6724    0.5608    3.0994 H   0  0  0  0  0  0  0  0  0  0  0  0
   -0.0597   -0.4904    4.8362 C   0  0  0  0  0  0  0  0  0  0  0  0
    0.1974    0.3032    5.5237 H   0  0  0  0  0  0  0  0  0  0  0  0
   -0.6667   -1.6643    5.3140 C   0  0  0  0  0  0  0  0  0  0  0  0
   -0.8755   -1.7744    6.3689 H   0  0  0  0  0  0  0  0  0  0  0  0
   -0.9972   -2.6994    4.4205 C   0  0  0  0  0  0  0  0  0  0  0  0
   -1.4588   -3.6040    4.7883 H   0  0  0  0  0  0  0  0  0  0  0  0
   -0.7197   -2.5584    3.0492 C   0  0  0  0  0  0  0  0  0  0  0  0
   -0.9713   -3.3568    2.3633 H   0  0  0  0  0  0  0  0  0  0  0  0
   -0.5288   -0.0559   -1.0901 C   0  0  0  0  0  0  0  0  0  0  0  0
   -0.6690    1.0929   -1.5121 O   0  0  0  0  0  0  0  0  0  0  0  0
   -0.0207   -1.0396   -1.8433 N   0  0  0  0  0  0  0  0  0  0  0  0
    0.0104   -1.9658   -1.4452 H   0  0  0  0  0  0  0  0  0  0  0  0
    0.4159   -0.8735   -3.2275 C   0  0  0  0  0  0  0  0  0  0  0  0
    1.1128   -0.0356   -3.2973 H   0  0  0  0  0  0  0  0  0  0  0  0
    0.9083   -1.7806   -3.5790 H   0  0  0  0  0  0  0  0  0  0  0  0
   -0.4471   -0.6627   -3.8621 H   0  0  0  0  0  0  0  0  0  0  0  0
  5  6  2  0  0  0  0
  5  7  1  0  0  0  0
  2  3  1  0  0  0  0
  2  4  1  0  0  0  0
  2  5  1  0  0  0  0
  1  2  1  0  0  0  0
 25 26  2  0  0  0  0
 25 27  1  0  0  0  0
 23 24  1  0  0  0  0
 21 22  1  0  0  0  0
 21 23  2  0  0  0  0
 19 20  1  0  0  0  0
 19 21  1  0  0  0  0
 17 18  1  0  0  0  0
 17 19  2  0  0  0  0
 15 16  1  0  0  0  0
 15 17  1  0  0  0  0
 14 15  2  0  0  0  0
 14 23  1  0  0  0  0
 11 12  1  0  0  0  0
 11 13  1  0  0  0  0
 11 14  1  0  0  0  0
  9 10  1  0  0  0  0
  9 11  1  0  0  0  0
  9 25  1  0  0  0  0
  7  8  1  0  0  0  0
  7  9  1  0  0  0  0
 29 30  1  0  0  0  0
 29 31  1  0  0  0  0
 29 32  1  0  0  0  0
 27 28  1  0  0  0  0
 27 29  1  0  0  0  0
M  END
$$$$
default_name
  -OEChem-01062215323D

 32 32  0     1  0  0  0  0  0999 V2000
   -3.8405   -3.7518    1.6252 H   0  0  0  0  0  0  0  0  0  0  0  0
   -3.7965   -2.8768    0.9782 C   0  0  0  0  0  0  0  0  0  0  0  0
   -4.5465   -2.1527    1.2902 H   0  0  0  0  0  0  0  0  0  0  0  0
   -3.9745   -3.1748   -0.0538 H   0  0  0  0  0  0  0  0  0  0  0  0
   -2.4245   -2.2537    1.0882 C   0  0  0  0  0  0  0  0  0  0  0  0
   -1.5805   -2.7478    1.8242 O   0  0  0  0  0  0  0  0  0  0  0  0
   -2.2045   -1.1637    0.3562 N   0  0  0  0  0  0  0  0  0  0  0  0
   -2.9595   -0.7907   -0.2008 H   0  0  0  0  0  0  0  0  0  0  0  0
   -0.9485   -0.4087    0.3482 C   0  0  1  0  0  0  0  0  0  0  0  0
   -1.1012    0.5270    0.8883 H   0  0  0  0  0  0  0  0  0  0  0  0
    0.1359   -1.2184    1.0796 C   0  0  0  0  0  0  0  0  0  0  0  0
    0.1963   -2.2131    0.6358 H   0  0  0  0  0  0  0  0  0  0  0  0
    1.1015   -0.7333    0.9290 H   0  0  0  0  0  0  0  0  0  0  0  0
   -0.1160   -1.3816    2.5665 C   0  0  0  0  0  0  0  0  0  0  0  0
    0.2148   -0.3482    3.4635 C   0  0  0  0  0  0  0  0  0  0  0  0
    0.6724    0.5608    3.0994 H   0  0  0  0  0  0  0  0  0  0  0  0
   -0.0597   -0.4904    4.8362 C   0  0  0  0  0  0  0  0  0  0  0  0
    0.1974    0.3032    5.5237 H   0  0  0  0  0  0  0  0  0  0  0  0
   -0.6667   -1.6643    5.3140 C   0  0  0  0  0  0  0  0  0  0  0  0
   -0.8755   -1.7744    6.3689 H   0  0  0  0  0  0  0  0  0  0  0  0
   -0.9972   -2.6994    4.4205 C   0  0  0  0  0  0  0  0  0  0  0  0
   -1.4588   -3.6040    4.7883 H   0  0  0  0  0  0  0  0  0  0  0  0
   -0.7197   -2.5584    3.0492 C   0  0  0  0  0  0  0  0  0  0  0  0
   -0.9713   -3.3568    2.3633 H   0  0  0  0  0  0  0  0  0  0  0  0
   -0.5288   -0.0559   -1.0901 C   0  0  0  0  0  0  0  0  0  0  0  0
   -0.4057    1.1222   -1.4281 O   0  0  0  0  0  0  0  0  0  0  0  0
   -0.3149   -1.0710   -1.9369 N   0  0  0  0  0  0  0  0  0  0  0  0
   -0.4906   -2.0057   -1.6012 H   0  0  0  0  0  0  0  0  0  0  0  0
    0.0784   -0.9071   -3.3343 C   0  0  0  0  0  0  0  0  0  0  0  0
    0.9542   -0.2579   -3.3981 H   0  0  0  0  0  0  0  0  0  0  0  0
    0.3161   -1.8756   -3.7751 H   0  0  0  0  0  0  0  0  0  0  0  0
   -0.7381   -0.4468   -3.8940 H   0  0  0  0  0  0  0  0  0  0  0  0
  5  6  2  0  0  0  0
  5  7  1  0  0  0  0
  2  3  1  0  0  0  0
  2  4  1  0  0  0  0
  2  5  1  0  0  0  0
  1  2  1  0  0  0  0
 25 26  2  0  0  0  0
 25 27  1  0  0  0  0
 23 24  1  0  0  0  0
 21 22  1  0  0  0  0
 21 23  2  0  0  0  0
 19 20  1  0  0  0  0
 19 21  1  0  0  0  0
 17 18  1  0  0  0  0
 17 19  2  0  0  0  0
 15 16  1  0  0  0  0
 15 17  1  0  0  0  0
 14 15  2  0  0  0  0
 14 23  1  0  0  0  0
 11 12  1  0  0  0  0
 11 13  1  0  0  0  0
 11 14  1  0  0  0  0
  9 10  1  0  0  0  0
  9 11  1  0  0  0  0
  9 25  1  0  0  0  0
  7  8  1  0  0  0  0
  7  9  1  0  0  0  0
 29 30  1  0  0  0  0
 29 31  1  0  0  0  0
 29 32  1  0  0  0  0
 27 28  1  0  0  0  0
 27 29  1  0  0  0  0
M  END
$$$$
default_name
  -OEChem-01062215323D

 32 32  0     1  0  0  0  0  0999 V2000
   -3.8405   -3.7518    1.6252 H   0  0  0  0  0  0  0  0  0  0  0  0
   -3.7965   -2.8768    0.9782 C   0  0  0  0  0  0  0  0  0  0  0  0
   -4.5465   -2.1527    1.2902 H   0  0  0  0  0  0  0  0  0  0  0  0
   -3.9745   -3.1748   -0.0538 H   0  0  0  0  0  0  0  0  0  0  0  0
   -2.4245   -2.2537    1.0882 C   0  0  0  0  0  0  0  0  0  0  0  0
   -1.5805   -2.7478    1.8242 O   0  0  0  0  0  0  0  0  0  0  0  0
   -2.2045   -1.1637    0.3562 N   0  0  0  0  0  0  0  0  0  0  0  0
   -2.9595   -0.7907   -0.2008 H   0  0  0  0  0  0  0  0  0  0  0  0
   -0.9485   -0.4087    0.3482 C   0  0  1  0  0  0  0  0  0  0  0  0
   -1.1012    0.5270    0.8883 H   0  0  0  0  0  0  0  0  0  0  0  0
    0.1359   -1.2184    1.0796 C   0  0  0  0  0  0  0  0  0  0  0  0
    0.1963   -2.2131    0.6358 H   0  0  0  0  0  0  0  0  0  0  0  0
    1.1015   -0.7333    0.9290 H   0  0  0  0  0  0  0  0  0  0  0  0
   -0.1160   -1.3816    2.5665 C   0  0  0  0  0  0  0  0  0  0  0  0
    0.2148   -0.3482    3.4635 C   0  0  0  0  0  0  0  0  0  0  0  0
    0.6724    0.5608    3.0994 H   0  0  0  0  0  0  0  0  0  0  0  0
   -0.0597   -0.4904    4.8362 C   0  0  0  0  0  0  0  0  0  0  0  0
    0.1974    0.3032    5.5237 H   0  0  0  0  0  0  0  0  0  0  0  0
   -0.6667   -1.6643    5.3140 C   0  0  0  0  0  0  0  0  0  0  0  0
   -0.8755   -1.7744    6.3689 H   0  0  0  0  0  0  0  0  0  0  0  0
   -0.9972   -2.6994    4.4205 C   0  0  0  0  0  0  0  0  0  0  0  0
   -1.4588   -3.6040    4.7883 H   0  0  0  0  0  0  0  0  0  0  0  0
   -0.7197   -2.5584    3.0492 C   0  0  0  0  0  0  0  0  0  0  0  0
   -0.9713   -3.3568    2.3633 H   0  0  0  0  0  0  0  0  0  0  0  0
   -0.5288   -0.0559   -1.0901 C   0  0  0  0  0  0  0  0  0  0  0  0
   -0.1392    1.0810   -1.3604 O   0  0  0  0  0  0  0  0  0  0  0  0
   -0.6121   -1.0236   -2.0120 N   0  0  0  0  0  0  0  0  0  0  0  0
   -0.9934   -1.9122   -1.7250 H   0  0  0  0  0  0  0  0  0  0  0  0
   -0.2620   -0.8504   -3.4197 C   0  0  0  0  0  0  0  0  0  0  0  0
    0.7413   -0.4271   -3.5018 H   0  0  0  0  0  0  0  0  0  0  0  0
   -0.2905   -1.8103   -3.9361 H   0  0  0  0  0  0  0  0  0  0  0  0
   -0.9688   -0.1657   -3.8924 H   0  0  0  0  0  0  0  0  0  0  0  0
  5  6  2  0  0  0  0
  5  7  1  0  0  0  0
  2  3  1  0  0  0  0
  2  4  1  0  0  0  0
  2  5  1  0  0  0  0
  1  2  1  0  0  0  0
 25 26  2  0  0  0  0
 25 27  1  0  0  0  0
 23 24  1  0  0  0  0
 21 22  1  0  0  0  0
 21 23  2  0  0  0  0
 19 20  1  0  0  0  0
 19 21  1  0  0  0  0
 17 18  1  0  0  0  0
 17 19  2  0  0  0  0
 15 16  1  0  0  0  0
 15 17  1  0  0  0  0
 14 15  2  0  0  0  0
 14 23  1  0  0  0  0
 11 12  1  0  0  0  0
 11 13  1  0  0  0  0
 11 14  1  0  0  0  0
  9 10  1  0  0  0  0
  9 11  1  0  0  0  0
  9 25  1  0  0  0  0
  7  8  1  0  0  0  0
  7  9  1  0  0  0  0
 29 30  1  0  0  0  0
 29 31  1  0  0  0  0
 29 32  1  0  0  0  0
 27 28  1  0  0  0  0
 27 29  1  0  0  0  0
M  END
$$$$
default_name
  -OEChem-01062215323D

 32 32  0     1  0  0  0  0  0999 V2000
   -3.8405   -3.7518    1.6252 H   0  0  0  0  0  0  0  0  0  0  0  0
   -3.7965   -2.8768    0.9782 C   0  0  0  0  0  0  0  0  0  0  0  0
   -4.5465   -2.1527    1.2902 H   0  0  0  0  0  0  0  0  0  0  0  0
   -3.9745   -3.1748   -0.0538 H   0  0  0  0  0  0  0  0  0  0  0  0
   -2.4245   -2.2537    1.0882 C   0  0  0  0  0  0  0  0  0  0  0  0
   -1.5805   -2.7478    1.8242 O   0  0  0  0  0  0  0  0  0  0  0  0
   -2.2045   -1.1637    0.3562 N   0  0  0  0  0  0  0  0  0  0  0  0
   -2.9595   -0.7907   -0.2008 H   0  0  0  0  0  0  0  0  0  0  0  0
   -0.9485   -0.4087    0.3482 C   0  0  1  0  0  0  0  0  0  0  0  0
   -1.1012    0.5270    0.8883 H   0  0  0  0  0  0  0  0  0  0  0  0
    0.1359   -1.2184    1.0796 C   0  0  0  0  0  0  0  0  0  0  0  0
    0.1963   -2.2131    0.6358 H   0  0  0  0  0  0  0  0  0  0  0  0
    1.1015   -0.7333    0.9290 H   0  0  0  0  0  0  0  0  0  0  0  0
   -0.1160   -1.3816    2.5665 C   0  0  0  0  0  0  0  0  0  0  0  0
    0.2148   -0.3482    3.4635 C   0  0  0  0  0  0  0  0  0  0  0  0
    0.6724    0.5608    3.0994 H   0  0  0  0  0  0  0  0  0  0  0  0
   -0.0597   -0.4904    4.8362 C   0  0  0  0  0  0  0  0  0  0  0  0
    0.1974    0.3032    5.5237 H   0  0  0  0  0  0  0  0  0  0  0  0
   -0.6667   -1.6643    5.3140 C   0  0  0  0  0  0  0  0  0  0  0  0
   -0.8755   -1.7744    6.3689 H   0  0  0  0  0  0  0  0  0  0  0  0
   -0.9972   -2.6994    4.4205 C   0  0  0  0  0  0  0  0  0  0  0  0
   -1.4588   -3.6040    4.7883 H   0  0  0  0  0  0  0  0  0  0  0  0
   -0.7197   -2.5584    3.0492 C   0  0  0  0  0  0  0  0  0  0  0  0
   -0.9713   -3.3568    2.3633 H   0  0  0  0  0  0  0  0  0  0  0  0
   -0.5288   -0.0559   -1.0901 C   0  0  0  0  0  0  0  0  0  0  0  0
    0.1122    0.9720   -1.3138 O   0  0  0  0  0  0  0  0  0  0  0  0
   -0.8923   -0.9006   -2.0636 N   0  0  0  0  0  0  0  0  0  0  0  0
   -1.4637   -1.6914   -1.8081 H   0  0  0  0  0  0  0  0  0  0  0  0
   -0.5823   -0.7073   -3.4781 C   0  0  0  0  0  0  0  0  0  0  0  0
    0.4885   -0.5318   -3.6012 H   0  0  0  0  0  0  0  0  0  0  0  0
   -0.8701   -1.5892   -4.0510 H   0  0  0  0  0  0  0  0  0  0  0  0
   -1.1236    0.1616   -3.8573 H   0  0  0  0  0  0  0  0  0  0  0  0
  5  6  2  0  0  0  0
  5  7  1  0  0  0  0
  2  3  1  0  0  0  0
  2  4  1  0  0  0  0
  2  5  1  0  0  0  0
  1  2  1  0  0  0  0
 25 26  2  0  0  0  0
 25 27  1  0  0  0  0
 23 24  1  0  0  0  0
 21 22  1  0  0  0  0
 21 23  2  0  0  0  0
 19 20  1  0  0  0  0
 19 21  1  0  0  0  0
 17 18  1  0  0  0  0
 17 19  2  0  0  0  0
 15 16  1  0  0  0  0
 15 17  1  0  0  0  0
 14 15  2  0  0  0  0
 14 23  1  0  0  0  0
 11 12  1  0  0  0  0
 11 13  1  0  0  0  0
 11 14  1  0  0  0  0
  9 10  1  0  0  0  0
  9 11  1  0  0  0  0
  9 25  1  0  0  0  0
  7  8  1  0  0  0  0
  7  9  1  0  0  0  0
 29 30  1  0  0  0  0
 29 31  1  0  0  0  0
 29 32  1  0  0  0  0
 27 28  1  0  0  0  0
 27 29  1  0  0  0  0
M  END
$$$$
default_name
  -OEChem-01062215323D

 32 32  0     1  0  0  0  0  0999 V2000
   -3.8405   -3.7518    1.6252 H   0  0  0  0  0  0  0  0  0  0  0  0
   -3.7965   -2.8768    0.9782 C   0  0  0  0  0  0  0  0  0  0  0  0
   -4.5465   -2.1527    1.2902 H   0  0  0  0  0  0  0  0  0  0  0  0
   -3.9745   -3.1748   -0.0538 H   0  0  0  0  0  0  0  0  0  0  0  0
   -2.4245   -2.2537    1.0882 C   0  0  0  0  0  0  0  0  0  0  0  0
   -1.5805   -2.7478    1.8242 O   0  0  0  0  0  0  0  0  0  0  0  0
   -2.2045   -1.1637    0.3562 N   0  0  0  0  0  0  0  0  0  0  0  0
   -2.9595   -0.7907   -0.2008 H   0  0  0  0  0  0  0  0  0  0  0  0
   -0.9485   -0.4087    0.3482 C   0  0  1  0  0  0  0  0  0  0  0  0
   -1.1012    0.5270    0.8883 H   0  0  0  0  0  0  0  0  0  0  0  0
    0.1359   -1.2184    1.0796 C   0  0  0  0  0  0  0  0  0  0  0  0
    0.1963   -2.2131    0.6358 H   0  0  0  0  0  0  0  0  0  0  0  0
    1.1015   -0.7333    0.9290 H   0  0  0  0  0  0  0  0  0  0  0  0
   -0.1160   -1.3816    2.5665 C   0  0  0  0  0  0  0  0  0  0  0  0
    0.2148   -0.3482    3.4635 C   0  0  0  0  0  0  0  0  0  0  0  0
    0.6724    0.5608    3.0994 H   0  0  0  0  0  0  0  0  0  0  0  0
   -0.0597   -0.4904    4.8362 C   0  0  0  0  0  0  0  0  0  0  0  0
    0.1974    0.3032    5.5237 H   0  0  0  0  0  0  0  0  0  0  0  0
   -0.6667   -1.6643    5.3140 C   0  0  0  0  0  0  0  0  0  0  0  0
   -0.8755   -1.7744    6.3689 H   0  0  0  0  0  0  0  0  0  0  0  0
   -0.9972   -2.6994    4.4205 C   0  0  0  0  0  0  0  0  0  0  0  0
   -1.4588   -3.6040    4.7883 H   0  0  0  0  0  0  0  0  0  0  0  0
   -0.7197   -2.5584    3.0492 C   0  0  0  0  0  0  0  0  0  0  0  0
   -0.9713   -3.3568    2.3633 H   0  0  0  0  0  0  0  0  0  0  0  0
   -0.5288   -0.0559   -1.0901 C   0  0  0  0  0  0  0  0  0  0  0  0
    0.3314    0.8026   -1.2914 O   0  0  0  0  0  0  0  0  0  0  0  0
   -1.1362   -0.7104   -2.0881 N   0  0  0  0  0  0  0  0  0  0  0  0
   -1.8696   -1.3586   -1.8449 H   0  0  0  0  0  0  0  0  0  0  0  0
   -0.8604   -0.4875   -3.5053 C   0  0  0  0  0  0  0  0  0  0  0  0
    0.2132   -0.5647   -3.6896 H   0  0  0  0  0  0  0  0  0  0  0  0
   -1.3834   -1.2273   -4.1120 H   0  0  0  0  0  0  0  0  0  0  0  0
   -1.1920    0.5126   -3.7911 H   0  0  0  0  0  0  0  0  0  0  0  0
  5  6  2  0  0  0  0
  5  7  1  0  0  0  0
  2  3  1  0  0  0  0
  2  4  1  0  0  0  0
  2  5  1  0  0  0  0
  1  2  1  0  0  0  0
 25 26  2  0  0  0  0
 25 27  1  0  0  0  0
 23 24  1  0  0  0  0
 21 22  1  0  0  0  0
 21 23  2  0  0  0  0
 19 20  1  0  0  0  0
 19 21  1  0  0  0  0
 17 18  1  0  0  0  0
 17 19  2  0  0  0  0
 15 16  1  0  0  0  0
 15 17  1  0  0  0  0
 14 15  2  0  0  0  0
 14 23  1  0  0  0  0
 11 12  1  0  0  0  0
 11 13  1  0  0  0  0
 11 14  1  0  0  0  0
  9 10  1  0  0  0  0
  9 11  1  0  0  0  0
  9 25  1  0  0  0  0
  7  8  1  0  0  0  0
  7  9  1  0  0  0  0
 29 30  1  0  0  0  0
 29 31  1  0  0  0  0
 29 32  1  0  0  0  0
 27 28  1  0  0  0  0
 27 29  1  0  0  0  0
M  END
$$$$
default_name
  -OEChem-01062215323D

 32 32  0     1  0  0  0  0  0999 V2000
   -3.8405   -3.7518    1.6252 H   0  0  0  0  0  0  0  0  0  0  0  0
   -3.7965   -2.8768    0.9782 C   0  0  0  0  0  0  0  0  0  0  0  0
   -4.5465   -2.1527    1.2902 H   0  0  0  0  0  0  0  0  0  0  0  0
   -3.9745   -3.1748   -0.0538 H   0  0  0  0  0  0  0  0  0  0  0  0
   -2.4245   -2.2537    1.0882 C   0  0  0  0  0  0  0  0  0  0  0  0
   -1.5805   -2.7478    1.8242 O   0  0  0  0  0  0  0  0  0  0  0  0
   -2.2045   -1.1637    0.3562 N   0  0  0  0  0  0  0  0  0  0  0  0
   -2.9595   -0.7907   -0.2008 H   0  0  0  0  0  0  0  0  0  0  0  0
   -0.9485   -0.4087    0.3482 C   0  0  1  0  0  0  0  0  0  0  0  0
   -1.1012    0.5270    0.8883 H   0  0  0  0  0  0  0  0  0  0  0  0
    0.1359   -1.2184    1.0796 C   0  0  0  0  0  0  0  0  0  0  0  0
    0.1963   -2.2131    0.6358 H   0  0  0  0  0  0  0  0  0  0  0  0
    1.1015   -0.7333    0.9290 H   0  0  0  0  0  0  0  0  0  0  0  0
   -0.1160   -1.3816    2.5665 C   0  0  0  0  0  0  0  0  0  0  0  0
    0.2148   -0.3482    3.4635 C   0  0  0  0  0  0  0  0  0  0  0  0
    0.6724    0.5608    3.0994 H   0  0  0  0  0  0  0  0  0  0  0  0
   -0.0597   -0.4904    4.8362 C   0  0  0  0  0  0  0  0  0  0  0  0
    0.1974    0.3032    5.5237 H   0  0  0  0  0  0  0  0  0  0  0  0
   -0.6667   -1.6643    5.3140 C   0  0  0  0  0  0  0  0  0  0  0  0
   -0.8755   -1.7744    6.3689 H   0  0  0  0  0  0  0  0  0  0  0  0
   -0.9972   -2.6994    4.4205 C   0  0  0  0  0  0  0  0  0  0  0  0
   -1.4588   -3.6040    4.7883 H   0  0  0  0  0  0  0  0  0  0  0  0
   -0.7197   -2.5584    3.0492 C   0  0  0  0  0  0  0  0  0  0  0  0
   -0.9713   -3.3568    2.3633 H   0  0  0  0  0  0  0  0  0  0  0  0
   -0.5288   -0.0559   -1.0901 C   0  0  0  0  0  0  0  0  0  0  0  0
    0.5035    0.5843   -1.2947 O   0  0  0  0  0  0  0  0  0  0  0  0
   -1.3272   -0.4659   -2.0839 N   0  0  0  0  0  0  0  0  0  0  0  0
   -2.1834   -0.9364   -1.8328 H   0  0  0  0  0  0  0  0  0  0  0  0
   -1.0776   -0.2060   -3.4996 C   0  0  0  0  0  0  0  0  0  0  0  0
   -0.0660   -0.5237   -3.7611 H   0  0  0  0  0  0  0  0  0  0  0  0
   -1.7953   -0.7493   -4.1149 H   0  0  0  0  0  0  0  0  0  0  0  0
   -1.1691    0.8636   -3.6984 H   0  0  0  0  0  0  0  0  0  0  0  0
  5  6  2  0  0  0  0
  5  7  1  0  0  0  0
  2  3  1  0  0  0  0
  2  4  1  0  0  0  0
  2  5  1  0  0  0  0
  1  2  1  0  0  0  0
 25 26  2  0  0  0  0
 25 27  1  0  0  0  0
 23 24  1  0  0  0  0
 21 22  1  0  0  0  0
 21 23  2  0  0  0  0
 19 20  1  0  0  0  0
 19 21  1  0  0  0  0
 17 18  1  0  0  0  0
 17 19  2  0  0  0  0
 15 16  1  0  0  0  0
 15 17  1  0  0  0  0
 14 15  2  0  0  0  0
 14 23  1  0  0  0  0
 11 12  1  0  0  0  0
 11 13  1  0  0  0  0
 11 14  1  0  0  0  0
  9 10  1  0  0  0  0
  9 11  1  0  0  0  0
  9 25  1  0  0  0  0
  7  8  1  0  0  0  0
  7  9  1  0  0  0  0
 29 30  1  0  0  0  0
 29 31  1  0  0  0  0
 29 32  1  0  0  0  0
 27 28  1  0  0  0  0
 27 29  1  0  0  0  0
M  END
$$$$
default_name
  -OEChem-01062215323D

 32 32  0     1  0  0  0  0  0999 V2000
   -3.8405   -3.7518    1.6252 H   0  0  0  0  0  0  0  0  0  0  0  0
   -3.7965   -2.8768    0.9782 C   0  0  0  0  0  0  0  0  0  0  0  0
   -4.5465   -2.1527    1.2902 H   0  0  0  0  0  0  0  0  0  0  0  0
   -3.9745   -3.1748   -0.0538 H   0  0  0  0  0  0  0  0  0  0  0  0
   -2.4245   -2.2537    1.0882 C   0  0  0  0  0  0  0  0  0  0  0  0
   -1.5805   -2.7478    1.8242 O   0  0  0  0  0  0  0  0  0  0  0  0
   -2.2045   -1.1637    0.3562 N   0  0  0  0  0  0  0  0  0  0  0  0
   -2.9595   -0.7907   -0.2008 H   0  0  0  0  0  0  0  0  0  0  0  0
   -0.9485   -0.4087    0.3482 C   0  0  1  0  0  0  0  0  0  0  0  0
   -1.1012    0.5270    0.8883 H   0  0  0  0  0  0  0  0  0  0  0  0
    0.1359   -1.2184    1.0796 C   0  0  0  0  0  0  0  0  0  0  0  0
    0.1963   -2.2131    0.6358 H   0  0  0  0  0  0  0  0  0  0  0  0
    1.1015   -0.7333    0.9290 H   0  0  0  0  0  0  0  0  0  0  0  0
   -0.1160   -1.3816    2.5665 C   0  0  0  0  0  0  0  0  0  0  0  0
    0.2148   -0.3482    3.4635 C   0  0  0  0  0  0  0  0  0  0  0  0
    0.6724    0.5608    3.0994 H   0  0  0  0  0  0  0  0  0  0  0  0
   -0.0597   -0.4904    4.8362 C   0  0  0  0  0  0  0  0  0  0  0  0
    0.1974    0.3032    5.5237 H   0  0  0  0  0  0  0  0  0  0  0  0
   -0.6667   -1.6643    5.3140 C   0  0  0  0  0  0  0  0  0  0  0  0
   -0.8755   -1.7744    6.3689 H   0  0  0  0  0  0  0  0  0  0  0  0
   -0.9972   -2.6994    4.4205 C   0  0  0  0  0  0  0  0  0  0  0  0
   -1.4588   -3.6040    4.7883 H   0  0  0  0  0  0  0  0  0  0  0  0
   -0.7197   -2.5584    3.0492 C   0  0  0  0  0  0  0  0  0  0  0  0
   -0.9713   -3.3568    2.3633 H   0  0  0  0  0  0  0  0  0  0  0  0
   -0.5288   -0.0559   -1.0901 C   0  0  0  0  0  0  0  0  0  0  0  0
    0.6168    0.3321   -1.3235 O   0  0  0  0  0  0  0  0  0  0  0  0
   -1.4524   -0.1839   -2.0512 N   0  0  0  0  0  0  0  0  0  0  0  0
   -2.3836   -0.4535   -1.7728 H   0  0  0  0  0  0  0  0  0  0  0  0
   -1.2189    0.1180   -3.4614 C   0  0  0  0  0  0  0  0  0  0  0  0
   -0.3300   -0.4116   -3.8106 H   0  0  0  0  0  0  0  0  0  0  0  0
   -2.0777   -0.1878   -4.0596 H   0  0  0  0  0  0  0  0  0  0  0  0
   -1.0567    1.1905   -3.5854 H   0  0  0  0  0  0  0  0  0  0  0  0
  5  6  2  0  0  0  0
  5  7  1  0  0  0  0
  2  3  1  0  0  0  0
  2  4  1  0  0  0  0
  2  5  1  0  0  0  0
  1  2  1  0  0  0  0
 25 26  2  0  0  0  0
 25 27  1  0  0  0  0
 23 24  1  0  0  0  0
 21 22  1  0  0  0  0
 21 23  2  0  0  0  0
 19 20  1  0  0  0  0
 19 21  1  0  0  0  0
 17 18  1  0  0  0  0
 17 19  2  0  0  0  0
 15 16  1  0  0  0  0
 15 17  1  0  0  0  0
 14 15  2  0  0  0  0
 14 23  1  0  0  0  0
 11 12  1  0  0  0  0
 11 13  1  0  0  0  0
 11 14  1  0  0  0  0
  9 10  1  0  0  0  0
  9 11  1  0  0  0  0
  9 25  1  0  0  0  0
  7  8  1  0  0  0  0
  7  9  1  0  0  0  0
 29 30  1  0  0  0  0
 29 31  1  0  0  0  0
 29 32  1  0  0  0  0
 27 28  1  0  0  0  0
 27 29  1  0  0  0  0
M  END
$$$$
default_name
  -OEChem-01062215323D

 32 32  0     1  0  0  0  0  0999 V2000
   -3.8405   -3.7518    1.6252 H   0  0  0  0  0  0  0  0  0  0  0  0
   -3.7965   -2.8768    0.9782 C   0  0  0  0  0  0  0  0  0  0  0  0
   -4.5465   -2.1527    1.2902 H   0  0  0  0  0  0  0  0  0  0  0  0
   -3.9745   -3.1748   -0.0538 H   0  0  0  0  0  0  0  0  0  0  0  0
   -2.4245   -2.2537    1.0882 C   0  0  0  0  0  0  0  0  0  0  0  0
   -1.5805   -2.7478    1.8242 O   0  0  0  0  0  0  0  0  0  0  0  0
   -2.2045   -1.1637    0.3562 N   0  0  0  0  0  0  0  0  0  0  0  0
   -2.9595   -0.7907   -0.2008 H   0  0  0  0  0  0  0  0  0  0  0  0
   -0.9485   -0.4087    0.3482 C   0  0  1  0  0  0  0  0  0  0  0  0
   -1.1012    0.5270    0.8883 H   0  0  0  0  0  0  0  0  0  0  0  0
    0.1359   -1.2184    1.0796 C   0  0  0  0  0  0  0  0  0  0  0  0
    0.1963   -2.2131    0.6358 H   0  0  0  0  0  0  0  0  0  0  0  0
    1.1015   -0.7333    0.9290 H   0  0  0  0  0  0  0  0  0  0  0  0
   -0.1160   -1.3816    2.5665 C   0  0  0  0  0  0  0  0  0  0  0  0
    0.2148   -0.3482    3.4635 C   0  0  0  0  0  0  0  0  0  0  0  0
    0.6724    0.5608    3.0994 H   0  0  0  0  0  0  0  0  0  0  0  0
   -0.0597   -0.4904    4.8362 C   0  0  0  0  0  0  0  0  0  0  0  0
    0.1974    0.3032    5.5237 H   0  0  0  0  0  0  0  0  0  0  0  0
   -0.6667   -1.6643    5.3140 C   0  0  0  0  0  0  0  0  0  0  0  0
   -0.8755   -1.7744    6.3689 H   0  0  0  0  0  0  0  0  0  0  0  0
   -0.9972   -2.6994    4.4205 C   0  0  0  0  0  0  0  0  0  0  0  0
   -1.4588   -3.6040    4.7883 H   0  0  0  0  0  0  0  0  0  0  0  0
   -0.7197   -2.5584    3.0492 C   0  0  0  0  0  0  0  0  0  0  0  0
   -0.9713   -3.3568    2.3633 H   0  0  0  0  0  0  0  0  0  0  0  0
   -0.5288   -0.0559   -1.0901 C   0  0  0  0  0  0  0  0  0  0  0  0
    0.6635    0.0632   -1.3759 O   0  0  0  0  0  0  0  0  0  0  0  0
   -1.5032    0.1165   -1.9923 N   0  0  0  0  0  0  0  0  0  0  0  0
   -2.4567    0.0571   -1.6689 H   0  0  0  0  0  0  0  0  0  0  0  0
   -1.2748    0.4625   -3.3932 C   0  0  0  0  0  0  0  0  0  0  0  0
   -0.5608   -0.2359   -3.8348 H   0  0  0  0  0  0  0  0  0  0  0  0
   -2.2114    0.4190   -3.9497 H   0  0  0  0  0  0  0  0  0  0  0  0
   -0.8623    1.4711   -3.4598 H   0  0  0  0  0  0  0  0  0  0  0  0
  5  6  2  0  0  0  0
  5  7  1  0  0  0  0
  2  3  1  0  0  0  0
  2  4  1  0  0  0  0
  2  5  1  0  0  0  0
  1  2  1  0  0  0  0
 25 26  2  0  0  0  0
 25 27  1  0  0  0  0
 23 24  1  0  0  0  0
 21 22  1  0  0  0  0
 21 23  2  0  0  0  0
 19 20  1  0  0  0  0
 19 21  1  0  0  0  0
 17 18  1  0  0  0  0
 17 19  2  0  0  0  0
 15 16  1  0  0  0  0
 15 17  1  0  0  0  0
 14 15  2  0  0  0  0
 14 23  1  0  0  0  0
 11 12  1  0  0  0  0
 11 13  1  0  0  0  0
 11 14  1  0  0  0  0
  9 10  1  0  0  0  0
  9 11  1  0  0  0  0
  9 25  1  0  0  0  0
  7  8  1  0  0  0  0
  7  9  1  0  0  0  0
 29 30  1  0  0  0  0
 29 31  1  0  0  0  0
 29 32  1  0  0  0  0
 27 28  1  0  0  0  0
 27 29  1  0  0  0  0
M  END
$$$$
default_name
  -OEChem-01062215323D

 32 32  0     1  0  0  0  0  0999 V2000
   -3.8405   -3.7518    1.6252 H   0  0  0  0  0  0  0  0  0  0  0  0
   -3.7965   -2.8768    0.9782 C   0  0  0  0  0  0  0  0  0  0  0  0
   -4.5465   -2.1527    1.2902 H   0  0  0  0  0  0  0  0  0  0  0  0
   -3.9745   -3.1748   -0.0538 H   0  0  0  0  0  0  0  0  0  0  0  0
   -2.4245   -2.2537    1.0882 C   0  0  0  0  0  0  0  0  0  0  0  0
   -1.5805   -2.7478    1.8242 O   0  0  0  0  0  0  0  0  0  0  0  0
   -2.2045   -1.1637    0.3562 N   0  0  0  0  0  0  0  0  0  0  0  0
   -2.9595   -0.7907   -0.2008 H   0  0  0  0  0  0  0  0  0  0  0  0
   -0.9485   -0.4087    0.3482 C   0  0  1  0  0  0  0  0  0  0  0  0
   -1.1012    0.5270    0.8883 H   0  0  0  0  0  0  0  0  0  0  0  0
    0.1359   -1.2184    1.0796 C   0  0  0  0  0  0  0  0  0  0  0  0
    0.1963   -2.2131    0.6358 H   0  0  0  0  0  0  0  0  0  0  0  0
    1.1015   -0.7333    0.9290 H   0  0  0  0  0  0  0  0  0  0  0  0
   -0.1160   -1.3816    2.5665 C   0  0  0  0  0  0  0  0  0  0  0  0
    0.2148   -0.3482    3.4635 C   0  0  0  0  0  0  0  0  0  0  0  0
    0.6724    0.5608    3.0994 H   0  0  0  0  0  0  0  0  0  0  0  0
   -0.0597   -0.4904    4.8362 C   0  0  0  0  0  0  0  0  0  0  0  0
    0.1974    0.3032    5.5237 H   0  0  0  0  0  0  0  0  0  0  0  0
   -0.6667   -1.6643    5.3140 C   0  0  0  0  0  0  0  0  0  0  0  0
   -0.8755   -1.7744    6.3689 H   0  0  0  0  0  0  0  0  0  0  0  0
   -0.9972   -2.6994    4.4205 C   0  0  0  0  0  0  0  0  0  0  0  0
   -1.4588   -3.6040    4.7883 H   0  0  0  0  0  0  0  0  0  0  0  0
   -0.7197   -2.5584    3.0492 C   0  0  0  0  0  0  0  0  0  0  0  0
   -0.9713   -3.3568    2.3633 H   0  0  0  0  0  0  0  0  0  0  0  0
   -0.5288   -0.0559   -1.0901 C   0  0  0  0  0  0  0  0  0  0  0  0
    0.6405   -0.2043   -1.4482 O   0  0  0  0  0  0  0  0  0  0  0  0
   -1.4761    0.4147   -1.9113 N   0  0  0  0  0  0  0  0  0  0  0  0
   -2.3976    0.5607   -1.5281 H   0  0  0  0  0  0  0  0  0  0  0  0
   -1.2414    0.8039   -3.2997 C   0  0  0  0  0  0  0  0  0  0  0  0
   -0.7427   -0.0087   -3.8322 H   0  0  0  0  0  0  0  0  0  0  0  0
   -2.1873    1.0296   -3.7929 H   0  0  0  0  0  0  0  0  0  0  0  0
   -0.5993    1.6863   -3.3303 H   0  0  0  0  0  0  0  0  0  0  0  0
  5  6  2  0  0  0  0
  5  7  1  0  0  0  0
  2  3  1  0  0  0  0
  2  4  1  0  0  0  0
  2  5  1  0  0  0  0
  1  2  1  0  0  0  0
 25 26  2  0  0  0  0
 25 27  1  0  0  0  0
 23 24  1  0  0  0  0
 21 22  1  0  0  0  0
 21 23  2  0  0  0  0
 19 20  1  0  0  0  0
 19 21  1  0  0  0  0
 17 18  1  0  0  0  0
 17 19  2  0  0  0  0
 15 16  1  0  0  0  0
 15 17  1  0  0  0  0
 14 15  2  0  0  0  0
 14 23  1  0  0  0  0
 11 12  1  0  0  0  0
 11 13  1  0  0  0  0
 11 14  1  0  0  0  0
  9 10  1  0  0  0  0
  9 11  1  0  0  0  0
  9 25  1  0  0  0  0
  7  8  1  0  0  0  0
  7  9  1  0  0  0  0
 29 30  1  0  0  0  0
 29 31  1  0  0  0  0
 29 32  1  0  0  0  0
 27 28  1  0  0  0  0
 27 29  1  0  0  0  0
M  END
$$$$
default_name
  -OEChem-01062215323D

 32 32  0     1  0  0  0  0  0999 V2000
   -3.8405   -3.7518    1.6252 H   0  0  0  0  0  0  0  0  0  0  0  0
   -3.7965   -2.8768    0.9782 C   0  0  0  0  0  0  0  0  0  0  0  0
   -4.5465   -2.1527    1.2902 H   0  0  0  0  0  0  0  0  0  0  0  0
   -3.9745   -3.1748   -0.0538 H   0  0  0  0  0  0  0  0  0  0  0  0
   -2.4245   -2.2537    1.0882 C   0  0  0  0  0  0  0  0  0  0  0  0
   -1.5805   -2.7478    1.8242 O   0  0  0  0  0  0  0  0  0  0  0  0
   -2.2045   -1.1637    0.3562 N   0  0  0  0  0  0  0  0  0  0  0  0
   -2.9595   -0.7907   -0.2008 H   0  0  0  0  0  0  0  0  0  0  0  0
   -0.9485   -0.4087    0.3482 C   0  0  1  0  0  0  0  0  0  0  0  0
   -1.1012    0.5270    0.8883 H   0  0  0  0  0  0  0  0  0  0  0  0
    0.1359   -1.2184    1.0796 C   0  0  0  0  0  0  0  0  0  0  0  0
    0.1963   -2.2131    0.6358 H   0  0  0  0  0  0  0  0  0  0  0  0
    1.1015   -0.7333    0.9290 H   0  0  0  0  0  0  0  0  0  0  0  0
   -0.1160   -1.3816    2.5665 C   0  0  0  0  0  0  0  0  0  0  0  0
    0.2148   -0.3482    3.4635 C   0  0  0  0  0  0  0  0  0  0  0  0
    0.6724    0.5608    3.0994 H   0  0  0  0  0  0  0  0  0  0  0  0
   -0.0597   -0.4904    4.8362 C   0  0  0  0  0  0  0  0  0  0  0  0
    0.1974    0.3032    5.5237 H   0  0  0  0  0  0  0  0  0  0  0  0
   -0.6667   -1.6643    5.3140 C   0  0  0  0  0  0  0  0  0  0  0  0
   -0.8755   -1.7744    6.3689 H   0  0  0  0  0  0  0  0  0  0  0  0
   -0.9972   -2.6994    4.4205 C   0  0  0  0  0  0  0  0  0  0  0  0
   -1.4588   -3.6040    4.7883 H   0  0  0  0  0  0  0  0  0  0  0  0
   -0.7197   -2.5584    3.0492 C   0  0  0  0  0  0  0  0  0  0  0  0
   -0.9713   -3.3568    2.3633 H   0  0  0  0  0  0  0  0  0  0  0  0
   -0.5288   -0.0559   -1.0901 C   0  0  0  0  0  0  0  0  0  0  0  0
    0.5493   -0.4519   -1.5355 O   0  0  0  0  0  0  0  0  0  0  0  0
   -1.3729    0.6905   -1.8135 N   0  0  0  0  0  0  0  0  0  0  0  0
   -2.2104    1.0228   -1.3601 H   0  0  0  0  0  0  0  0  0  0  0  0
   -1.1211    1.1190   -3.1873 C   0  0  0  0  0  0  0  0  0  0  0  0
   -0.8633    0.2546   -3.8028 H   0  0  0  0  0  0  0  0  0  0  0  0
   -2.0070    1.6026   -3.5997 H   0  0  0  0  0  0  0  0  0  0  0  0
   -0.2854    1.8213   -3.2056 H   0  0  0  0  0  0  0  0  0  0  0  0
  5  6  2  0  0  0  0
  5  7  1  0  0  0  0
  2  3  1  0  0  0  0
  2  4  1  0  0  0  0
  2  5  1  0  0  0  0
  1  2  1  0  0  0  0
 25 26  2  0  0  0  0
 25 27  1  0  0  0  0
 23 24  1  0  0  0  0
 21 22  1  0  0  0  0
 21 23  2  0  0  0  0
 19 20  1  0  0  0  0
 19 21  1  0  0  0  0
 17 18  1  0  0  0  0
 17 19  2  0  0  0  0
 15 16  1  0  0  0  0
 15 17  1  0  0  0  0
 14 15  2  0  0  0  0
 14 23  1  0  0  0  0
 11 12  1  0  0  0  0
 11 13  1  0  0  0  0
 11 14  1  0  0  0  0
  9 10  1  0  0  0  0
  9 11  1  0  0  0  0
  9 25  1  0  0  0  0
  7  8  1  0  0  0  0
  7  9  1  0  0  0  0
 29 30  1  0  0  0  0
 29 31  1  0  0  0  0
 29 32  1  0  0  0  0
 27 28  1  0  0  0  0
 27 29  1  0  0  0  0
M  END
$$$$
default_name
  -OEChem-01062215323D

 32 32  0     1  0  0  0  0  0999 V2000
   -3.8405   -3.7518    1.6252 H   0  0  0  0  0  0  0  0  0  0  0  0
   -3.7965   -2.8768    0.9782 C   0  0  0  0  0  0  0  0  0  0  0  0
   -4.5465   -2.1527    1.2902 H   0  0  0  0  0  0  0  0  0  0  0  0
   -3.9745   -3.1748   -0.0538 H   0  0  0  0  0  0  0  0  0  0  0  0
   -2.4245   -2.2537    1.0882 C   0  0  0  0  0  0  0  0  0  0  0  0
   -1.5805   -2.7478    1.8242 O   0  0  0  0  0  0  0  0  0  0  0  0
   -2.2045   -1.1637    0.3562 N   0  0  0  0  0  0  0  0  0  0  0  0
   -2.9595   -0.7907   -0.2008 H   0  0  0  0  0  0  0  0  0  0  0  0
   -0.9485   -0.4087    0.3482 C   0  0  1  0  0  0  0  0  0  0  0  0
   -1.1012    0.5270    0.8883 H   0  0  0  0  0  0  0  0  0  0  0  0
    0.1359   -1.2184    1.0796 C   0  0  0  0  0  0  0  0  0  0  0  0
    0.1963   -2.2131    0.6358 H   0  0  0  0  0  0  0  0  0  0  0  0
    1.1015   -0.7333    0.9290 H   0  0  0  0  0  0  0  0  0  0  0  0
   -0.1160   -1.3816    2.5665 C   0  0  0  0  0  0  0  0  0  0  0  0
    0.2148   -0.3482    3.4635 C   0  0  0  0  0  0  0  0  0  0  0  0
    0.6724    0.5608    3.0994 H   0  0  0  0  0  0  0  0  0  0  0  0
   -0.0597   -0.4904    4.8362 C   0  0  0  0  0  0  0  0  0  0  0  0
    0.1974    0.3032    5.5237 H   0  0  0  0  0  0  0  0  0  0  0  0
   -0.6667   -1.6643    5.3140 C   0  0  0  0  0  0  0  0  0  0  0  0
   -0.8755   -1.7744    6.3689 H   0  0  0  0  0  0  0  0  0  0  0  0
   -0.9972   -2.6994    4.4205 C   0  0  0  0  0  0  0  0  0  0  0  0
   -1.4588   -3.6040    4.7883 H   0  0  0  0  0  0  0  0  0  0  0  0
   -0.7197   -2.5584    3.0492 C   0  0  0  0  0  0  0  0  0  0  0  0
   -0.9713   -3.3568    2.3633 H   0  0  0  0  0  0  0  0  0  0  0  0
   -0.5288   -0.0559   -1.0901 C   0  0  0  0  0  0  0  0  0  0  0  0
    0.3961   -0.6628   -1.6320 O   0  0  0  0  0  0  0  0  0  0  0  0
   -1.2008    0.9251   -1.7058 N   0  0  0  0  0  0  0  0  0  0  0  0
   -1.9078    1.4121   -1.1763 H   0  0  0  0  0  0  0  0  0  0  0  0
   -0.9219    1.3864   -3.0636 C   0  0  0  0  0  0  0  0  0  0  0  0
   -0.9144    0.5360   -3.7487 H   0  0  0  0  0  0  0  0  0  0  0  0
   -1.6828    2.0988   -3.3834 H   0  0  0  0  0  0  0  0  0  0  0  0
    0.0577    1.8671   -3.0942 H   0  0  0  0  0  0  0  0  0  0  0  0
  5  6  2  0  0  0  0
  5  7  1  0  0  0  0
  2  3  1  0  0  0  0
  2  4  1  0  0  0  0
  2  5  1  0  0  0  0
  1  2  1  0  0  0  0
 25 26  2  0  0  0  0
 25 27  1  0  0  0  0
 23 24  1  0  0  0  0
 21 22  1  0  0  0  0
 21 23  2  0  0  0  0
 19 20  1  0  0  0  0
 19 21  1  0  0  0  0
 17 18  1  0  0  0  0
 17 19  2  0  0  0  0
 15 16  1  0  0  0  0
 15 17  1  0  0  0  0
 14 15  2  0  0  0  0
 14 23  1  0  0  0  0
 11 12  1  0  0  0  0
 11 13  1  0  0  0  0
 11 14  1  0  0  0  0
  9 10  1  0  0  0  0
  9 11  1  0  0  0  0
  9 25  1  0  0  0  0
  7  8  1  0  0  0  0
  7  9  1  0  0  0  0
 29 30  1  0  0  0  0
 29 31  1  0  0  0  0
 29 32  1  0  0  0  0
 27 28  1  0  0  0  0
 27 29  1  0  0  0  0
M  END
$$$$
default_name
  -OEChem-01062215323D

 32 32  0     1  0  0  0  0  0999 V2000
   -3.8405   -3.7518    1.6252 H   0  0  0  0  0  0  0  0  0  0  0  0
   -3.7965   -2.8768    0.9782 C   0  0  0  0  0  0  0  0  0  0  0  0
   -4.5465   -2.1527    1.2902 H   0  0  0  0  0  0  0  0  0  0  0  0
   -3.9745   -3.1748   -0.0538 H   0  0  0  0  0  0  0  0  0  0  0  0
   -2.4245   -2.2537    1.0882 C   0  0  0  0  0  0  0  0  0  0  0  0
   -1.5805   -2.7478    1.8242 O   0  0  0  0  0  0  0  0  0  0  0  0
   -2.2045   -1.1637    0.3562 N   0  0  0  0  0  0  0  0  0  0  0  0
   -2.9595   -0.7907   -0.2008 H   0  0  0  0  0  0  0  0  0  0  0  0
   -0.9485   -0.4087    0.3482 C   0  0  1  0  0  0  0  0  0  0  0  0
   -1.1012    0.5270    0.8883 H   0  0  0  0  0  0  0  0  0  0  0  0
    0.1359   -1.2184    1.0796 C   0  0  0  0  0  0  0  0  0  0  0  0
    0.1963   -2.2131    0.6358 H   0  0  0  0  0  0  0  0  0  0  0  0
    1.1015   -0.7333    0.9290 H   0  0  0  0  0  0  0  0  0  0  0  0
   -0.1160   -1.3816    2.5665 C   0  0  0  0  0  0  0  0  0  0  0  0
    0.2148   -0.3482    3.4635 C   0  0  0  0  0  0  0  0  0  0  0  0
    0.6724    0.5608    3.0994 H   0  0  0  0  0  0  0  0  0  0  0  0
   -0.0597   -0.4904    4.8362 C   0  0  0  0  0  0  0  0  0  0  0  0
    0.1974    0.3032    5.5237 H   0  0  0  0  0  0  0  0  0  0  0  0
   -0.6667   -1.6643    5.3140 C   0  0  0  0  0  0  0  0  0  0  0  0
   -0.8755   -1.7744    6.3689 H   0  0  0  0  0  0  0  0  0  0  0  0
   -0.9972   -2.6994    4.4205 C   0  0  0  0  0  0  0  0  0  0  0  0
   -1.4588   -3.6040    4.7883 H   0  0  0  0  0  0  0  0  0  0  0  0
   -0.7197   -2.5584    3.0492 C   0  0  0  0  0  0  0  0  0  0  0  0
   -0.9713   -3.3568    2.3633 H   0  0  0  0  0  0  0  0  0  0  0  0
   -0.5288   -0.0559   -1.0901 C   0  0  0  0  0  0  0  0  0  0  0  0
    0.1915   -0.8228   -1.7309 O   0  0  0  0  0  0  0  0  0  0  0  0
   -0.9715    1.1025   -1.5953 N   0  0  0  0  0  0  0  0  0  0  0  0
   -1.5105    1.7020   -0.9893 H   0  0  0  0  0  0  0  0  0  0  0  0
   -0.6576    1.5877   -2.9371 C   0  0  0  0  0  0  0  0  0  0  0  0
   -0.8924    0.8163   -3.6735 H   0  0  0  0  0  0  0  0  0  0  0  0
   -1.2369    2.4845   -3.1587 H   0  0  0  0  0  0  0  0  0  0  0  0
    0.4069    1.8205   -3.0037 H   0  0  0  0  0  0  0  0  0  0  0  0
  5  6  2  0  0  0  0
  5  7  1  0  0  0  0
  2  3  1  0  0  0  0
  2  4  1  0  0  0  0
  2  5  1  0  0  0  0
  1  2  1  0  0  0  0
 25 26  2  0  0  0  0
 25 27  1  0  0  0  0
 23 24  1  0  0  0  0
 21 22  1  0  0  0  0
 21 23  2  0  0  0  0
 19 20  1  0  0  0  0
 19 21  1  0  0  0  0
 17 18  1  0  0  0  0
 17 19  2  0  0  0  0
 15 16  1  0  0  0  0
 15 17  1  0  0  0  0
 14 15  2  0  0  0  0
 14 23  1  0  0  0  0
 11 12  1  0  0  0  0
 11 13  1  0  0  0  0
 11 14  1  0  0  0  0
  9 10  1  0  0  0  0
  9 11  1  0  0  0  0
  9 25  1  0  0  0  0
  7  8  1  0  0  0  0
  7  9  1  0  0  0  0
 29 30  1  0  0  0  0
 29 31  1  0  0  0  0
 29 32  1  0  0  0  0
 27 28  1  0  0  0  0
 27 29  1  0  0  0  0
M  END
$$$$
default_name
  -OEChem-01062215323D

 32 32  0     1  0  0  0  0  0999 V2000
   -3.8405   -3.7518    1.6252 H   0  0  0  0  0  0  0  0  0  0  0  0
   -3.7965   -2.8768    0.9782 C   0  0  0  0  0  0  0  0  0  0  0  0
   -4.5465   -2.1527    1.2902 H   0  0  0  0  0  0  0  0  0  0  0  0
   -3.9745   -3.1748   -0.0538 H   0  0  0  0  0  0  0  0  0  0  0  0
   -2.4245   -2.2537    1.0882 C   0  0  0  0  0  0  0  0  0  0  0  0
   -1.5805   -2.7478    1.8242 O   0  0  0  0  0  0  0  0  0  0  0  0
   -2.2045   -1.1637    0.3562 N   0  0  0  0  0  0  0  0  0  0  0  0
   -2.9595   -0.7907   -0.2008 H   0  0  0  0  0  0  0  0  0  0  0  0
   -0.9485   -0.4087    0.3482 C   0  0  1  0  0  0  0  0  0  0  0  0
   -1.1012    0.5270    0.8883 H   0  0  0  0  0  0  0  0  0  0  0  0
    0.1359   -1.2184    1.0796 C   0  0  0  0  0  0  0  0  0  0  0  0
    0.1963   -2.2131    0.6358 H   0  0  0  0  0  0  0  0  0  0  0  0
    1.1015   -0.7333    0.9290 H   0  0  0  0  0  0  0  0  0  0  0  0
   -0.1160   -1.3816    2.5665 C   0  0  0  0  0  0  0  0  0  0  0  0
    0.2148   -0.3482    3.4635 C   0  0  0  0  0  0  0  0  0  0  0  0
    0.6724    0.5608    3.0994 H   0  0  0  0  0  0  0  0  0  0  0  0
   -0.0597   -0.4904    4.8362 C   0  0  0  0  0  0  0  0  0  0  0  0
    0.1974    0.3032    5.5237 H   0  0  0  0  0  0  0  0  0  0  0  0
   -0.6667   -1.6643    5.3140 C   0  0  0  0  0  0  0  0  0  0  0  0
   -0.8755   -1.7744    6.3689 H   0  0  0  0  0  0  0  0  0  0  0  0
   -0.9972   -2.6994    4.4205 C   0  0  0  0  0  0  0  0  0  0  0  0
   -1.4588   -3.6040    4.7883 H   0  0  0  0  0  0  0  0  0  0  0  0
   -0.7197   -2.5584    3.0492 C   0  0  0  0  0  0  0  0  0  0  0  0
   -0.9713   -3.3568    2.3633 H   0  0  0  0  0  0  0  0  0  0  0  0
   -0.5288   -0.0559   -1.0901 C   0  0  0  0  0  0  0  0  0  0  0  0
   -0.0508   -0.9208   -1.8257 O   0  0  0  0  0  0  0  0  0  0  0  0
   -0.7005    1.2105   -1.4897 N   0  0  0  0  0  0  0  0  0  0  0  0
   -1.0456    1.8728   -0.8117 H   0  0  0  0  0  0  0  0  0  0  0  0
   -0.3461    1.7094   -2.8163 C   0  0  0  0  0  0  0  0  0  0  0  0
   -0.7990    1.0765   -3.5824 H   0  0  0  0  0  0  0  0  0  0  0  0
   -0.6995    2.7333   -2.9408 H   0  0  0  0  0  0  0  0  0  0  0  0
    0.7383    1.6846   -2.9404 H   0  0  0  0  0  0  0  0  0  0  0  0
  5  6  2  0  0  0  0
  5  7  1  0  0  0  0
  2  3  1  0  0  0  0
  2  4  1  0  0  0  0
  2  5  1  0  0  0  0
  1  2  1  0  0  0  0
 25 26  2  0  0  0  0
 25 27  1  0  0  0  0
 23 24  1  0  0  0  0
 21 22  1  0  0  0  0
 21 23  2  0  0  0  0
 19 20  1  0  0  0  0
 19 21  1  0  0  0  0
 17 18  1  0  0  0  0
 17 19  2  0  0  0  0
 15 16  1  0  0  0  0
 15 17  1  0  0  0  0
 14 15  2  0  0  0  0
 14 23  1  0  0  0  0
 11 12  1  0  0  0  0
 11 13  1  0  0  0  0
 11 14  1  0  0  0  0
  9 10  1  0  0  0  0
  9 11  1  0  0  0  0
  9 25  1  0  0  0  0
  7  8  1  0  0  0  0
  7  9  1  0  0  0  0
 29 30  1  0  0  0  0
 29 31  1  0  0  0  0
 29 32  1  0  0  0  0
 27 28  1  0  0  0  0
 27 29  1  0  0  0  0
M  END
$$$$
default_name
  -OEChem-01062215323D

 32 32  0     1  0  0  0  0  0999 V2000
   -3.8405   -3.7518    1.6252 H   0  0  0  0  0  0  0  0  0  0  0  0
   -3.7965   -2.8768    0.9782 C   0  0  0  0  0  0  0  0  0  0  0  0
   -4.5465   -2.1527    1.2902 H   0  0  0  0  0  0  0  0  0  0  0  0
   -3.9745   -3.1748   -0.0538 H   0  0  0  0  0  0  0  0  0  0  0  0
   -2.4245   -2.2537    1.0882 C   0  0  0  0  0  0  0  0  0  0  0  0
   -1.5805   -2.7478    1.8242 O   0  0  0  0  0  0  0  0  0  0  0  0
   -2.2045   -1.1637    0.3562 N   0  0  0  0  0  0  0  0  0  0  0  0
   -2.9595   -0.7907   -0.2008 H   0  0  0  0  0  0  0  0  0  0  0  0
   -0.9485   -0.4087    0.3482 C   0  0  1  0  0  0  0  0  0  0  0  0
   -1.1012    0.5270    0.8883 H   0  0  0  0  0  0  0  0  0  0  0  0
    0.1359   -1.2184    1.0796 C   0  0  0  0  0  0  0  0  0  0  0  0
    0.1963   -2.2131    0.6358 H   0  0  0  0  0  0  0  0  0  0  0  0
    1.1015   -0.7333    0.9290 H   0  0  0  0  0  0  0  0  0  0  0  0
   -0.1160   -1.3816    2.5665 C   0  0  0  0  0  0  0  0  0  0  0  0
    0.2148   -0.3482    3.4635 C   0  0  0  0  0  0  0  0  0  0  0  0
    0.6724    0.5608    3.0994 H   0  0  0  0  0  0  0  0  0  0  0  0
   -0.0597   -0.4904    4.8362 C   0  0  0  0  0  0  0  0  0  0  0  0
    0.1974    0.3032    5.5237 H   0  0  0  0  0  0  0  0  0  0  0  0
   -0.6667   -1.6643    5.3140 C   0  0  0  0  0  0  0  0  0  0  0  0
   -0.8755   -1.7744    6.3689 H   0  0  0  0  0  0  0  0  0  0  0  0
   -0.9972   -2.6994    4.4205 C   0  0  0  0  0  0  0  0  0  0  0  0
   -1.4588   -3.6040    4.7883 H   0  0  0  0  0  0  0  0  0  0  0  0
   -0.7197   -2.5584    3.0492 C   0  0  0  0  0  0  0  0  0  0  0  0
   -0.9713   -3.3568    2.3633 H   0  0  0  0  0  0  0  0  0  0  0  0
   -0.5288   -0.0559   -1.0901 C   0  0  0  0  0  0  0  0  0  0  0  0
   -0.3141   -0.9501   -1.9097 O   0  0  0  0  0  0  0  0  0  0  0  0
   -0.4063    1.2419   -1.3962 N   0  0  0  0  0  0  0  0  0  0  0  0
   -0.5446    1.9127   -0.6558 H   0  0  0  0  0  0  0  0  0  0  0  0
   -0.0086    1.7430   -2.7096 C   0  0  0  0  0  0  0  0  0  0  0  0
   -0.6404    1.2988   -3.4816 H   0  0  0  0  0  0  0  0  0  0  0  0
   -0.1074    2.8283   -2.7448 H   0  0  0  0  0  0  0  0  0  0  0  0
    1.0293    1.4688   -2.9084 H   0  0  0  0  0  0  0  0  0  0  0  0
  5  6  2  0  0  0  0
  5  7  1  0  0  0  0
  2  3  1  0  0  0  0
  2  4  1  0  0  0  0
  2  5  1  0  0  0  0
  1  2  1  0  0  0  0
 25 26  2  0  0  0  0
 25 27  1  0  0  0  0
 23 24  1  0  0  0  0
 21 22  1  0  0  0  0
 21 23  2  0  0  0  0
 19 20  1  0  0  0  0
 19 21  1  0  0  0  0
 17 18  1  0  0  0  0
 17 19  2  0  0  0  0
 15 16  1  0  0  0  0
 15 17  1  0  0  0  0
 14 15  2  0  0  0  0
 14 23  1  0  0  0  0
 11 12  1  0  0  0  0
 11 13  1  0  0  0  0
 11 14  1  0  0  0  0
  9 10  1  0  0  0  0
  9 11  1  0  0  0  0
  9 25  1  0  0  0  0
  7  8  1  0  0  0  0
  7  9  1  0  0  0  0
 29 30  1  0  0  0  0
 29 31  1  0  0  0  0
 29 32  1  0  0  0  0
 27 28  1  0  0  0  0
 27 29  1  0  0  0  0
M  END
$$$$
default_name
  -OEChem-01062215323D

 32 32  0     1  0  0  0  0  0999 V2000
   -3.8405   -3.7518    1.6252 H   0  0  0  0  0  0  0  0  0  0  0  0
   -3.7965   -2.8768    0.9782 C   0  0  0  0  0  0  0  0  0  0  0  0
   -4.5465   -2.1527    1.2902 H   0  0  0  0  0  0  0  0  0  0  0  0
   -3.9745   -3.1748   -0.0538 H   0  0  0  0  0  0  0  0  0  0  0  0
   -2.4245   -2.2537    1.0882 C   0  0  0  0  0  0  0  0  0  0  0  0
   -1.5805   -2.7478    1.8242 O   0  0  0  0  0  0  0  0  0  0  0  0
   -2.2045   -1.1637    0.3562 N   0  0  0  0  0  0  0  0  0  0  0  0
   -2.9595   -0.7907   -0.2008 H   0  0  0  0  0  0  0  0  0  0  0  0
   -0.9485   -0.4087    0.3482 C   0  0  1  0  0  0  0  0  0  0  0  0
   -1.1012    0.5270    0.8883 H   0  0  0  0  0  0  0  0  0  0  0  0
    0.1359   -1.2184    1.0796 C   0  0  0  0  0  0  0  0  0  0  0  0
    0.1963   -2.2131    0.6358 H   0  0  0  0  0  0  0  0  0  0  0  0
    1.1015   -0.7333    0.9290 H   0  0  0  0  0  0  0  0  0  0  0  0
   -0.1160   -1.3816    2.5665 C   0  0  0  0  0  0  0  0  0  0  0  0
    0.2148   -0.3482    3.4635 C   0  0  0  0  0  0  0  0  0  0  0  0
    0.6724    0.5608    3.0994 H   0  0  0  0  0  0  0  0  0  0  0  0
   -0.0597   -0.4904    4.8362 C   0  0  0  0  0  0  0  0  0  0  0  0
    0.1974    0.3032    5.5237 H   0  0  0  0  0  0  0  0  0  0  0  0
   -0.6667   -1.6643    5.3140 C   0  0  0  0  0  0  0  0  0  0  0  0
   -0.8755   -1.7744    6.3689 H   0  0  0  0  0  0  0  0  0  0  0  0
   -0.9972   -2.6994    4.4205 C   0  0  0  0  0  0  0  0  0  0  0  0
   -1.4588   -3.6040    4.7883 H   0  0  0  0  0  0  0  0  0  0  0  0
   -0.7197   -2.5584    3.0492 C   0  0  0  0  0  0  0  0  0  0  0  0
   -0.9713   -3.3568    2.3633 H   0  0  0  0  0  0  0  0  0  0  0  0
   -0.5288   -0.0559   -1.0901 C   0  0  0  0  0  0  0  0  0  0  0  0
   -0.5806   -0.9089   -1.9774 O   0  0  0  0  0  0  0  0  0  0  0  0
   -0.1090    1.1945   -1.3211 N   0  0  0  0  0  0  0  0  0  0  0  0
   -0.0418    1.8191   -0.5320 H   0  0  0  0  0  0  0  0  0  0  0  0
    0.3319    1.6863   -2.6241 C   0  0  0  0  0  0  0  0  0  0  0  0
   -0.4275    1.4681   -3.3779 H   0  0  0  0  0  0  0  0  0  0  0  0
    0.4992    2.7630   -2.5838 H   0  0  0  0  0  0  0  0  0  0  0  0
    1.2600    1.1877   -2.9100 H   0  0  0  0  0  0  0  0  0  0  0  0
  5  6  2  0  0  0  0
  5  7  1  0  0  0  0
  2  3  1  0  0  0  0
  2  4  1  0  0  0  0
  2  5  1  0  0  0  0
  1  2  1  0  0  0  0
 25 26  2  0  0  0  0
 25 27  1  0  0  0  0
 23 24  1  0  0  0  0
 21 22  1  0  0  0  0
 21 23  2  0  0  0  0
 19 20  1  0  0  0  0
 19 21  1  0  0  0  0
 17 18  1  0  0  0  0
 17 19  2  0  0  0  0
 15 16  1  0  0  0  0
 15 17  1  0  0  0  0
 14 15  2  0  0  0  0
 14 23  1  0  0  0  0
 11 12  1  0  0  0  0
 11 13  1  0  0  0  0
 11 14  1  0  0  0  0
  9 10  1  0  0  0  0
  9 11  1  0  0  0  0
  9 25  1  0  0  0  0
  7  8  1  0  0  0  0
  7  9  1  0  0  0  0
 29 30  1  0  0  0  0
 29 31  1  0  0  0  0
 29 32  1  0  0  0  0
 27 28  1  0  0  0  0
 27 29  1  0  0  0  0
M  END
$$$$
default_name
  -OEChem-01062215323D

 32 32  0     1  0  0  0  0  0999 V2000
   -3.8405   -3.7518    1.6252 H   0  0  0  0  0  0  0  0  0  0  0  0
   -3.7965   -2.8768    0.9782 C   0  0  0  0  0  0  0  0  0  0  0  0
   -4.5465   -2.1527    1.2902 H   0  0  0  0  0  0  0  0  0  0  0  0
   -3.9745   -3.1748   -0.0538 H   0  0  0  0  0  0  0  0  0  0  0  0
   -2.4245   -2.2537    1.0882 C   0  0  0  0  0  0  0  0  0  0  0  0
   -1.5805   -2.7478    1.8242 O   0  0  0  0  0  0  0  0  0  0  0  0
   -2.2045   -1.1637    0.3562 N   0  0  0  0  0  0  0  0  0  0  0  0
   -2.9595   -0.7907   -0.2008 H   0  0  0  0  0  0  0  0  0  0  0  0
   -0.9485   -0.4087    0.3482 C   0  0  1  0  0  0  0  0  0  0  0  0
   -1.1012    0.5270    0.8883 H   0  0  0  0  0  0  0  0  0  0  0  0
    0.1359   -1.2184    1.0796 C   0  0  0  0  0  0  0  0  0  0  0  0
    0.1963   -2.2131    0.6358 H   0  0  0  0  0  0  0  0  0  0  0  0
    1.1015   -0.7333    0.9290 H   0  0  0  0  0  0  0  0  0  0  0  0
   -0.1160   -1.3816    2.5665 C   0  0  0  0  0  0  0  0  0  0  0  0
    0.2148   -0.3482    3.4635 C   0  0  0  0  0  0  0  0  0  0  0  0
    0.6724    0.5608    3.0994 H   0  0  0  0  0  0  0  0  0  0  0  0
   -0.0597   -0.4904    4.8362 C   0  0  0  0  0  0  0  0  0  0  0  0
    0.1974    0.3032    5.5237 H   0  0  0  0  0  0  0  0  0  0  0  0
   -0.6667   -1.6643    5.3140 C   0  0  0  0  0  0  0  0  0  0  0  0
   -0.8755   -1.7744    6.3689 H   0  0  0  0  0  0  0  0  0  0  0  0
   -0.9972   -2.6994    4.4205 C   0  0  0  0  0  0  0  0  0  0  0  0
   -1.4588   -3.6040    4.7883 H   0  0  0  0  0  0  0  0  0  0  0  0
   -0.7197   -2.5584    3.0492 C   0  0  0  0  0  0  0  0  0  0  0  0
   -0.9713   -3.3568    2.3633 H   0  0  0  0  0  0  0  0  0  0  0  0
   -0.5288   -0.0559   -1.0901 C   0  0  0  0  0  0  0  0  0  0  0  0
   -0.8320   -0.7999   -2.0240 O   0  0  0  0  0  0  0  0  0  0  0  0
    0.1711    1.0715   -1.2695 N   0  0  0  0  0  0  0  0  0  0  0  0
    0.4285    1.5984   -0.4489 H   0  0  0  0  0  0  0  0  0  0  0  0
    0.6521    1.5432   -2.5658 C   0  0  0  0  0  0  0  0  0  0  0  0
   -0.1747    1.5727   -3.2785 H   0  0  0  0  0  0  0  0  0  0  0  0
    1.0789    2.5419   -2.4689 H   0  0  0  0  0  0  0  0  0  0  0  0
    1.4149    0.8604   -2.9451 H   0  0  0  0  0  0  0  0  0  0  0  0
  5  6  2  0  0  0  0
  5  7  1  0  0  0  0
  2  3  1  0  0  0  0
  2  4  1  0  0  0  0
  2  5  1  0  0  0  0
  1  2  1  0  0  0  0
 25 26  2  0  0  0  0
 25 27  1  0  0  0  0
 23 24  1  0  0  0  0
 21 22  1  0  0  0  0
 21 23  2  0  0  0  0
 19 20  1  0  0  0  0
 19 21  1  0  0  0  0
 17 18  1  0  0  0  0
 17 19  2  0  0  0  0
 15 16  1  0  0  0  0
 15 17  1  0  0  0  0
 14 15  2  0  0  0  0
 14 23  1  0  0  0  0
 11 12  1  0  0  0  0
 11 13  1  0  0  0  0
 11 14  1  0  0  0  0
  9 10  1  0  0  0  0
  9 11  1  0  0  0  0
  9 25  1  0  0  0  0
  7  8  1  0  0  0  0
  7  9  1  0  0  0  0
 29 30  1  0  0  0  0
 29 31  1  0  0  0  0
 29 32  1  0  0  0  0
 27 28  1  0  0  0  0
 27 29  1  0  0  0  0
M  END
$$$$
default_name
  -OEChem-01062215323D

 32 32  0     1  0  0  0  0  0999 V2000
   -3.8405   -3.7518    1.6252 H   0  0  0  0  0  0  0  0  0  0  0  0
   -3.7965   -2.8768    0.9782 C   0  0  0  0  0  0  0  0  0  0  0  0
   -4.5465   -2.1527    1.2902 H   0  0  0  0  0  0  0  0  0  0  0  0
   -3.9745   -3.1748   -0.0538 H   0  0  0  0  0  0  0  0  0  0  0  0
   -2.4245   -2.2537    1.0882 C   0  0  0  0  0  0  0  0  0  0  0  0
   -1.5805   -2.7478    1.8242 O   0  0  0  0  0  0  0  0  0  0  0  0
   -2.2045   -1.1637    0.3562 N   0  0  0  0  0  0  0  0  0  0  0  0
   -2.9595   -0.7907   -0.2008 H   0  0  0  0  0  0  0  0  0  0  0  0
   -0.9485   -0.4087    0.3482 C   0  0  1  0  0  0  0  0  0  0  0  0
   -1.1012    0.5270    0.8883 H   0  0  0  0  0  0  0  0  0  0  0  0
    0.1359   -1.2184    1.0796 C   0  0  0  0  0  0  0  0  0  0  0  0
    0.1963   -2.2131    0.6358 H   0  0  0  0  0  0  0  0  0  0  0  0
    1.1015   -0.7333    0.9290 H   0  0  0  0  0  0  0  0  0  0  0  0
   -0.1160   -1.3816    2.5665 C   0  0  0  0  0  0  0  0  0  0  0  0
    0.2148   -0.3482    3.4635 C   0  0  0  0  0  0  0  0  0  0  0  0
    0.6724    0.5608    3.0994 H   0  0  0  0  0  0  0  0  0  0  0  0
   -0.0597   -0.4904    4.8362 C   0  0  0  0  0  0  0  0  0  0  0  0
    0.1974    0.3032    5.5237 H   0  0  0  0  0  0  0  0  0  0  0  0
   -0.6667   -1.6643    5.3140 C   0  0  0  0  0  0  0  0  0  0  0  0
   -0.8755   -1.7744    6.3689 H   0  0  0  0  0  0  0  0  0  0  0  0
   -0.9972   -2.6994    4.4205 C   0  0  0  0  0  0  0  0  0  0  0  0
   -1.4588   -3.6040    4.7883 H   0  0  0  0  0  0  0  0  0  0  0  0
   -0.7197   -2.5584    3.0492 C   0  0  0  0  0  0  0  0  0  0  0  0
   -0.9713   -3.3568    2.3633 H   0  0  0  0  0  0  0  0  0  0  0  0
   -0.5288   -0.0559   -1.0901 C   0  0  0  0  0  0  0  0  0  0  0  0
   -1.0512   -0.6305   -2.0464 O   0  0  0  0  0  0  0  0  0  0  0  0
    0.4150    0.8813   -1.2450 N   0  0  0  0  0  0  0  0  0  0  0  0
    0.8344    1.2656   -0.4121 H   0  0  0  0  0  0  0  0  0  0  0  0
    0.9303    1.3234   -2.5385 C   0  0  0  0  0  0  0  0  0  0  0  0
    0.1006    1.6057   -3.1901 H   0  0  0  0  0  0  0  0  0  0  0  0
    1.5921    2.1800   -2.4079 H   0  0  0  0  0  0  0  0  0  0  0  0
    1.4832    0.5094   -3.0113 H   0  0  0  0  0  0  0  0  0  0  0  0
  5  6  2  0  0  0  0
  5  7  1  0  0  0  0
  2  3  1  0  0  0  0
  2  4  1  0  0  0  0
  2  5  1  0  0  0  0
  1  2  1  0  0  0  0
 25 26  2  0  0  0  0
 25 27  1  0  0  0  0
 23 24  1  0  0  0  0
 21 22  1  0  0  0  0
 21 23  2  0  0  0  0
 19 20  1  0  0  0  0
 19 21  1  0  0  0  0
 17 18  1  0  0  0  0
 17 19  2  0  0  0  0
 15 16  1  0  0  0  0
 15 17  1  0  0  0  0
 14 15  2  0  0  0  0
 14 23  1  0  0  0  0
 11 12  1  0  0  0  0
 11 13  1  0  0  0  0
 11 14  1  0  0  0  0
  9 10  1  0  0  0  0
  9 11  1  0  0  0  0
  9 25  1  0  0  0  0
  7  8  1  0  0  0  0
  7  9  1  0  0  0  0
 29 30  1  0  0  0  0
 29 31  1  0  0  0  0
 29 32  1  0  0  0  0
 27 28  1  0  0  0  0
 27 29  1  0  0  0  0
M  END
$$$$
default_name
  -OEChem-01062215323D

 32 32  0     1  0  0  0  0  0999 V2000
   -3.8405   -3.7518    1.6252 H   0  0  0  0  0  0  0  0  0  0  0  0
   -3.7965   -2.8768    0.9782 C   0  0  0  0  0  0  0  0  0  0  0  0
   -4.5465   -2.1527    1.2902 H   0  0  0  0  0  0  0  0  0  0  0  0
   -3.9745   -3.1748   -0.0538 H   0  0  0  0  0  0  0  0  0  0  0  0
   -2.4245   -2.2537    1.0882 C   0  0  0  0  0  0  0  0  0  0  0  0
   -1.5805   -2.7478    1.8242 O   0  0  0  0  0  0  0  0  0  0  0  0
   -2.2045   -1.1637    0.3562 N   0  0  0  0  0  0  0  0  0  0  0  0
   -2.9595   -0.7907   -0.2008 H   0  0  0  0  0  0  0  0  0  0  0  0
   -0.9485   -0.4087    0.3482 C   0  0  1  0  0  0  0  0  0  0  0  0
   -1.0124    0.3816    1.0978 H   0  0  0  0  0  0  0  0  0  0  0  0
    0.2101   -1.3457    0.7304 C   0  0  0  0  0  0  0  0  0  0  0  0
    0.1946   -2.2162    0.0731 H   0  0  0  0  0  0  0  0  0  0  0  0
    1.1549   -0.8262    0.5636 H   0  0  0  0  0  0  0  0  0  0  0  0
    0.1559   -1.8382    2.1640 C   0  0  0  0  0  0  0  0  0  0  0  0
    0.6202   -1.0252    3.2155 C   0  0  0  0  0  0  0  0  0  0  0  0
    1.0401   -0.0519    3.0043 H   0  0  0  0  0  0  0  0  0  0  0  0
    0.5286   -1.4722    4.5466 C   0  0  0  0  0  0  0  0  0  0  0  0
    0.8881   -0.8475    5.3522 H   0  0  0  0  0  0  0  0  0  0  0  0
   -0.0286   -2.7310    4.8288 C   0  0  0  0  0  0  0  0  0  0  0  0
   -0.0968   -3.0753    5.8512 H   0  0  0  0  0  0  0  0  0  0  0  0
   -0.4921   -3.5464    3.7803 C   0  0  0  0  0  0  0  0  0  0  0  0
   -0.9154   -4.5163    3.9967 H   0  0  0  0  0  0  0  0  0  0  0  0
   -0.3974   -3.1009    2.4500 C   0  0  0  0  0  0  0  0  0  0  0  0
   -0.7513   -3.7305    1.6440 H   0  0  0  0  0  0  0  0  0  0  0  0
   -0.7183    0.2602   -1.0189 C   0  0  0  0  0  0  0  0  0  0  0  0
   -1.5394    0.1148   -1.9257 O   0  0  0  0  0  0  0  0  0  0  0  0
    0.3964    0.9864   -1.1705 N   0  0  0  0  0  0  0  0  0  0  0  0
    1.0470    1.0120   -0.4001 H   0  0  0  0  0  0  0  0  0  0  0  0
    0.7671    1.6761   -2.4038 C   0  0  0  0  0  0  0  0  0  0  0  0
   -0.0615    2.3028   -2.7403 H   0  0  0  0  0  0  0  0  0  0  0  0
    1.6454    2.3004   -2.2373 H   0  0  0  0  0  0  0  0  0  0  0  0
    0.9881    0.9432   -3.1822 H   0  0  0  0  0  0  0  0  0  0  0  0
  5  6  2  0  0  0  0
  5  7  1  0  0  0  0
  2  3  1  0  0  0  0
  2  4  1  0  0  0  0
  2  5  1  0  0  0  0
  1  2  1  0  0  0  0
 25 26  2  0  0  0  0
 25 27  1  0  0  0  0
 23 24  1  0  0  0  0
 21 22  1  0  0  0  0
 21 23  2  0  0  0  0
 19 20  1  0  0  0  0
 19 21  1  0  0  0  0
 17 18  1  0  0  0  0
 17 19  2  0  0  0  0
 15 16  1  0  0  0  0
 15 17  1  0  0  0  0
 14 15  2  0  0  0  0
 14 23  1  0  0  0  0
 11 12  1  0  0  0  0
 11 13  1  0  0  0  0
 11 14  1  0  0  0  0
  9 10  1  0  0  0  0
  9 11  1  0  0  0  0
  9 25  1  0  0  0  0
  7  8  1  0  0  0  0
  7  9  1  0  0  0  0
 29 30  1  0  0  0  0
 29 31  1  0  0  0  0
 29 32  1  0  0  0  0
 27 28  1  0  0  0  0
 27 29  1  0  0  0  0
M  END
$$$$
default_name
  -OEChem-01062215323D

 32 32  0     1  0  0  0  0  0999 V2000
   -3.8405   -3.7518    1.6252 H   0  0  0  0  0  0  0  0  0  0  0  0
   -3.7965   -2.8768    0.9782 C   0  0  0  0  0  0  0  0  0  0  0  0
   -4.5465   -2.1527    1.2902 H   0  0  0  0  0  0  0  0  0  0  0  0
   -3.9745   -3.1748   -0.0538 H   0  0  0  0  0  0  0  0  0  0  0  0
   -2.4245   -2.2537    1.0882 C   0  0  0  0  0  0  0  0  0  0  0  0
   -1.5805   -2.7478    1.8242 O   0  0  0  0  0  0  0  0  0  0  0  0
   -2.2045   -1.1637    0.3562 N   0  0  0  0  0  0  0  0  0  0  0  0
   -2.9595   -0.7907   -0.2008 H   0  0  0  0  0  0  0  0  0  0  0  0
   -0.9485   -0.4087    0.3482 C   0  0  1  0  0  0  0  0  0  0  0  0
   -1.0124    0.3816    1.0978 H   0  0  0  0  0  0  0  0  0  0  0  0
    0.2101   -1.3457    0.7304 C   0  0  0  0  0  0  0  0  0  0  0  0
    0.1946   -2.2162    0.0731 H   0  0  0  0  0  0  0  0  0  0  0  0
    1.1549   -0.8262    0.5636 H   0  0  0  0  0  0  0  0  0  0  0  0
    0.1559   -1.8382    2.1640 C   0  0  0  0  0  0  0  0  0  0  0  0
    0.6202   -1.0252    3.2155 C   0  0  0  0  0  0  0  0  0  0  0  0
    1.0401   -0.0519    3.0043 H   0  0  0  0  0  0  0  0  0  0  0  0
    0.5286   -1.4722    4.5466 C   0  0  0  0  0  0  0  0  0  0  0  0
    0.8881   -0.8475    5.3522 H   0  0  0  0  0  0  0  0  0  0  0  0
   -0.0286   -2.7310    4.8288 C   0  0  0  0  0  0  0  0  0  0  0  0
   -0.0968   -3.0753    5.8512 H   0  0  0  0  0  0  0  0  0  0  0  0
   -0.4921   -3.5464    3.7803 C   0  0  0  0  0  0  0  0  0  0  0  0
   -0.9154   -4.5163    3.9967 H   0  0  0  0  0  0  0  0  0  0  0  0
   -0.3974   -3.1009    2.4500 C   0  0  0  0  0  0  0  0  0  0  0  0
   -0.7513   -3.7305    1.6440 H   0  0  0  0  0  0  0  0  0  0  0  0
   -0.7183    0.2602   -1.0189 C   0  0  0  0  0  0  0  0  0  0  0  0
   -1.6436    0.3527   -1.8268 O   0  0  0  0  0  0  0  0  0  0  0  0
    0.5115    0.7204   -1.2812 N   0  0  0  0  0  0  0  0  0  0  0  0
    1.2294    0.5572   -0.5919 H   0  0  0  0  0  0  0  0  0  0  0  0
    0.8968    1.3706   -2.5315 C   0  0  0  0  0  0  0  0  0  0  0  0
    0.2049    2.1860   -2.7526 H   0  0  0  0  0  0  0  0  0  0  0  0
    1.9086    1.7691   -2.4529 H   0  0  0  0  0  0  0  0  0  0  0  0
    0.8563    0.6480   -3.3489 H   0  0  0  0  0  0  0  0  0  0  0  0
  5  6  2  0  0  0  0
  5  7  1  0  0  0  0
  2  3  1  0  0  0  0
  2  4  1  0  0  0  0
  2  5  1  0  0  0  0
  1  2  1  0  0  0  0
 25 26  2  0  0  0  0
 25 27  1  0  0  0  0
 23 24  1  0  0  0  0
 21 22  1  0  0  0  0
 21 23  2  0  0  0  0
 19 20  1  0  0  0  0
 19 21  1  0  0  0  0
 17 18  1  0  0  0  0
 17 19  2  0  0  0  0
 15 16  1  0  0  0  0
 15 17  1  0  0  0  0
 14 15  2  0  0  0  0
 14 23  1  0  0  0  0
 11 12  1  0  0  0  0
 11 13  1  0  0  0  0
 11 14  1  0  0  0  0
  9 10  1  0  0  0  0
  9 11  1  0  0  0  0
  9 25  1  0  0  0  0
  7  8  1  0  0  0  0
  7  9  1  0  0  0  0
 29 30  1  0  0  0  0
 29 31  1  0  0  0  0
 29 32  1  0  0  0  0
 27 28  1  0  0  0  0
 27 29  1  0  0  0  0
M  END
$$$$
default_name
  -OEChem-01062215323D

 32 32  0     1  0  0  0  0  0999 V2000
   -3.8405   -3.7518    1.6252 H   0  0  0  0  0  0  0  0  0  0  0  0
   -3.7965   -2.8768    0.9782 C   0  0  0  0  0  0  0  0  0  0  0  0
   -4.5465   -2.1527    1.2902 H   0  0  0  0  0  0  0  0  0  0  0  0
   -3.9745   -3.1748   -0.0538 H   0  0  0  0  0  0  0  0  0  0  0  0
   -2.4245   -2.2537    1.0882 C   0  0  0  0  0  0  0  0  0  0  0  0
   -1.5805   -2.7478    1.8242 O   0  0  0  0  0  0  0  0  0  0  0  0
   -2.2045   -1.1637    0.3562 N   0  0  0  0  0  0  0  0  0  0  0  0
   -2.9595   -0.7907   -0.2008 H   0  0  0  0  0  0  0  0  0  0  0  0
   -0.9485   -0.4087    0.3482 C   0  0  1  0  0  0  0  0  0  0  0  0
   -1.0124    0.3816    1.0978 H   0  0  0  0  0  0  0  0  0  0  0  0
    0.2101   -1.3457    0.7304 C   0  0  0  0  0  0  0  0  0  0  0  0
    0.1946   -2.2162    0.0731 H   0  0  0  0  0  0  0  0  0  0  0  0
    1.1549   -0.8262    0.5636 H   0  0  0  0  0  0  0  0  0  0  0  0
    0.1559   -1.8382    2.1640 C   0  0  0  0  0  0  0  0  0  0  0  0
    0.6202   -1.0252    3.2155 C   0  0  0  0  0  0  0  0  0  0  0  0
    1.0401   -0.0519    3.0043 H   0  0  0  0  0  0  0  0  0  0  0  0
    0.5286   -1.4722    4.5466 C   0  0  0  0  0  0  0  0  0  0  0  0
    0.8881   -0.8475    5.3522 H   0  0  0  0  0  0  0  0  0  0  0  0
   -0.0286   -2.7310    4.8288 C   0  0  0  0  0  0  0  0  0  0  0  0
   -0.0968   -3.0753    5.8512 H   0  0  0  0  0  0  0  0  0  0  0  0
   -0.4921   -3.5464    3.7803 C   0  0  0  0  0  0  0  0  0  0  0  0
   -0.9154   -4.5163    3.9967 H   0  0  0  0  0  0  0  0  0  0  0  0
   -0.3974   -3.1009    2.4500 C   0  0  0  0  0  0  0  0  0  0  0  0
   -0.7513   -3.7305    1.6440 H   0  0  0  0  0  0  0  0  0  0  0  0
   -0.7183    0.2602   -1.0189 C   0  0  0  0  0  0  0  0  0  0  0  0
   -1.6785    0.6027   -1.7104 O   0  0  0  0  0  0  0  0  0  0  0  0
    0.5490    0.4413   -1.4115 N   0  0  0  0  0  0  0  0  0  0  0  0
    1.2796    0.0835   -0.8152 H   0  0  0  0  0  0  0  0  0  0  0  0
    0.9374    1.0506   -2.6812 C   0  0  0  0  0  0  0  0  0  0  0  0
    0.4340    2.0125   -2.7989 H   0  0  0  0  0  0  0  0  0  0  0  0
    2.0165    1.2037   -2.7114 H   0  0  0  0  0  0  0  0  0  0  0  0
    0.6423    0.3996   -3.5064 H   0  0  0  0  0  0  0  0  0  0  0  0
  5  6  2  0  0  0  0
  5  7  1  0  0  0  0
  2  3  1  0  0  0  0
  2  4  1  0  0  0  0
  2  5  1  0  0  0  0
  1  2  1  0  0  0  0
 25 26  2  0  0  0  0
 25 27  1  0  0  0  0
 23 24  1  0  0  0  0
 21 22  1  0  0  0  0
 21 23  2  0  0  0  0
 19 20  1  0  0  0  0
 19 21  1  0  0  0  0
 17 18  1  0  0  0  0
 17 19  2  0  0  0  0
 15 16  1  0  0  0  0
 15 17  1  0  0  0  0
 14 15  2  0  0  0  0
 14 23  1  0  0  0  0
 11 12  1  0  0  0  0
 11 13  1  0  0  0  0
 11 14  1  0  0  0  0
  9 10  1  0  0  0  0
  9 11  1  0  0  0  0
  9 25  1  0  0  0  0
  7  8  1  0  0  0  0
  7  9  1  0  0  0  0
 29 30  1  0  0  0  0
 29 31  1  0  0  0  0
 29 32  1  0  0  0  0
 27 28  1  0  0  0  0
 27 29  1  0  0  0  0
M  END
$$$$
default_name
  -OEChem-01062215323D

 32 32  0     1  0  0  0  0  0999 V2000
   -3.8405   -3.7518    1.6252 H   0  0  0  0  0  0  0  0  0  0  0  0
   -3.7965   -2.8768    0.9782 C   0  0  0  0  0  0  0  0  0  0  0  0
   -4.5465   -2.1527    1.2902 H   0  0  0  0  0  0  0  0  0  0  0  0
   -3.9745   -3.1748   -0.0538 H   0  0  0  0  0  0  0  0  0  0  0  0
   -2.4245   -2.2537    1.0882 C   0  0  0  0  0  0  0  0  0  0  0  0
   -1.5805   -2.7478    1.8242 O   0  0  0  0  0  0  0  0  0  0  0  0
   -2.2045   -1.1637    0.3562 N   0  0  0  0  0  0  0  0  0  0  0  0
   -2.9595   -0.7907   -0.2008 H   0  0  0  0  0  0  0  0  0  0  0  0
   -0.9485   -0.4087    0.3482 C   0  0  1  0  0  0  0  0  0  0  0  0
   -1.0124    0.3816    1.0978 H   0  0  0  0  0  0  0  0  0  0  0  0
    0.2101   -1.3457    0.7304 C   0  0  0  0  0  0  0  0  0  0  0  0
    0.1946   -2.2162    0.0731 H   0  0  0  0  0  0  0  0  0  0  0  0
    1.1549   -0.8262    0.5636 H   0  0  0  0  0  0  0  0  0  0  0  0
    0.1559   -1.8382    2.1640 C   0  0  0  0  0  0  0  0  0  0  0  0
    0.6202   -1.0252    3.2155 C   0  0  0  0  0  0  0  0  0  0  0  0
    1.0401   -0.0519    3.0043 H   0  0  0  0  0  0  0  0  0  0  0  0
    0.5286   -1.4722    4.5466 C   0  0  0  0  0  0  0  0  0  0  0  0
    0.8881   -0.8475    5.3522 H   0  0  0  0  0  0  0  0  0  0  0  0
   -0.0286   -2.7310    4.8288 C   0  0  0  0  0  0  0  0  0  0  0  0
   -0.0968   -3.0753    5.8512 H   0  0  0  0  0  0  0  0  0  0  0  0
   -0.4921   -3.5464    3.7803 C   0  0  0  0  0  0  0  0  0  0  0  0
   -0.9154   -4.5163    3.9967 H   0  0  0  0  0  0  0  0  0  0  0  0
   -0.3974   -3.1009    2.4500 C   0  0  0  0  0  0  0  0  0  0  0  0
   -0.7513   -3.7305    1.6440 H   0  0  0  0  0  0  0  0  0  0  0  0
   -0.7183    0.2602   -1.0189 C   0  0  0  0  0  0  0  0  0  0  0  0
   -1.6417    0.8477   -1.5843 O   0  0  0  0  0  0  0  0  0  0  0  0
    0.5065    0.1681   -1.5523 N   0  0  0  0  0  0  0  0  0  0  0  0
    1.1940   -0.3771   -1.0549 H   0  0  0  0  0  0  0  0  0  0  0  0
    0.8863    0.7380   -2.8427 C   0  0  0  0  0  0  0  0  0  0  0  0
    0.6101    1.7940   -2.8761 H   0  0  0  0  0  0  0  0  0  0  0  0
    1.9617    0.6427   -2.9951 H   0  0  0  0  0  0  0  0  0  0  0  0
    0.3608    0.2150   -3.6441 H   0  0  0  0  0  0  0  0  0  0  0  0
  5  6  2  0  0  0  0
  5  7  1  0  0  0  0
  2  3  1  0  0  0  0
  2  4  1  0  0  0  0
  2  5  1  0  0  0  0
  1  2  1  0  0  0  0
 25 26  2  0  0  0  0
 25 27  1  0  0  0  0
 23 24  1  0  0  0  0
 21 22  1  0  0  0  0
 21 23  2  0  0  0  0
 19 20  1  0  0  0  0
 19 21  1  0  0  0  0
 17 18  1  0  0  0  0
 17 19  2  0  0  0  0
 15 16  1  0  0  0  0
 15 17  1  0  0  0  0
 14 15  2  0  0  0  0
 14 23  1  0  0  0  0
 11 12  1  0  0  0  0
 11 13  1  0  0  0  0
 11 14  1  0  0  0  0
  9 10  1  0  0  0  0
  9 11  1  0  0  0  0
  9 25  1  0  0  0  0
  7  8  1  0  0  0  0
  7  9  1  0  0  0  0
 29 30  1  0  0  0  0
 29 31  1  0  0  0  0
 29 32  1  0  0  0  0
 27 28  1  0  0  0  0
 27 29  1  0  0  0  0
M  END
$$$$
default_name
  -OEChem-01062215323D

 32 32  0     1  0  0  0  0  0999 V2000
   -3.8405   -3.7518    1.6252 H   0  0  0  0  0  0  0  0  0  0  0  0
   -3.7965   -2.8768    0.9782 C   0  0  0  0  0  0  0  0  0  0  0  0
   -4.5465   -2.1527    1.2902 H   0  0  0  0  0  0  0  0  0  0  0  0
   -3.9745   -3.1748   -0.0538 H   0  0  0  0  0  0  0  0  0  0  0  0
   -2.4245   -2.2537    1.0882 C   0  0  0  0  0  0  0  0  0  0  0  0
   -1.5805   -2.7478    1.8242 O   0  0  0  0  0  0  0  0  0  0  0  0
   -2.2045   -1.1637    0.3562 N   0  0  0  0  0  0  0  0  0  0  0  0
   -2.9595   -0.7907   -0.2008 H   0  0  0  0  0  0  0  0  0  0  0  0
   -0.9485   -0.4087    0.3482 C   0  0  1  0  0  0  0  0  0  0  0  0
   -1.0124    0.3816    1.0978 H   0  0  0  0  0  0  0  0  0  0  0  0
    0.2101   -1.3457    0.7304 C   0  0  0  0  0  0  0  0  0  0  0  0
    0.1946   -2.2162    0.0731 H   0  0  0  0  0  0  0  0  0  0  0  0
    1.1549   -0.8262    0.5636 H   0  0  0  0  0  0  0  0  0  0  0  0
    0.1559   -1.8382    2.1640 C   0  0  0  0  0  0  0  0  0  0  0  0
    0.6202   -1.0252    3.2155 C   0  0  0  0  0  0  0  0  0  0  0  0
    1.0401   -0.0519    3.0043 H   0  0  0  0  0  0  0  0  0  0  0  0
    0.5286   -1.4722    4.5466 C   0  0  0  0  0  0  0  0  0  0  0  0
    0.8881   -0.8475    5.3522 H   0  0  0  0  0  0  0  0  0  0  0  0
   -0.0286   -2.7310    4.8288 C   0  0  0  0  0  0  0  0  0  0  0  0
   -0.0968   -3.0753    5.8512 H   0  0  0  0  0  0  0  0  0  0  0  0
   -0.4921   -3.5464    3.7803 C   0  0  0  0  0  0  0  0  0  0  0  0
   -0.9154   -4.5163    3.9967 H   0  0  0  0  0  0  0  0  0  0  0  0
   -0.3974   -3.1009    2.4500 C   0  0  0  0  0  0  0  0  0  0  0  0
   -0.7513   -3.7305    1.6440 H   0  0  0  0  0  0  0  0  0  0  0  0
   -0.7183    0.2602   -1.0189 C   0  0  0  0  0  0  0  0  0  0  0  0
   -1.5356    1.0710   -1.4572 O   0  0  0  0  0  0  0  0  0  0  0  0
    0.3867   -0.0805   -1.6941 N   0  0  0  0  0  0  0  0  0  0  0  0
    0.9785   -0.7929   -1.2947 H   0  0  0  0  0  0  0  0  0  0  0  0
    0.7468    0.4541   -3.0051 C   0  0  0  0  0  0  0  0  0  0  0  0
    0.7214    1.5455   -2.9790 H   0  0  0  0  0  0  0  0  0  0  0  0
    1.7479    0.1245   -3.2846 H   0  0  0  0  0  0  0  0  0  0  0  0
    0.0310    0.1067   -3.7527 H   0  0  0  0  0  0  0  0  0  0  0  0
  5  6  2  0  0  0  0
  5  7  1  0  0  0  0
  2  3  1  0  0  0  0
  2  4  1  0  0  0  0
  2  5  1  0  0  0  0
  1  2  1  0  0  0  0
 25 26  2  0  0  0  0
 25 27  1  0  0  0  0
 23 24  1  0  0  0  0
 21 22  1  0  0  0  0
 21 23  2  0  0  0  0
 19 20  1  0  0  0  0
 19 21  1  0  0  0  0
 17 18  1  0  0  0  0
 17 19  2  0  0  0  0
 15 16  1  0  0  0  0
 15 17  1  0  0  0  0
 14 15  2  0  0  0  0
 14 23  1  0  0  0  0
 11 12  1  0  0  0  0
 11 13  1  0  0  0  0
 11 14  1  0  0  0  0
  9 10  1  0  0  0  0
  9 11  1  0  0  0  0
  9 25  1  0  0  0  0
  7  8  1  0  0  0  0
  7  9  1  0  0  0  0
 29 30  1  0  0  0  0
 29 31  1  0  0  0  0
 29 32  1  0  0  0  0
 27 28  1  0  0  0  0
 27 29  1  0  0  0  0
M  END
$$$$
default_name
  -OEChem-01062215323D

 32 32  0     1  0  0  0  0  0999 V2000
   -3.8405   -3.7518    1.6252 H   0  0  0  0  0  0  0  0  0  0  0  0
   -3.7965   -2.8768    0.9782 C   0  0  0  0  0  0  0  0  0  0  0  0
   -4.5465   -2.1527    1.2902 H   0  0  0  0  0  0  0  0  0  0  0  0
   -3.9745   -3.1748   -0.0538 H   0  0  0  0  0  0  0  0  0  0  0  0
   -2.4245   -2.2537    1.0882 C   0  0  0  0  0  0  0  0  0  0  0  0
   -1.5805   -2.7478    1.8242 O   0  0  0  0  0  0  0  0  0  0  0  0
   -2.2045   -1.1637    0.3562 N   0  0  0  0  0  0  0  0  0  0  0  0
   -2.9595   -0.7907   -0.2008 H   0  0  0  0  0  0  0  0  0  0  0  0
   -0.9485   -0.4087    0.3482 C   0  0  1  0  0  0  0  0  0  0  0  0
   -1.0124    0.3816    1.0978 H   0  0  0  0  0  0  0  0  0  0  0  0
    0.2101   -1.3457    0.7304 C   0  0  0  0  0  0  0  0  0  0  0  0
    0.1946   -2.2162    0.0731 H   0  0  0  0  0  0  0  0  0  0  0  0
    1.1549   -0.8262    0.5636 H   0  0  0  0  0  0  0  0  0  0  0  0
    0.1559   -1.8382    2.1640 C   0  0  0  0  0  0  0  0  0  0  0  0
    0.6202   -1.0252    3.2155 C   0  0  0  0  0  0  0  0  0  0  0  0
    1.0401   -0.0519    3.0043 H   0  0  0  0  0  0  0  0  0  0  0  0
    0.5286   -1.4722    4.5466 C   0  0  0  0  0  0  0  0  0  0  0  0
    0.8881   -0.8475    5.3522 H   0  0  0  0  0  0  0  0  0  0  0  0
   -0.0286   -2.7310    4.8288 C   0  0  0  0  0  0  0  0  0  0  0  0
   -0.0968   -3.0753    5.8512 H   0  0  0  0  0  0  0  0  0  0  0  0
   -0.4921   -3.5464    3.7803 C   0  0  0  0  0  0  0  0  0  0  0  0
   -0.9154   -4.5163    3.9967 H   0  0  0  0  0  0  0  0  0  0  0  0
   -0.3974   -3.1009    2.4500 C   0  0  0  0  0  0  0  0  0  0  0  0
   -0.7513   -3.7305    1.6440 H   0  0  0  0  0  0  0  0  0  0  0  0
   -0.7183    0.2602   -1.0189 C   0  0  0  0  0  0  0  0  0  0  0  0
   -1.3675    1.2573   -1.3377 O   0  0  0  0  0  0  0  0  0  0  0  0
    0.1980   -0.2877   -1.8272 N   0  0  0  0  0  0  0  0  0  0  0  0
    0.6478   -1.1358   -1.5182 H   0  0  0  0  0  0  0  0  0  0  0  0
    0.5286    0.2182   -3.1573 C   0  0  0  0  0  0  0  0  0  0  0  0
    0.7601    1.2839   -3.1005 H   0  0  0  0  0  0  0  0  0  0  0  0
    1.3897   -0.3157   -3.5603 H   0  0  0  0  0  0  0  0  0  0  0  0
   -0.3246    0.0821   -3.8246 H   0  0  0  0  0  0  0  0  0  0  0  0
  5  6  2  0  0  0  0
  5  7  1  0  0  0  0
  2  3  1  0  0  0  0
  2  4  1  0  0  0  0
  2  5  1  0  0  0  0
  1  2  1  0  0  0  0
 25 26  2  0  0  0  0
 25 27  1  0  0  0  0
 23 24  1  0  0  0  0
 21 22  1  0  0  0  0
 21 23  2  0  0  0  0
 19 20  1  0  0  0  0
 19 21  1  0  0  0  0
 17 18  1  0  0  0  0
 17 19  2  0  0  0  0
 15 16  1  0  0  0  0
 15 17  1  0  0  0  0
 14 15  2  0  0  0  0
 14 23  1  0  0  0  0
 11 12  1  0  0  0  0
 11 13  1  0  0  0  0
 11 14  1  0  0  0  0
  9 10  1  0  0  0  0
  9 11  1  0  0  0  0
  9 25  1  0  0  0  0
  7  8  1  0  0  0  0
  7  9  1  0  0  0  0
 29 30  1  0  0  0  0
 29 31  1  0  0  0  0
 29 32  1  0  0  0  0
 27 28  1  0  0  0  0
 27 29  1  0  0  0  0
M  END
$$$$
default_name
  -OEChem-01062215323D

 32 32  0     1  0  0  0  0  0999 V2000
   -3.8405   -3.7518    1.6252 H   0  0  0  0  0  0  0  0  0  0  0  0
   -3.7965   -2.8768    0.9782 C   0  0  0  0  0  0  0  0  0  0  0  0
   -4.5465   -2.1527    1.2902 H   0  0  0  0  0  0  0  0  0  0  0  0
   -3.9745   -3.1748   -0.0538 H   0  0  0  0  0  0  0  0  0  0  0  0
   -2.4245   -2.2537    1.0882 C   0  0  0  0  0  0  0  0  0  0  0  0
   -1.5805   -2.7478    1.8242 O   0  0  0  0  0  0  0  0  0  0  0  0
   -2.2045   -1.1637    0.3562 N   0  0  0  0  0  0  0  0  0  0  0  0
   -2.9595   -0.7907   -0.2008 H   0  0  0  0  0  0  0  0  0  0  0  0
   -0.9485   -0.4087    0.3482 C   0  0  1  0  0  0  0  0  0  0  0  0
   -1.0124    0.3816    1.0978 H   0  0  0  0  0  0  0  0  0  0  0  0
    0.2101   -1.3457    0.7304 C   0  0  0  0  0  0  0  0  0  0  0  0
    0.1946   -2.2162    0.0731 H   0  0  0  0  0  0  0  0  0  0  0  0
    1.1549   -0.8262    0.5636 H   0  0  0  0  0  0  0  0  0  0  0  0
    0.1559   -1.8382    2.1640 C   0  0  0  0  0  0  0  0  0  0  0  0
    0.6202   -1.0252    3.2155 C   0  0  0  0  0  0  0  0  0  0  0  0
    1.0401   -0.0519    3.0043 H   0  0  0  0  0  0  0  0  0  0  0  0
    0.5286   -1.4722    4.5466 C   0  0  0  0  0  0  0  0  0  0  0  0
    0.8881   -0.8475    5.3522 H   0  0  0  0  0  0  0  0  0  0  0  0
   -0.0286   -2.7310    4.8288 C   0  0  0  0  0  0  0  0  0  0  0  0
   -0.0968   -3.0753    5.8512 H   0  0  0  0  0  0  0  0  0  0  0  0
   -0.4921   -3.5464    3.7803 C   0  0  0  0  0  0  0  0  0  0  0  0
   -0.9154   -4.5163    3.9967 H   0  0  0  0  0  0  0  0  0  0  0  0
   -0.3974   -3.1009    2.4500 C   0  0  0  0  0  0  0  0  0  0  0  0
   -0.7513   -3.7305    1.6440 H   0  0  0  0  0  0  0  0  0  0  0  0
   -0.7183    0.2602   -1.0189 C   0  0  0  0  0  0  0  0  0  0  0  0
   -1.1489    1.3941   -1.2340 O   0  0  0  0  0  0  0  0  0  0  0  0
   -0.0470   -0.4392   -1.9426 N   0  0  0  0  0  0  0  0  0  0  0  0
    0.2244   -1.3824   -1.7101 H   0  0  0  0  0  0  0  0  0  0  0  0
    0.2465    0.0463   -3.2889 C   0  0  0  0  0  0  0  0  0  0  0  0
    0.7238    1.0269   -3.2324 H   0  0  0  0  0  0  0  0  0  0  0  0
    0.9115   -0.6479   -3.8034 H   0  0  0  0  0  0  0  0  0  0  0  0
   -0.6819    0.1429   -3.8550 H   0  0  0  0  0  0  0  0  0  0  0  0
  5  6  2  0  0  0  0
  5  7  1  0  0  0  0
  2  3  1  0  0  0  0
  2  4  1  0  0  0  0
  2  5  1  0  0  0  0
  1  2  1  0  0  0  0
 25 26  2  0  0  0  0
 25 27  1  0  0  0  0
 23 24  1  0  0  0  0
 21 22  1  0  0  0  0
 21 23  2  0  0  0  0
 19 20  1  0  0  0  0
 19 21  1  0  0  0  0
 17 18  1  0  0  0  0
 17 19  2  0  0  0  0
 15 16  1  0  0  0  0
 15 17  1  0  0  0  0
 14 15  2  0  0  0  0
 14 23  1  0  0  0  0
 11 12  1  0  0  0  0
 11 13  1  0  0  0  0
 11 14  1  0  0  0  0
  9 10  1  0  0  0  0
  9 11  1  0  0  0  0
  9 25  1  0  0  0  0
  7  8  1  0  0  0  0
  7  9  1  0  0  0  0
 29 30  1  0  0  0  0
 29 31  1  0  0  0  0
 29 32  1  0  0  0  0
 27 28  1  0  0  0  0
 27 29  1  0  0  0  0
M  END
$$$$
default_name
  -OEChem-01062215323D

 32 32  0     1  0  0  0  0  0999 V2000
   -3.8405   -3.7518    1.6252 H   0  0  0  0  0  0  0  0  0  0  0  0
   -3.7965   -2.8768    0.9782 C   0  0  0  0  0  0  0  0  0  0  0  0
   -4.5465   -2.1527    1.2902 H   0  0  0  0  0  0  0  0  0  0  0  0
   -3.9745   -3.1748   -0.0538 H   0  0  0  0  0  0  0  0  0  0  0  0
   -2.4245   -2.2537    1.0882 C   0  0  0  0  0  0  0  0  0  0  0  0
   -1.5805   -2.7478    1.8242 O   0  0  0  0  0  0  0  0  0  0  0  0
   -2.2045   -1.1637    0.3562 N   0  0  0  0  0  0  0  0  0  0  0  0
   -2.9595   -0.7907   -0.2008 H   0  0  0  0  0  0  0  0  0  0  0  0
   -0.9485   -0.4087    0.3482 C   0  0  1  0  0  0  0  0  0  0  0  0
   -1.0124    0.3816    1.0978 H   0  0  0  0  0  0  0  0  0  0  0  0
    0.2101   -1.3457    0.7304 C   0  0  0  0  0  0  0  0  0  0  0  0
    0.1946   -2.2162    0.0731 H   0  0  0  0  0  0  0  0  0  0  0  0
    1.1549   -0.8262    0.5636 H   0  0  0  0  0  0  0  0  0  0  0  0
    0.1559   -1.8382    2.1640 C   0  0  0  0  0  0  0  0  0  0  0  0
    0.6202   -1.0252    3.2155 C   0  0  0  0  0  0  0  0  0  0  0  0
    1.0401   -0.0519    3.0043 H   0  0  0  0  0  0  0  0  0  0  0  0
    0.5286   -1.4722    4.5466 C   0  0  0  0  0  0  0  0  0  0  0  0
    0.8881   -0.8475    5.3522 H   0  0  0  0  0  0  0  0  0  0  0  0
   -0.0286   -2.7310    4.8288 C   0  0  0  0  0  0  0  0  0  0  0  0
   -0.0968   -3.0753    5.8512 H   0  0  0  0  0  0  0  0  0  0  0  0
   -0.4921   -3.5464    3.7803 C   0  0  0  0  0  0  0  0  0  0  0  0
   -0.9154   -4.5163    3.9967 H   0  0  0  0  0  0  0  0  0  0  0  0
   -0.3974   -3.1009    2.4500 C   0  0  0  0  0  0  0  0  0  0  0  0
   -0.7513   -3.7305    1.6440 H   0  0  0  0  0  0  0  0  0  0  0  0
   -0.7183    0.2602   -1.0189 C   0  0  0  0  0  0  0  0  0  0  0  0
   -0.8946    1.4719   -1.1531 O   0  0  0  0  0  0  0  0  0  0  0  0
   -0.3313   -0.5248   -2.0324 N   0  0  0  0  0  0  0  0  0  0  0  0
   -0.2628   -1.5158   -1.8574 H   0  0  0  0  0  0  0  0  0  0  0  0
   -0.0803   -0.0497   -3.3909 C   0  0  0  0  0  0  0  0  0  0  0  0
    0.6148    0.7922   -3.3656 H   0  0  0  0  0  0  0  0  0  0  0  0
    0.3459   -0.8495   -3.9972 H   0  0  0  0  0  0  0  0  0  0  0  0
   -1.0165    0.2849   -3.8418 H   0  0  0  0  0  0  0  0  0  0  0  0
  5  6  2  0  0  0  0
  5  7  1  0  0  0  0
  2  3  1  0  0  0  0
  2  4  1  0  0  0  0
  2  5  1  0  0  0  0
  1  2  1  0  0  0  0
 25 26  2  0  0  0  0
 25 27  1  0  0  0  0
 23 24  1  0  0  0  0
 21 22  1  0  0  0  0
 21 23  2  0  0  0  0
 19 20  1  0  0  0  0
 19 21  1  0  0  0  0
 17 18  1  0  0  0  0
 17 19  2  0  0  0  0
 15 16  1  0  0  0  0
 15 17  1  0  0  0  0
 14 15  2  0  0  0  0
 14 23  1  0  0  0  0
 11 12  1  0  0  0  0
 11 13  1  0  0  0  0
 11 14  1  0  0  0  0
  9 10  1  0  0  0  0
  9 11  1  0  0  0  0
  9 25  1  0  0  0  0
  7  8  1  0  0  0  0
  7  9  1  0  0  0  0
 29 30  1  0  0  0  0
 29 31  1  0  0  0  0
 29 32  1  0  0  0  0
 27 28  1  0  0  0  0
 27 29  1  0  0  0  0
M  END
$$$$
default_name
  -OEChem-01062215323D

 32 32  0     1  0  0  0  0  0999 V2000
   -3.8405   -3.7518    1.6252 H   0  0  0  0  0  0  0  0  0  0  0  0
   -3.7965   -2.8768    0.9782 C   0  0  0  0  0  0  0  0  0  0  0  0
   -4.5465   -2.1527    1.2902 H   0  0  0  0  0  0  0  0  0  0  0  0
   -3.9745   -3.1748   -0.0538 H   0  0  0  0  0  0  0  0  0  0  0  0
   -2.4245   -2.2537    1.0882 C   0  0  0  0  0  0  0  0  0  0  0  0
   -1.5805   -2.7478    1.8242 O   0  0  0  0  0  0  0  0  0  0  0  0
   -2.2045   -1.1637    0.3562 N   0  0  0  0  0  0  0  0  0  0  0  0
   -2.9595   -0.7907   -0.2008 H   0  0  0  0  0  0  0  0  0  0  0  0
   -0.9485   -0.4087    0.3482 C   0  0  1  0  0  0  0  0  0  0  0  0
   -1.0124    0.3816    1.0978 H   0  0  0  0  0  0  0  0  0  0  0  0
    0.2101   -1.3457    0.7304 C   0  0  0  0  0  0  0  0  0  0  0  0
    0.1946   -2.2162    0.0731 H   0  0  0  0  0  0  0  0  0  0  0  0
    1.1549   -0.8262    0.5636 H   0  0  0  0  0  0  0  0  0  0  0  0
    0.1559   -1.8382    2.1640 C   0  0  0  0  0  0  0  0  0  0  0  0
    0.6202   -1.0252    3.2155 C   0  0  0  0  0  0  0  0  0  0  0  0
    1.0401   -0.0519    3.0043 H   0  0  0  0  0  0  0  0  0  0  0  0
    0.5286   -1.4722    4.5466 C   0  0  0  0  0  0  0  0  0  0  0  0
    0.8881   -0.8475    5.3522 H   0  0  0  0  0  0  0  0  0  0  0  0
   -0.0286   -2.7310    4.8288 C   0  0  0  0  0  0  0  0  0  0  0  0
   -0.0968   -3.0753    5.8512 H   0  0  0  0  0  0  0  0  0  0  0  0
   -0.4921   -3.5464    3.7803 C   0  0  0  0  0  0  0  0  0  0  0  0
   -0.9154   -4.5163    3.9967 H   0  0  0  0  0  0  0  0  0  0  0  0
   -0.3974   -3.1009    2.4500 C   0  0  0  0  0  0  0  0  0  0  0  0
   -0.7513   -3.7305    1.6440 H   0  0  0  0  0  0  0  0  0  0  0  0
   -0.7183    0.2602   -1.0189 C   0  0  0  0  0  0  0  0  0  0  0  0
   -0.6219    1.4855   -1.1006 O   0  0  0  0  0  0  0  0  0  0  0  0
   -0.6358   -0.5387   -2.0904 N   0  0  0  0  0  0  0  0  0  0  0  0
   -0.7806   -1.5269   -1.9500 H   0  0  0  0  0  0  0  0  0  0  0  0
   -0.4295   -0.0634   -3.4564 C   0  0  0  0  0  0  0  0  0  0  0  0
    0.4405    0.5957   -3.4910 H   0  0  0  0  0  0  0  0  0  0  0  0
   -0.2686   -0.9066   -4.1286 H   0  0  0  0  0  0  0  0  0  0  0  0
   -1.3056    0.4985   -3.7860 H   0  0  0  0  0  0  0  0  0  0  0  0
  5  6  2  0  0  0  0
  5  7  1  0  0  0  0
  2  3  1  0  0  0  0
  2  4  1  0  0  0  0
  2  5  1  0  0  0  0
  1  2  1  0  0  0  0
 25 26  2  0  0  0  0
 25 27  1  0  0  0  0
 23 24  1  0  0  0  0
 21 22  1  0  0  0  0
 21 23  2  0  0  0  0
 19 20  1  0  0  0  0
 19 21  1  0  0  0  0
 17 18  1  0  0  0  0
 17 19  2  0  0  0  0
 15 16  1  0  0  0  0
 15 17  1  0  0  0  0
 14 15  2  0  0  0  0
 14 23  1  0  0  0  0
 11 12  1  0  0  0  0
 11 13  1  0  0  0  0
 11 14  1  0  0  0  0
  9 10  1  0  0  0  0
  9 11  1  0  0  0  0
  9 25  1  0  0  0  0
  7  8  1  0  0  0  0
  7  9  1  0  0  0  0
 29 30  1  0  0  0  0
 29 31  1  0  0  0  0
 29 32  1  0  0  0  0
 27 28  1  0  0  0  0
 27 29  1  0  0  0  0
M  END
$$$$
default_name
  -OEChem-01062215323D

 32 32  0     1  0  0  0  0  0999 V2000
   -3.8405   -3.7518    1.6252 H   0  0  0  0  0  0  0  0  0  0  0  0
   -3.7965   -2.8768    0.9782 C   0  0  0  0  0  0  0  0  0  0  0  0
   -4.5465   -2.1527    1.2902 H   0  0  0  0  0  0  0  0  0  0  0  0
   -3.9745   -3.1748   -0.0538 H   0  0  0  0  0  0  0  0  0  0  0  0
   -2.4245   -2.2537    1.0882 C   0  0  0  0  0  0  0  0  0  0  0  0
   -1.5805   -2.7478    1.8242 O   0  0  0  0  0  0  0  0  0  0  0  0
   -2.2045   -1.1637    0.3562 N   0  0  0  0  0  0  0  0  0  0  0  0
   -2.9595   -0.7907   -0.2008 H   0  0  0  0  0  0  0  0  0  0  0  0
   -0.9485   -0.4087    0.3482 C   0  0  1  0  0  0  0  0  0  0  0  0
   -1.0124    0.3816    1.0978 H   0  0  0  0  0  0  0  0  0  0  0  0
    0.2101   -1.3457    0.7304 C   0  0  0  0  0  0  0  0  0  0  0  0
    0.1946   -2.2162    0.0731 H   0  0  0  0  0  0  0  0  0  0  0  0
    1.1549   -0.8262    0.5636 H   0  0  0  0  0  0  0  0  0  0  0  0
    0.1559   -1.8382    2.1640 C   0  0  0  0  0  0  0  0  0  0  0  0
    0.6202   -1.0252    3.2155 C   0  0  0  0  0  0  0  0  0  0  0  0
    1.0401   -0.0519    3.0043 H   0  0  0  0  0  0  0  0  0  0  0  0
    0.5286   -1.4722    4.5466 C   0  0  0  0  0  0  0  0  0  0  0  0
    0.8881   -0.8475    5.3522 H   0  0  0  0  0  0  0  0  0  0  0  0
   -0.0286   -2.7310    4.8288 C   0  0  0  0  0  0  0  0  0  0  0  0
   -0.0968   -3.0753    5.8512 H   0  0  0  0  0  0  0  0  0  0  0  0
   -0.4921   -3.5464    3.7803 C   0  0  0  0  0  0  0  0  0  0  0  0
   -0.9154   -4.5163    3.9967 H   0  0  0  0  0  0  0  0  0  0  0  0
   -0.3974   -3.1009    2.4500 C   0  0  0  0  0  0  0  0  0  0  0  0
   -0.7513   -3.7305    1.6440 H   0  0  0  0  0  0  0  0  0  0  0  0
   -0.7183    0.2602   -1.0189 C   0  0  0  0  0  0  0  0  0  0  0  0
   -0.3496    1.4339   -1.0799 O   0  0  0  0  0  0  0  0  0  0  0  0
   -0.9396   -0.4798   -2.1128 N   0  0  0  0  0  0  0  0  0  0  0  0
   -1.2938   -1.4151   -1.9817 H   0  0  0  0  0  0  0  0  0  0  0  0
   -0.7773    0.0062   -3.4809 C   0  0  0  0  0  0  0  0  0  0  0  0
    0.2129    0.4508   -3.6003 H   0  0  0  0  0  0  0  0  0  0  0  0
   -0.8901   -0.8155   -4.1887 H   0  0  0  0  0  0  0  0  0  0  0  0
   -1.5294    0.7690   -3.6913 H   0  0  0  0  0  0  0  0  0  0  0  0
  5  6  2  0  0  0  0
  5  7  1  0  0  0  0
  2  3  1  0  0  0  0
  2  4  1  0  0  0  0
  2  5  1  0  0  0  0
  1  2  1  0  0  0  0
 25 26  2  0  0  0  0
 25 27  1  0  0  0  0
 23 24  1  0  0  0  0
 21 22  1  0  0  0  0
 21 23  2  0  0  0  0
 19 20  1  0  0  0  0
 19 21  1  0  0  0  0
 17 18  1  0  0  0  0
 17 19  2  0  0  0  0
 15 16  1  0  0  0  0
 15 17  1  0  0  0  0
 14 15  2  0  0  0  0
 14 23  1  0  0  0  0
 11 12  1  0  0  0  0
 11 13  1  0  0  0  0
 11 14  1  0  0  0  0
  9 10  1  0  0  0  0
  9 11  1  0  0  0  0
  9 25  1  0  0  0  0
  7  8  1  0  0  0  0
  7  9  1  0  0  0  0
 29 30  1  0  0  0  0
 29 31  1  0  0  0  0
 29 32  1  0  0  0  0
 27 28  1  0  0  0  0
 27 29  1  0  0  0  0
M  END
$$$$
default_name
  -OEChem-01062215323D

 32 32  0     1  0  0  0  0  0999 V2000
   -3.8405   -3.7518    1.6252 H   0  0  0  0  0  0  0  0  0  0  0  0
   -3.7965   -2.8768    0.9782 C   0  0  0  0  0  0  0  0  0  0  0  0
   -4.5465   -2.1527    1.2902 H   0  0  0  0  0  0  0  0  0  0  0  0
   -3.9745   -3.1748   -0.0538 H   0  0  0  0  0  0  0  0  0  0  0  0
   -2.4245   -2.2537    1.0882 C   0  0  0  0  0  0  0  0  0  0  0  0
   -1.5805   -2.7478    1.8242 O   0  0  0  0  0  0  0  0  0  0  0  0
   -2.2045   -1.1637    0.3562 N   0  0  0  0  0  0  0  0  0  0  0  0
   -2.9595   -0.7907   -0.2008 H   0  0  0  0  0  0  0  0  0  0  0  0
   -0.9485   -0.4087    0.3482 C   0  0  1  0  0  0  0  0  0  0  0  0
   -1.0124    0.3816    1.0978 H   0  0  0  0  0  0  0  0  0  0  0  0
    0.2101   -1.3457    0.7304 C   0  0  0  0  0  0  0  0  0  0  0  0
    0.1946   -2.2162    0.0731 H   0  0  0  0  0  0  0  0  0  0  0  0
    1.1549   -0.8262    0.5636 H   0  0  0  0  0  0  0  0  0  0  0  0
    0.1559   -1.8382    2.1640 C   0  0  0  0  0  0  0  0  0  0  0  0
    0.6202   -1.0252    3.2155 C   0  0  0  0  0  0  0  0  0  0  0  0
    1.0401   -0.0519    3.0043 H   0  0  0  0  0  0  0  0  0  0  0  0
    0.5286   -1.4722    4.5466 C   0  0  0  0  0  0  0  0  0  0  0  0
    0.8881   -0.8475    5.3522 H   0  0  0  0  0  0  0  0  0  0  0  0
   -0.0286   -2.7310    4.8288 C   0  0  0  0  0  0  0  0  0  0  0  0
   -0.0968   -3.0753    5.8512 H   0  0  0  0  0  0  0  0  0  0  0  0
   -0.4921   -3.5464    3.7803 C   0  0  0  0  0  0  0  0  0  0  0  0
   -0.9154   -4.5163    3.9967 H   0  0  0  0  0  0  0  0  0  0  0  0
   -0.3974   -3.1009    2.4500 C   0  0  0  0  0  0  0  0  0  0  0  0
   -0.7513   -3.7305    1.6440 H   0  0  0  0  0  0  0  0  0  0  0  0
   -0.7183    0.2602   -1.0189 C   0  0  0  0  0  0  0  0  0  0  0  0
   -0.0960    1.3207   -1.0926 O   0  0  0  0  0  0  0  0  0  0  0  0
   -1.2221   -0.3523   -2.0979 N   0  0  0  0  0  0  0  0  0  0  0  0
   -1.7673   -1.1878   -1.9502 H   0  0  0  0  0  0  0  0  0  0  0  0
   -1.1001    0.1543   -3.4628 C   0  0  0  0  0  0  0  0  0  0  0  0
   -0.0525    0.3673   -3.6858 H   0  0  0  0  0  0  0  0  0  0  0  0
   -1.4762   -0.5823   -4.1733 H   0  0  0  0  0  0  0  0  0  0  0  0
   -1.6728    1.0782   -3.5642 H   0  0  0  0  0  0  0  0  0  0  0  0
  5  6  2  0  0  0  0
  5  7  1  0  0  0  0
  2  3  1  0  0  0  0
  2  4  1  0  0  0  0
  2  5  1  0  0  0  0
  1  2  1  0  0  0  0
 25 26  2  0  0  0  0
 25 27  1  0  0  0  0
 23 24  1  0  0  0  0
 21 22  1  0  0  0  0
 21 23  2  0  0  0  0
 19 20  1  0  0  0  0
 19 21  1  0  0  0  0
 17 18  1  0  0  0  0
 17 19  2  0  0  0  0
 15 16  1  0  0  0  0
 15 17  1  0  0  0  0
 14 15  2  0  0  0  0
 14 23  1  0  0  0  0
 11 12  1  0  0  0  0
 11 13  1  0  0  0  0
 11 14  1  0  0  0  0
  9 10  1  0  0  0  0
  9 11  1  0  0  0  0
  9 25  1  0  0  0  0
  7  8  1  0  0  0  0
  7  9  1  0  0  0  0
 29 30  1  0  0  0  0
 29 31  1  0  0  0  0
 29 32  1  0  0  0  0
 27 28  1  0  0  0  0
 27 29  1  0  0  0  0
M  END
$$$$
default_name
  -OEChem-01062215323D

 32 32  0     1  0  0  0  0  0999 V2000
   -3.8405   -3.7518    1.6252 H   0  0  0  0  0  0  0  0  0  0  0  0
   -3.7965   -2.8768    0.9782 C   0  0  0  0  0  0  0  0  0  0  0  0
   -4.5465   -2.1527    1.2902 H   0  0  0  0  0  0  0  0  0  0  0  0
   -3.9745   -3.1748   -0.0538 H   0  0  0  0  0  0  0  0  0  0  0  0
   -2.4245   -2.2537    1.0882 C   0  0  0  0  0  0  0  0  0  0  0  0
   -1.5805   -2.7478    1.8242 O   0  0  0  0  0  0  0  0  0  0  0  0
   -2.2045   -1.1637    0.3562 N   0  0  0  0  0  0  0  0  0  0  0  0
   -2.9595   -0.7907   -0.2008 H   0  0  0  0  0  0  0  0  0  0  0  0
   -0.9485   -0.4087    0.3482 C   0  0  1  0  0  0  0  0  0  0  0  0
   -1.0124    0.3816    1.0978 H   0  0  0  0  0  0  0  0  0  0  0  0
    0.2101   -1.3457    0.7304 C   0  0  0  0  0  0  0  0  0  0  0  0
    0.1946   -2.2162    0.0731 H   0  0  0  0  0  0  0  0  0  0  0  0
    1.1549   -0.8262    0.5636 H   0  0  0  0  0  0  0  0  0  0  0  0
    0.1559   -1.8382    2.1640 C   0  0  0  0  0  0  0  0  0  0  0  0
    0.6202   -1.0252    3.2155 C   0  0  0  0  0  0  0  0  0  0  0  0
    1.0401   -0.0519    3.0043 H   0  0  0  0  0  0  0  0  0  0  0  0
    0.5286   -1.4722    4.5466 C   0  0  0  0  0  0  0  0  0  0  0  0
    0.8881   -0.8475    5.3522 H   0  0  0  0  0  0  0  0  0  0  0  0
   -0.0286   -2.7310    4.8288 C   0  0  0  0  0  0  0  0  0  0  0  0
   -0.0968   -3.0753    5.8512 H   0  0  0  0  0  0  0  0  0  0  0  0
   -0.4921   -3.5464    3.7803 C   0  0  0  0  0  0  0  0  0  0  0  0
   -0.9154   -4.5163    3.9967 H   0  0  0  0  0  0  0  0  0  0  0  0
   -0.3974   -3.1009    2.4500 C   0  0  0  0  0  0  0  0  0  0  0  0
   -0.7513   -3.7305    1.6440 H   0  0  0  0  0  0  0  0  0  0  0  0
   -0.7183    0.2602   -1.0189 C   0  0  0  0  0  0  0  0  0  0  0  0
    0.1214    1.1535   -1.1378 O   0  0  0  0  0  0  0  0  0  0  0  0
   -1.4639   -0.1647   -2.0469 N   0  0  0  0  0  0  0  0  0  0  0  0
   -2.1690   -0.8607   -1.8578 H   0  0  0  0  0  0  0  0  0  0  0  0
   -1.3757    0.3708   -3.4032 C   0  0  0  0  0  0  0  0  0  0  0  0
   -0.3377    0.3511   -3.7417 H   0  0  0  0  0  0  0  0  0  0  0  0
   -1.9869   -0.2230   -4.0834 H   0  0  0  0  0  0  0  0  0  0  0  0
   -1.7259    1.4048   -3.4133 H   0  0  0  0  0  0  0  0  0  0  0  0
  5  6  2  0  0  0  0
  5  7  1  0  0  0  0
  2  3  1  0  0  0  0
  2  4  1  0  0  0  0
  2  5  1  0  0  0  0
  1  2  1  0  0  0  0
 25 26  2  0  0  0  0
 25 27  1  0  0  0  0
 23 24  1  0  0  0  0
 21 22  1  0  0  0  0
 21 23  2  0  0  0  0
 19 20  1  0  0  0  0
 19 21  1  0  0  0  0
 17 18  1  0  0  0  0
 17 19  2  0  0  0  0
 15 16  1  0  0  0  0
 15 17  1  0  0  0  0
 14 15  2  0  0  0  0
 14 23  1  0  0  0  0
 11 12  1  0  0  0  0
 11 13  1  0  0  0  0
 11 14  1  0  0  0  0
  9 10  1  0  0  0  0
  9 11  1  0  0  0  0
  9 25  1  0  0  0  0
  7  8  1  0  0  0  0
  7  9  1  0  0  0  0
 29 30  1  0  0  0  0
 29 31  1  0  0  0  0
 29 32  1  0  0  0  0
 27 28  1  0  0  0  0
 27 29  1  0  0  0  0
M  END
$$$$
default_name
  -OEChem-01062215323D

 32 32  0     1  0  0  0  0  0999 V2000
   -3.8405   -3.7518    1.6252 H   0  0  0  0  0  0  0  0  0  0  0  0
   -3.7965   -2.8768    0.9782 C   0  0  0  0  0  0  0  0  0  0  0  0
   -4.5465   -2.1527    1.2902 H   0  0  0  0  0  0  0  0  0  0  0  0
   -3.9745   -3.1748   -0.0538 H   0  0  0  0  0  0  0  0  0  0  0  0
   -2.4245   -2.2537    1.0882 C   0  0  0  0  0  0  0  0  0  0  0  0
   -1.5805   -2.7478    1.8242 O   0  0  0  0  0  0  0  0  0  0  0  0
   -2.2045   -1.1637    0.3562 N   0  0  0  0  0  0  0  0  0  0  0  0
   -2.9595   -0.7907   -0.2008 H   0  0  0  0  0  0  0  0  0  0  0  0
   -0.9485   -0.4087    0.3482 C   0  0  1  0  0  0  0  0  0  0  0  0
   -1.0124    0.3816    1.0978 H   0  0  0  0  0  0  0  0  0  0  0  0
    0.2101   -1.3457    0.7304 C   0  0  0  0  0  0  0  0  0  0  0  0
    0.1946   -2.2162    0.0731 H   0  0  0  0  0  0  0  0  0  0  0  0
    1.1549   -0.8262    0.5636 H   0  0  0  0  0  0  0  0  0  0  0  0
    0.1559   -1.8382    2.1640 C   0  0  0  0  0  0  0  0  0  0  0  0
    0.6202   -1.0252    3.2155 C   0  0  0  0  0  0  0  0  0  0  0  0
    1.0401   -0.0519    3.0043 H   0  0  0  0  0  0  0  0  0  0  0  0
    0.5286   -1.4722    4.5466 C   0  0  0  0  0  0  0  0  0  0  0  0
    0.8881   -0.8475    5.3522 H   0  0  0  0  0  0  0  0  0  0  0  0
   -0.0286   -2.7310    4.8288 C   0  0  0  0  0  0  0  0  0  0  0  0
   -0.0968   -3.0753    5.8512 H   0  0  0  0  0  0  0  0  0  0  0  0
   -0.4921   -3.5464    3.7803 C   0  0  0  0  0  0  0  0  0  0  0  0
   -0.9154   -4.5163    3.9967 H   0  0  0  0  0  0  0  0  0  0  0  0
   -0.3974   -3.1009    2.4500 C   0  0  0  0  0  0  0  0  0  0  0  0
   -0.7513   -3.7305    1.6440 H   0  0  0  0  0  0  0  0  0  0  0  0
   -0.7183    0.2602   -1.0189 C   0  0  0  0  0  0  0  0  0  0  0  0
    0.2879    0.9438   -1.2124 O   0  0  0  0  0  0  0  0  0  0  0  0
   -1.6486    0.0701   -1.9631 N   0  0  0  0  0  0  0  0  0  0  0  0
   -2.4713   -0.4560   -1.7107 H   0  0  0  0  0  0  0  0  0  0  0  0
   -1.5855    0.6411   -3.3063 C   0  0  0  0  0  0  0  0  0  0  0  0
   -0.6232    0.4031   -3.7644 H   0  0  0  0  0  0  0  0  0  0  0  0
   -2.3876    0.2381   -3.9253 H   0  0  0  0  0  0  0  0  0  0  0  0
   -1.6851    1.7267   -3.2489 H   0  0  0  0  0  0  0  0  0  0  0  0
  5  6  2  0  0  0  0
  5  7  1  0  0  0  0
  2  3  1  0  0  0  0
  2  4  1  0  0  0  0
  2  5  1  0  0  0  0
  1  2  1  0  0  0  0
 25 26  2  0  0  0  0
 25 27  1  0  0  0  0
 23 24  1  0  0  0  0
 21 22  1  0  0  0  0
 21 23  2  0  0  0  0
 19 20  1  0  0  0  0
 19 21  1  0  0  0  0
 17 18  1  0  0  0  0
 17 19  2  0  0  0  0
 15 16  1  0  0  0  0
 15 17  1  0  0  0  0
 14 15  2  0  0  0  0
 14 23  1  0  0  0  0
 11 12  1  0  0  0  0
 11 13  1  0  0  0  0
 11 14  1  0  0  0  0
  9 10  1  0  0  0  0
  9 11  1  0  0  0  0
  9 25  1  0  0  0  0
  7  8  1  0  0  0  0
  7  9  1  0  0  0  0
 29 30  1  0  0  0  0
 29 31  1  0  0  0  0
 29 32  1  0  0  0  0
 27 28  1  0  0  0  0
 27 29  1  0  0  0  0
M  END
$$$$
default_name
  -OEChem-01062215323D

 32 32  0     1  0  0  0  0  0999 V2000
   -3.8405   -3.7518    1.6252 H   0  0  0  0  0  0  0  0  0  0  0  0
   -3.7965   -2.8768    0.9782 C   0  0  0  0  0  0  0  0  0  0  0  0
   -4.5465   -2.1527    1.2902 H   0  0  0  0  0  0  0  0  0  0  0  0
   -3.9745   -3.1748   -0.0538 H   0  0  0  0  0  0  0  0  0  0  0  0
   -2.4245   -2.2537    1.0882 C   0  0  0  0  0  0  0  0  0  0  0  0
   -1.5805   -2.7478    1.8242 O   0  0  0  0  0  0  0  0  0  0  0  0
   -2.2045   -1.1637    0.3562 N   0  0  0  0  0  0  0  0  0  0  0  0
   -2.9595   -0.7907   -0.2008 H   0  0  0  0  0  0  0  0  0  0  0  0
   -0.9485   -0.4087    0.3482 C   0  0  1  0  0  0  0  0  0  0  0  0
   -1.0124    0.3816    1.0978 H   0  0  0  0  0  0  0  0  0  0  0  0
    0.2101   -1.3457    0.7304 C   0  0  0  0  0  0  0  0  0  0  0  0
    0.1946   -2.2162    0.0731 H   0  0  0  0  0  0  0  0  0  0  0  0
    1.1549   -0.8262    0.5636 H   0  0  0  0  0  0  0  0  0  0  0  0
    0.1559   -1.8382    2.1640 C   0  0  0  0  0  0  0  0  0  0  0  0
    0.6202   -1.0252    3.2155 C   0  0  0  0  0  0  0  0  0  0  0  0
    1.0401   -0.0519    3.0043 H   0  0  0  0  0  0  0  0  0  0  0  0
    0.5286   -1.4722    4.5466 C   0  0  0  0  0  0  0  0  0  0  0  0
    0.8881   -0.8475    5.3522 H   0  0  0  0  0  0  0  0  0  0  0  0
   -0.0286   -2.7310    4.8288 C   0  0  0  0  0  0  0  0  0  0  0  0
   -0.0968   -3.0753    5.8512 H   0  0  0  0  0  0  0  0  0  0  0  0
   -0.4921   -3.5464    3.7803 C   0  0  0  0  0  0  0  0  0  0  0  0
   -0.9154   -4.5163    3.9967 H   0  0  0  0  0  0  0  0  0  0  0  0
   -0.3974   -3.1009    2.4500 C   0  0  0  0  0  0  0  0  0  0  0  0
   -0.7513   -3.7305    1.6440 H   0  0  0  0  0  0  0  0  0  0  0  0
   -0.7183    0.2602   -1.0189 C   0  0  0  0  0  0  0  0  0  0  0  0
    0.3922    0.7059   -1.3113 O   0  0  0  0  0  0  0  0  0  0  0  0
   -1.7637    0.3361   -1.8523 N   0  0  0  0  0  0  0  0  0  0  0  0
   -2.6538   -0.0012   -1.5189 H   0  0  0  0  0  0  0  0  0  0  0  0
   -1.7152    0.9466   -3.1787 C   0  0  0  0  0  0  0  0  0  0  0  0
   -0.8895    0.5198   -3.7521 H   0  0  0  0  0  0  0  0  0  0  0  0
   -2.6509    0.7694   -3.7097 H   0  0  0  0  0  0  0  0  0  0  0  0
   -1.5533    2.0219   -3.0823 H   0  0  0  0  0  0  0  0  0  0  0  0
  5  6  2  0  0  0  0
  5  7  1  0  0  0  0
  2  3  1  0  0  0  0
  2  4  1  0  0  0  0
  2  5  1  0  0  0  0
  1  2  1  0  0  0  0
 25 26  2  0  0  0  0
 25 27  1  0  0  0  0
 23 24  1  0  0  0  0
 21 22  1  0  0  0  0
 21 23  2  0  0  0  0
 19 20  1  0  0  0  0
 19 21  1  0  0  0  0
 17 18  1  0  0  0  0
 17 19  2  0  0  0  0
 15 16  1  0  0  0  0
 15 17  1  0  0  0  0
 14 15  2  0  0  0  0
 14 23  1  0  0  0  0
 11 12  1  0  0  0  0
 11 13  1  0  0  0  0
 11 14  1  0  0  0  0
  9 10  1  0  0  0  0
  9 11  1  0  0  0  0
  9 25  1  0  0  0  0
  7  8  1  0  0  0  0
  7  9  1  0  0  0  0
 29 30  1  0  0  0  0
 29 31  1  0  0  0  0
 29 32  1  0  0  0  0
 27 28  1  0  0  0  0
 27 29  1  0  0  0  0
M  END
$$$$
default_name
  -OEChem-01062215323D

 32 32  0     1  0  0  0  0  0999 V2000
   -3.8405   -3.7518    1.6252 H   0  0  0  0  0  0  0  0  0  0  0  0
   -3.7965   -2.8768    0.9782 C   0  0  0  0  0  0  0  0  0  0  0  0
   -4.5465   -2.1527    1.2902 H   0  0  0  0  0  0  0  0  0  0  0  0
   -3.9745   -3.1748   -0.0538 H   0  0  0  0  0  0  0  0  0  0  0  0
   -2.4245   -2.2537    1.0882 C   0  0  0  0  0  0  0  0  0  0  0  0
   -1.5805   -2.7478    1.8242 O   0  0  0  0  0  0  0  0  0  0  0  0
   -2.2045   -1.1637    0.3562 N   0  0  0  0  0  0  0  0  0  0  0  0
   -2.9595   -0.7907   -0.2008 H   0  0  0  0  0  0  0  0  0  0  0  0
   -0.9485   -0.4087    0.3482 C   0  0  1  0  0  0  0  0  0  0  0  0
   -1.0124    0.3816    1.0978 H   0  0  0  0  0  0  0  0  0  0  0  0
    0.2101   -1.3457    0.7304 C   0  0  0  0  0  0  0  0  0  0  0  0
    0.1946   -2.2162    0.0731 H   0  0  0  0  0  0  0  0  0  0  0  0
    1.1549   -0.8262    0.5636 H   0  0  0  0  0  0  0  0  0  0  0  0
    0.1559   -1.8382    2.1640 C   0  0  0  0  0  0  0  0  0  0  0  0
    0.6202   -1.0252    3.2155 C   0  0  0  0  0  0  0  0  0  0  0  0
    1.0401   -0.0519    3.0043 H   0  0  0  0  0  0  0  0  0  0  0  0
    0.5286   -1.4722    4.5466 C   0  0  0  0  0  0  0  0  0  0  0  0
    0.8881   -0.8475    5.3522 H   0  0  0  0  0  0  0  0  0  0  0  0
   -0.0286   -2.7310    4.8288 C   0  0  0  0  0  0  0  0  0  0  0  0
   -0.0968   -3.0753    5.8512 H   0  0  0  0  0  0  0  0  0  0  0  0
   -0.4921   -3.5464    3.7803 C   0  0  0  0  0  0  0  0  0  0  0  0
   -0.9154   -4.5163    3.9967 H   0  0  0  0  0  0  0  0  0  0  0  0
   -0.3974   -3.1009    2.4500 C   0  0  0  0  0  0  0  0  0  0  0  0
   -0.7513   -3.7305    1.6440 H   0  0  0  0  0  0  0  0  0  0  0  0
   -0.7183    0.2602   -1.0189 C   0  0  0  0  0  0  0  0  0  0  0  0
    0.4271    0.4559   -1.4277 O   0  0  0  0  0  0  0  0  0  0  0  0
   -1.8012    0.6152   -1.7221 N   0  0  0  0  0  0  0  0  0  0  0  0
   -2.7040    0.4725   -1.2955 H   0  0  0  0  0  0  0  0  0  0  0  0
   -1.7558    1.2665   -3.0290 C   0  0  0  0  0  0  0  0  0  0  0  0
   -1.1186    0.6934   -3.7057 H   0  0  0  0  0  0  0  0  0  0  0  0
   -2.7587    1.3348   -3.4512 H   0  0  0  0  0  0  0  0  0  0  0  0
   -1.3393    2.2703   -2.9248 H   0  0  0  0  0  0  0  0  0  0  0  0
  5  6  2  0  0  0  0
  5  7  1  0  0  0  0
  2  3  1  0  0  0  0
  2  4  1  0  0  0  0
  2  5  1  0  0  0  0
  1  2  1  0  0  0  0
 25 26  2  0  0  0  0
 25 27  1  0  0  0  0
 23 24  1  0  0  0  0
 21 22  1  0  0  0  0
 21 23  2  0  0  0  0
 19 20  1  0  0  0  0
 19 21  1  0  0  0  0
 17 18  1  0  0  0  0
 17 19  2  0  0  0  0
 15 16  1  0  0  0  0
 15 17  1  0  0  0  0
 14 15  2  0  0  0  0
 14 23  1  0  0  0  0
 11 12  1  0  0  0  0
 11 13  1  0  0  0  0
 11 14  1  0  0  0  0
  9 10  1  0  0  0  0
  9 11  1  0  0  0  0
  9 25  1  0  0  0  0
  7  8  1  0  0  0  0
  7  9  1  0  0  0  0
 29 30  1  0  0  0  0
 29 31  1  0  0  0  0
 29 32  1  0  0  0  0
 27 28  1  0  0  0  0
 27 29  1  0  0  0  0
M  END
$$$$
default_name
  -OEChem-01062215323D

 32 32  0     1  0  0  0  0  0999 V2000
   -3.8405   -3.7518    1.6252 H   0  0  0  0  0  0  0  0  0  0  0  0
   -3.7965   -2.8768    0.9782 C   0  0  0  0  0  0  0  0  0  0  0  0
   -4.5465   -2.1527    1.2902 H   0  0  0  0  0  0  0  0  0  0  0  0
   -3.9745   -3.1748   -0.0538 H   0  0  0  0  0  0  0  0  0  0  0  0
   -2.4245   -2.2537    1.0882 C   0  0  0  0  0  0  0  0  0  0  0  0
   -1.5805   -2.7478    1.8242 O   0  0  0  0  0  0  0  0  0  0  0  0
   -2.2045   -1.1637    0.3562 N   0  0  0  0  0  0  0  0  0  0  0  0
   -2.9595   -0.7907   -0.2008 H   0  0  0  0  0  0  0  0  0  0  0  0
   -0.9485   -0.4087    0.3482 C   0  0  1  0  0  0  0  0  0  0  0  0
   -1.0124    0.3816    1.0978 H   0  0  0  0  0  0  0  0  0  0  0  0
    0.2101   -1.3457    0.7304 C   0  0  0  0  0  0  0  0  0  0  0  0
    0.1946   -2.2162    0.0731 H   0  0  0  0  0  0  0  0  0  0  0  0
    1.1549   -0.8262    0.5636 H   0  0  0  0  0  0  0  0  0  0  0  0
    0.1559   -1.8382    2.1640 C   0  0  0  0  0  0  0  0  0  0  0  0
    0.6202   -1.0252    3.2155 C   0  0  0  0  0  0  0  0  0  0  0  0
    1.0401   -0.0519    3.0043 H   0  0  0  0  0  0  0  0  0  0  0  0
    0.5286   -1.4722    4.5466 C   0  0  0  0  0  0  0  0  0  0  0  0
    0.8881   -0.8475    5.3522 H   0  0  0  0  0  0  0  0  0  0  0  0
   -0.0286   -2.7310    4.8288 C   0  0  0  0  0  0  0  0  0  0  0  0
   -0.0968   -3.0753    5.8512 H   0  0  0  0  0  0  0  0  0  0  0  0
   -0.4921   -3.5464    3.7803 C   0  0  0  0  0  0  0  0  0  0  0  0
   -0.9154   -4.5163    3.9967 H   0  0  0  0  0  0  0  0  0  0  0  0
   -0.3974   -3.1009    2.4500 C   0  0  0  0  0  0  0  0  0  0  0  0
   -0.7513   -3.7305    1.6440 H   0  0  0  0  0  0  0  0  0  0  0  0
   -0.7183    0.2602   -1.0189 C   0  0  0  0  0  0  0  0  0  0  0  0
    0.3902    0.2109   -1.5538 O   0  0  0  0  0  0  0  0  0  0  0  0
   -1.7587    0.8883   -1.5813 N   0  0  0  0  0  0  0  0  0  0  0  0
   -2.6184    0.9330   -1.0558 H   0  0  0  0  0  0  0  0  0  0  0  0
   -1.7046    1.5791   -2.8674 C   0  0  0  0  0  0  0  0  0  0  0  0
   -1.2948    0.9118   -3.6285 H   0  0  0  0  0  0  0  0  0  0  0  0
   -2.7039    1.8957   -3.1675 H   0  0  0  0  0  0  0  0  0  0  0  0
   -1.0578    2.4549   -2.7870 H   0  0  0  0  0  0  0  0  0  0  0  0
  5  6  2  0  0  0  0
  5  7  1  0  0  0  0
  2  3  1  0  0  0  0
  2  4  1  0  0  0  0
  2  5  1  0  0  0  0
  1  2  1  0  0  0  0
 25 26  2  0  0  0  0
 25 27  1  0  0  0  0
 23 24  1  0  0  0  0
 21 22  1  0  0  0  0
 21 23  2  0  0  0  0
 19 20  1  0  0  0  0
 19 21  1  0  0  0  0
 17 18  1  0  0  0  0
 17 19  2  0  0  0  0
 15 16  1  0  0  0  0
 15 17  1  0  0  0  0
 14 15  2  0  0  0  0
 14 23  1  0  0  0  0
 11 12  1  0  0  0  0
 11 13  1  0  0  0  0
 11 14  1  0  0  0  0
  9 10  1  0  0  0  0
  9 11  1  0  0  0  0
  9 25  1  0  0  0  0
  7  8  1  0  0  0  0
  7  9  1  0  0  0  0
 29 30  1  0  0  0  0
 29 31  1  0  0  0  0
 29 32  1  0  0  0  0
 27 28  1  0  0  0  0
 27 29  1  0  0  0  0
M  END
$$$$
default_name
  -OEChem-01062215323D

 32 32  0     1  0  0  0  0  0999 V2000
   -3.8405   -3.7518    1.6252 H   0  0  0  0  0  0  0  0  0  0  0  0
   -3.7965   -2.8768    0.9782 C   0  0  0  0  0  0  0  0  0  0  0  0
   -4.5465   -2.1527    1.2902 H   0  0  0  0  0  0  0  0  0  0  0  0
   -3.9745   -3.1748   -0.0538 H   0  0  0  0  0  0  0  0  0  0  0  0
   -2.4245   -2.2537    1.0882 C   0  0  0  0  0  0  0  0  0  0  0  0
   -1.5805   -2.7478    1.8242 O   0  0  0  0  0  0  0  0  0  0  0  0
   -2.2045   -1.1637    0.3562 N   0  0  0  0  0  0  0  0  0  0  0  0
   -2.9595   -0.7907   -0.2008 H   0  0  0  0  0  0  0  0  0  0  0  0
   -0.9485   -0.4087    0.3482 C   0  0  1  0  0  0  0  0  0  0  0  0
   -1.0124    0.3816    1.0978 H   0  0  0  0  0  0  0  0  0  0  0  0
    0.2101   -1.3457    0.7304 C   0  0  0  0  0  0  0  0  0  0  0  0
    0.1946   -2.2162    0.0731 H   0  0  0  0  0  0  0  0  0  0  0  0
    1.1549   -0.8262    0.5636 H   0  0  0  0  0  0  0  0  0  0  0  0
    0.1559   -1.8382    2.1640 C   0  0  0  0  0  0  0  0  0  0  0  0
    0.6202   -1.0252    3.2155 C   0  0  0  0  0  0  0  0  0  0  0  0
    1.0401   -0.0519    3.0043 H   0  0  0  0  0  0  0  0  0  0  0  0
    0.5286   -1.4722    4.5466 C   0  0  0  0  0  0  0  0  0  0  0  0
    0.8881   -0.8475    5.3522 H   0  0  0  0  0  0  0  0  0  0  0  0
   -0.0286   -2.7310    4.8288 C   0  0  0  0  0  0  0  0  0  0  0  0
   -0.0968   -3.0753    5.8512 H   0  0  0  0  0  0  0  0  0  0  0  0
   -0.4921   -3.5464    3.7803 C   0  0  0  0  0  0  0  0  0  0  0  0
   -0.9154   -4.5163    3.9967 H   0  0  0  0  0  0  0  0  0  0  0  0
   -0.3974   -3.1009    2.4500 C   0  0  0  0  0  0  0  0  0  0  0  0
   -0.7513   -3.7305    1.6440 H   0  0  0  0  0  0  0  0  0  0  0  0
   -0.7183    0.2602   -1.0189 C   0  0  0  0  0  0  0  0  0  0  0  0
    0.2842   -0.0123   -1.6809 O   0  0  0  0  0  0  0  0  0  0  0  0
   -1.6389    1.1370   -1.4395 N   0  0  0  0  0  0  0  0  0  0  0  0
   -2.4029    1.3489   -0.8160 H   0  0  0  0  0  0  0  0  0  0  0  0
   -1.5652    1.8630   -2.7050 C   0  0  0  0  0  0  0  0  0  0  0  0
   -1.4060    1.1603   -3.5256 H   0  0  0  0  0  0  0  0  0  0  0  0
   -2.4901    2.4140   -2.8779 H   0  0  0  0  0  0  0  0  0  0  0  0
   -0.7280    2.5632   -2.6785 H   0  0  0  0  0  0  0  0  0  0  0  0
  5  6  2  0  0  0  0
  5  7  1  0  0  0  0
  2  3  1  0  0  0  0
  2  4  1  0  0  0  0
  2  5  1  0  0  0  0
  1  2  1  0  0  0  0
 25 26  2  0  0  0  0
 25 27  1  0  0  0  0
 23 24  1  0  0  0  0
 21 22  1  0  0  0  0
 21 23  2  0  0  0  0
 19 20  1  0  0  0  0
 19 21  1  0  0  0  0
 17 18  1  0  0  0  0
 17 19  2  0  0  0  0
 15 16  1  0  0  0  0
 15 17  1  0  0  0  0
 14 15  2  0  0  0  0
 14 23  1  0  0  0  0
 11 12  1  0  0  0  0
 11 13  1  0  0  0  0
 11 14  1  0  0  0  0
  9 10  1  0  0  0  0
  9 11  1  0  0  0  0
  9 25  1  0  0  0  0
  7  8  1  0  0  0  0
  7  9  1  0  0  0  0
 29 30  1  0  0  0  0
 29 31  1  0  0  0  0
 29 32  1  0  0  0  0
 27 28  1  0  0  0  0
 27 29  1  0  0  0  0
M  END
$$$$
default_name
  -OEChem-01062215323D

 32 32  0     1  0  0  0  0  0999 V2000
   -3.8405   -3.7518    1.6252 H   0  0  0  0  0  0  0  0  0  0  0  0
   -3.7965   -2.8768    0.9782 C   0  0  0  0  0  0  0  0  0  0  0  0
   -4.5465   -2.1527    1.2902 H   0  0  0  0  0  0  0  0  0  0  0  0
   -3.9745   -3.1748   -0.0538 H   0  0  0  0  0  0  0  0  0  0  0  0
   -2.4245   -2.2537    1.0882 C   0  0  0  0  0  0  0  0  0  0  0  0
   -1.5805   -2.7478    1.8242 O   0  0  0  0  0  0  0  0  0  0  0  0
   -2.2045   -1.1637    0.3562 N   0  0  0  0  0  0  0  0  0  0  0  0
   -2.9595   -0.7907   -0.2008 H   0  0  0  0  0  0  0  0  0  0  0  0
   -0.9485   -0.4087    0.3482 C   0  0  1  0  0  0  0  0  0  0  0  0
   -1.0124    0.3816    1.0978 H   0  0  0  0  0  0  0  0  0  0  0  0
    0.2101   -1.3457    0.7304 C   0  0  0  0  0  0  0  0  0  0  0  0
    0.1946   -2.2162    0.0731 H   0  0  0  0  0  0  0  0  0  0  0  0
    1.1549   -0.8262    0.5636 H   0  0  0  0  0  0  0  0  0  0  0  0
    0.1559   -1.8382    2.1640 C   0  0  0  0  0  0  0  0  0  0  0  0
    0.6202   -1.0252    3.2155 C   0  0  0  0  0  0  0  0  0  0  0  0
    1.0401   -0.0519    3.0043 H   0  0  0  0  0  0  0  0  0  0  0  0
    0.5286   -1.4722    4.5466 C   0  0  0  0  0  0  0  0  0  0  0  0
    0.8881   -0.8475    5.3522 H   0  0  0  0  0  0  0  0  0  0  0  0
   -0.0286   -2.7310    4.8288 C   0  0  0  0  0  0  0  0  0  0  0  0
   -0.0968   -3.0753    5.8512 H   0  0  0  0  0  0  0  0  0  0  0  0
   -0.4921   -3.5464    3.7803 C   0  0  0  0  0  0  0  0  0  0  0  0
   -0.9154   -4.5163    3.9967 H   0  0  0  0  0  0  0  0  0  0  0  0
   -0.3974   -3.1009    2.4500 C   0  0  0  0  0  0  0  0  0  0  0  0
   -0.7513   -3.7305    1.6440 H   0  0  0  0  0  0  0  0  0  0  0  0
   -0.7183    0.2602   -1.0189 C   0  0  0  0  0  0  0  0  0  0  0  0
    0.1161   -0.1987   -1.8004 O   0  0  0  0  0  0  0  0  0  0  0  0
   -1.4502    1.3441   -1.3063 N   0  0  0  0  0  0  0  0  0  0  0  0
   -2.0722    1.6918   -0.5926 H   0  0  0  0  0  0  0  0  0  0  0  0
   -1.3470    2.0989   -2.5529 C   0  0  0  0  0  0  0  0  0  0  0  0
   -1.4448    1.4220   -3.4042 H   0  0  0  0  0  0  0  0  0  0  0  0
   -2.1319    2.8542   -2.6022 H   0  0  0  0  0  0  0  0  0  0  0  0
   -0.3724    2.5878   -2.6066 H   0  0  0  0  0  0  0  0  0  0  0  0
  5  6  2  0  0  0  0
  5  7  1  0  0  0  0
  2  3  1  0  0  0  0
  2  4  1  0  0  0  0
  2  5  1  0  0  0  0
  1  2  1  0  0  0  0
 25 26  2  0  0  0  0
 25 27  1  0  0  0  0
 23 24  1  0  0  0  0
 21 22  1  0  0  0  0
 21 23  2  0  0  0  0
 19 20  1  0  0  0  0
 19 21  1  0  0  0  0
 17 18  1  0  0  0  0
 17 19  2  0  0  0  0
 15 16  1  0  0  0  0
 15 17  1  0  0  0  0
 14 15  2  0  0  0  0
 14 23  1  0  0  0  0
 11 12  1  0  0  0  0
 11 13  1  0  0  0  0
 11 14  1  0  0  0  0
  9 10  1  0  0  0  0
  9 11  1  0  0  0  0
  9 25  1  0  0  0  0
  7  8  1  0  0  0  0
  7  9  1  0  0  0  0
 29 30  1  0  0  0  0
 29 31  1  0  0  0  0
 29 32  1  0  0  0  0
 27 28  1  0  0  0  0
 27 29  1  0  0  0  0
M  END
$$$$
default_name
  -OEChem-01062215323D

 32 32  0     1  0  0  0  0  0999 V2000
   -3.8405   -3.7518    1.6252 H   0  0  0  0  0  0  0  0  0  0  0  0
   -3.7965   -2.8768    0.9782 C   0  0  0  0  0  0  0  0  0  0  0  0
   -4.5465   -2.1527    1.2902 H   0  0  0  0  0  0  0  0  0  0  0  0
   -3.9745   -3.1748   -0.0538 H   0  0  0  0  0  0  0  0  0  0  0  0
   -2.4245   -2.2537    1.0882 C   0  0  0  0  0  0  0  0  0  0  0  0
   -1.5805   -2.7478    1.8242 O   0  0  0  0  0  0  0  0  0  0  0  0
   -2.2045   -1.1637    0.3562 N   0  0  0  0  0  0  0  0  0  0  0  0
   -2.9595   -0.7907   -0.2008 H   0  0  0  0  0  0  0  0  0  0  0  0
   -0.9485   -0.4087    0.3482 C   0  0  1  0  0  0  0  0  0  0  0  0
   -1.0124    0.3816    1.0978 H   0  0  0  0  0  0  0  0  0  0  0  0
    0.2101   -1.3457    0.7304 C   0  0  0  0  0  0  0  0  0  0  0  0
    0.1946   -2.2162    0.0731 H   0  0  0  0  0  0  0  0  0  0  0  0
    1.1549   -0.8262    0.5636 H   0  0  0  0  0  0  0  0  0  0  0  0
    0.1559   -1.8382    2.1640 C   0  0  0  0  0  0  0  0  0  0  0  0
    0.6202   -1.0252    3.2155 C   0  0  0  0  0  0  0  0  0  0  0  0
    1.0401   -0.0519    3.0043 H   0  0  0  0  0  0  0  0  0  0  0  0
    0.5286   -1.4722    4.5466 C   0  0  0  0  0  0  0  0  0  0  0  0
    0.8881   -0.8475    5.3522 H   0  0  0  0  0  0  0  0  0  0  0  0
   -0.0286   -2.7310    4.8288 C   0  0  0  0  0  0  0  0  0  0  0  0
   -0.0968   -3.0753    5.8512 H   0  0  0  0  0  0  0  0  0  0  0  0
   -0.4921   -3.5464    3.7803 C   0  0  0  0  0  0  0  0  0  0  0  0
   -0.9154   -4.5163    3.9967 H   0  0  0  0  0  0  0  0  0  0  0  0
   -0.3974   -3.1009    2.4500 C   0  0  0  0  0  0  0  0  0  0  0  0
   -0.7513   -3.7305    1.6440 H   0  0  0  0  0  0  0  0  0  0  0  0
   -0.7183    0.2602   -1.0189 C   0  0  0  0  0  0  0  0  0  0  0  0
   -0.1026   -0.3355   -1.9041 O   0  0  0  0  0  0  0  0  0  0  0  0
   -1.2052    1.4956   -1.1909 N   0  0  0  0  0  0  0  0  0  0  0  0
   -1.6488    1.9384   -0.4007 H   0  0  0  0  0  0  0  0  0  0  0  0
   -1.0649    2.2708   -2.4213 C   0  0  0  0  0  0  0  0  0  0  0  0
   -1.4084    1.6789   -3.2723 H   0  0  0  0  0  0  0  0  0  0  0  0
   -1.6537    3.1864   -2.3592 H   0  0  0  0  0  0  0  0  0  0  0  0
   -0.0151    2.5270   -2.5762 H   0  0  0  0  0  0  0  0  0  0  0  0
  5  6  2  0  0  0  0
  5  7  1  0  0  0  0
  2  3  1  0  0  0  0
  2  4  1  0  0  0  0
  2  5  1  0  0  0  0
  1  2  1  0  0  0  0
 25 26  2  0  0  0  0
 25 27  1  0  0  0  0
 23 24  1  0  0  0  0
 21 22  1  0  0  0  0
 21 23  2  0  0  0  0
 19 20  1  0  0  0  0
 19 21  1  0  0  0  0
 17 18  1  0  0  0  0
 17 19  2  0  0  0  0
 15 16  1  0  0  0  0
 15 17  1  0  0  0  0
 14 15  2  0  0  0  0
 14 23  1  0  0  0  0
 11 12  1  0  0  0  0
 11 13  1  0  0  0  0
 11 14  1  0  0  0  0
  9 10  1  0  0  0  0
  9 11  1  0  0  0  0
  9 25  1  0  0  0  0
  7  8  1  0  0  0  0
  7  9  1  0  0  0  0
 29 30  1  0  0  0  0
 29 31  1  0  0  0  0
 29 32  1  0  0  0  0
 27 28  1  0  0  0  0
 27 29  1  0  0  0  0
M  END
$$$$
default_name
  -OEChem-01062215323D

 32 32  0     1  0  0  0  0  0999 V2000
   -3.8405   -3.7518    1.6252 H   0  0  0  0  0  0  0  0  0  0  0  0
   -3.7965   -2.8768    0.9782 C   0  0  0  0  0  0  0  0  0  0  0  0
   -4.5465   -2.1527    1.2902 H   0  0  0  0  0  0  0  0  0  0  0  0
   -3.9745   -3.1748   -0.0538 H   0  0  0  0  0  0  0  0  0  0  0  0
   -2.4245   -2.2537    1.0882 C   0  0  0  0  0  0  0  0  0  0  0  0
   -1.5805   -2.7478    1.8242 O   0  0  0  0  0  0  0  0  0  0  0  0
   -2.2045   -1.1637    0.3562 N   0  0  0  0  0  0  0  0  0  0  0  0
   -2.9595   -0.7907   -0.2008 H   0  0  0  0  0  0  0  0  0  0  0  0
   -0.9485   -0.4087    0.3482 C   0  0  1  0  0  0  0  0  0  0  0  0
   -1.0124    0.3816    1.0978 H   0  0  0  0  0  0  0  0  0  0  0  0
    0.2101   -1.3457    0.7304 C   0  0  0  0  0  0  0  0  0  0  0  0
    0.1946   -2.2162    0.0731 H   0  0  0  0  0  0  0  0  0  0  0  0
    1.1549   -0.8262    0.5636 H   0  0  0  0  0  0  0  0  0  0  0  0
    0.1559   -1.8382    2.1640 C   0  0  0  0  0  0  0  0  0  0  0  0
    0.6202   -1.0252    3.2155 C   0  0  0  0  0  0  0  0  0  0  0  0
    1.0401   -0.0519    3.0043 H   0  0  0  0  0  0  0  0  0  0  0  0
    0.5286   -1.4722    4.5466 C   0  0  0  0  0  0  0  0  0  0  0  0
    0.8881   -0.8475    5.3522 H   0  0  0  0  0  0  0  0  0  0  0  0
   -0.0286   -2.7310    4.8288 C   0  0  0  0  0  0  0  0  0  0  0  0
   -0.0968   -3.0753    5.8512 H   0  0  0  0  0  0  0  0  0  0  0  0
   -0.4921   -3.5464    3.7803 C   0  0  0  0  0  0  0  0  0  0  0  0
   -0.9154   -4.5163    3.9967 H   0  0  0  0  0  0  0  0  0  0  0  0
   -0.3974   -3.1009    2.4500 C   0  0  0  0  0  0  0  0  0  0  0  0
   -0.7513   -3.7305    1.6440 H   0  0  0  0  0  0  0  0  0  0  0  0
   -0.7183    0.2602   -1.0189 C   0  0  0  0  0  0  0  0  0  0  0  0
   -0.3569   -0.4133   -1.9850 O   0  0  0  0  0  0  0  0  0  0  0  0
   -0.9208    1.5813   -1.1012 N   0  0  0  0  0  0  0  0  0  0  0  0
   -1.1616    2.0717   -0.2534 H   0  0  0  0  0  0  0  0  0  0  0  0
   -0.7381    2.3668   -2.3193 C   0  0  0  0  0  0  0  0  0  0  0  0
   -1.2994    1.9137   -3.1391 H   0  0  0  0  0  0  0  0  0  0  0  0
   -1.0881    3.3879   -2.1653 H   0  0  0  0  0  0  0  0  0  0  0  0
    0.3195    2.3850   -2.5893 H   0  0  0  0  0  0  0  0  0  0  0  0
  5  6  2  0  0  0  0
  5  7  1  0  0  0  0
  2  3  1  0  0  0  0
  2  4  1  0  0  0  0
  2  5  1  0  0  0  0
  1  2  1  0  0  0  0
 25 26  2  0  0  0  0
 25 27  1  0  0  0  0
 23 24  1  0  0  0  0
 21 22  1  0  0  0  0
 21 23  2  0  0  0  0
 19 20  1  0  0  0  0
 19 21  1  0  0  0  0
 17 18  1  0  0  0  0
 17 19  2  0  0  0  0
 15 16  1  0  0  0  0
 15 17  1  0  0  0  0
 14 15  2  0  0  0  0
 14 23  1  0  0  0  0
 11 12  1  0  0  0  0
 11 13  1  0  0  0  0
 11 14  1  0  0  0  0
  9 10  1  0  0  0  0
  9 11  1  0  0  0  0
  9 25  1  0  0  0  0
  7  8  1  0  0  0  0
  7  9  1  0  0  0  0
 29 30  1  0  0  0  0
 29 31  1  0  0  0  0
 29 32  1  0  0  0  0
 27 28  1  0  0  0  0
 27 29  1  0  0  0  0
M  END
$$$$
default_name
  -OEChem-01062215323D

 32 32  0     1  0  0  0  0  0999 V2000
   -3.8405   -3.7518    1.6252 H   0  0  0  0  0  0  0  0  0  0  0  0
   -3.7965   -2.8768    0.9782 C   0  0  0  0  0  0  0  0  0  0  0  0
   -4.5465   -2.1527    1.2902 H   0  0  0  0  0  0  0  0  0  0  0  0
   -3.9745   -3.1748   -0.0538 H   0  0  0  0  0  0  0  0  0  0  0  0
   -2.4245   -2.2537    1.0882 C   0  0  0  0  0  0  0  0  0  0  0  0
   -1.5805   -2.7478    1.8242 O   0  0  0  0  0  0  0  0  0  0  0  0
   -2.2045   -1.1637    0.3562 N   0  0  0  0  0  0  0  0  0  0  0  0
   -2.9595   -0.7907   -0.2008 H   0  0  0  0  0  0  0  0  0  0  0  0
   -0.9485   -0.4087    0.3482 C   0  0  1  0  0  0  0  0  0  0  0  0
   -1.0124    0.3816    1.0978 H   0  0  0  0  0  0  0  0  0  0  0  0
    0.2101   -1.3457    0.7304 C   0  0  0  0  0  0  0  0  0  0  0  0
    0.1946   -2.2162    0.0731 H   0  0  0  0  0  0  0  0  0  0  0  0
    1.1549   -0.8262    0.5636 H   0  0  0  0  0  0  0  0  0  0  0  0
    0.1559   -1.8382    2.1640 C   0  0  0  0  0  0  0  0  0  0  0  0
    0.6202   -1.0252    3.2155 C   0  0  0  0  0  0  0  0  0  0  0  0
    1.0401   -0.0519    3.0043 H   0  0  0  0  0  0  0  0  0  0  0  0
    0.5286   -1.4722    4.5466 C   0  0  0  0  0  0  0  0  0  0  0  0
    0.8881   -0.8475    5.3522 H   0  0  0  0  0  0  0  0  0  0  0  0
   -0.0286   -2.7310    4.8288 C   0  0  0  0  0  0  0  0  0  0  0  0
   -0.0968   -3.0753    5.8512 H   0  0  0  0  0  0  0  0  0  0  0  0
   -0.4921   -3.5464    3.7803 C   0  0  0  0  0  0  0  0  0  0  0  0
   -0.9154   -4.5163    3.9967 H   0  0  0  0  0  0  0  0  0  0  0  0
   -0.3974   -3.1009    2.4500 C   0  0  0  0  0  0  0  0  0  0  0  0
   -0.7513   -3.7305    1.6440 H   0  0  0  0  0  0  0  0  0  0  0  0
   -0.7183    0.2602   -1.0189 C   0  0  0  0  0  0  0  0  0  0  0  0
   -0.6295   -0.4269   -2.0375 O   0  0  0  0  0  0  0  0  0  0  0  0
   -0.6164    1.5951   -1.0431 N   0  0  0  0  0  0  0  0  0  0  0  0
   -0.6438    2.0829   -0.1607 H   0  0  0  0  0  0  0  0  0  0  0  0
   -0.3889    2.3805   -2.2538 C   0  0  0  0  0  0  0  0  0  0  0  0
   -1.1251    2.1102   -3.0136 H   0  0  0  0  0  0  0  0  0  0  0  0
   -0.4736    3.4451   -2.0339 H   0  0  0  0  0  0  0  0  0  0  0  0
    0.6086    2.1715   -2.6452 H   0  0  0  0  0  0  0  0  0  0  0  0
  5  6  2  0  0  0  0
  5  7  1  0  0  0  0
  2  3  1  0  0  0  0
  2  4  1  0  0  0  0
  2  5  1  0  0  0  0
  1  2  1  0  0  0  0
 25 26  2  0  0  0  0
 25 27  1  0  0  0  0
 23 24  1  0  0  0  0
 21 22  1  0  0  0  0
 21 23  2  0  0  0  0
 19 20  1  0  0  0  0
 19 21  1  0  0  0  0
 17 18  1  0  0  0  0
 17 19  2  0  0  0  0
 15 16  1  0  0  0  0
 15 17  1  0  0  0  0
 14 15  2  0  0  0  0
 14 23  1  0  0  0  0
 11 12  1  0  0  0  0
 11 13  1  0  0  0  0
 11 14  1  0  0  0  0
  9 10  1  0  0  0  0
  9 11  1  0  0  0  0
  9 25  1  0  0  0  0
  7  8  1  0  0  0  0
  7  9  1  0  0  0  0
 29 30  1  0  0  0  0
 29 31  1  0  0  0  0
 29 32  1  0  0  0  0
 27 28  1  0  0  0  0
 27 29  1  0  0  0  0
M  END
$$$$
default_name
  -OEChem-01062215323D

 32 32  0     1  0  0  0  0  0999 V2000
   -3.8405   -3.7518    1.6252 H   0  0  0  0  0  0  0  0  0  0  0  0
   -3.7965   -2.8768    0.9782 C   0  0  0  0  0  0  0  0  0  0  0  0
   -4.5465   -2.1527    1.2902 H   0  0  0  0  0  0  0  0  0  0  0  0
   -3.9745   -3.1748   -0.0538 H   0  0  0  0  0  0  0  0  0  0  0  0
   -2.4245   -2.2537    1.0882 C   0  0  0  0  0  0  0  0  0  0  0  0
   -1.5805   -2.7478    1.8242 O   0  0  0  0  0  0  0  0  0  0  0  0
   -2.2045   -1.1637    0.3562 N   0  0  0  0  0  0  0  0  0  0  0  0
   -2.9595   -0.7907   -0.2008 H   0  0  0  0  0  0  0  0  0  0  0  0
   -0.9485   -0.4087    0.3482 C   0  0  1  0  0  0  0  0  0  0  0  0
   -1.0124    0.3816    1.0978 H   0  0  0  0  0  0  0  0  0  0  0  0
    0.2101   -1.3457    0.7304 C   0  0  0  0  0  0  0  0  0  0  0  0
    0.1946   -2.2162    0.0731 H   0  0  0  0  0  0  0  0  0  0  0  0
    1.1549   -0.8262    0.5636 H   0  0  0  0  0  0  0  0  0  0  0  0
    0.1559   -1.8382    2.1640 C   0  0  0  0  0  0  0  0  0  0  0  0
    0.6202   -1.0252    3.2155 C   0  0  0  0  0  0  0  0  0  0  0  0
    1.0401   -0.0519    3.0043 H   0  0  0  0  0  0  0  0  0  0  0  0
    0.5286   -1.4722    4.5466 C   0  0  0  0  0  0  0  0  0  0  0  0
    0.8881   -0.8475    5.3522 H   0  0  0  0  0  0  0  0  0  0  0  0
   -0.0286   -2.7310    4.8288 C   0  0  0  0  0  0  0  0  0  0  0  0
   -0.0968   -3.0753    5.8512 H   0  0  0  0  0  0  0  0  0  0  0  0
   -0.4921   -3.5464    3.7803 C   0  0  0  0  0  0  0  0  0  0  0  0
   -0.9154   -4.5163    3.9967 H   0  0  0  0  0  0  0  0  0  0  0  0
   -0.3974   -3.1009    2.4500 C   0  0  0  0  0  0  0  0  0  0  0  0
   -0.7513   -3.7305    1.6440 H   0  0  0  0  0  0  0  0  0  0  0  0
   -0.7183    0.2602   -1.0189 C   0  0  0  0  0  0  0  0  0  0  0  0
   -0.9018   -0.3753   -2.0581 O   0  0  0  0  0  0  0  0  0  0  0  0
   -0.3126    1.5363   -1.0208 N   0  0  0  0  0  0  0  0  0  0  0  0
   -0.1306    1.9710   -0.1291 H   0  0  0  0  0  0  0  0  0  0  0  0
   -0.0411    2.3110   -2.2293 C   0  0  0  0  0  0  0  0  0  0  0  0
   -0.8976    2.2551   -2.9044 H   0  0  0  0  0  0  0  0  0  0  0  0
    0.1478    3.3540   -1.9739 H   0  0  0  0  0  0  0  0  0  0  0  0
    0.8324    1.9009   -2.7399 H   0  0  0  0  0  0  0  0  0  0  0  0
  5  6  2  0  0  0  0
  5  7  1  0  0  0  0
  2  3  1  0  0  0  0
  2  4  1  0  0  0  0
  2  5  1  0  0  0  0
  1  2  1  0  0  0  0
 25 26  2  0  0  0  0
 25 27  1  0  0  0  0
 23 24  1  0  0  0  0
 21 22  1  0  0  0  0
 21 23  2  0  0  0  0
 19 20  1  0  0  0  0
 19 21  1  0  0  0  0
 17 18  1  0  0  0  0
 17 19  2  0  0  0  0
 15 16  1  0  0  0  0
 15 17  1  0  0  0  0
 14 15  2  0  0  0  0
 14 23  1  0  0  0  0
 11 12  1  0  0  0  0
 11 13  1  0  0  0  0
 11 14  1  0  0  0  0
  9 10  1  0  0  0  0
  9 11  1  0  0  0  0
  9 25  1  0  0  0  0
  7  8  1  0  0  0  0
  7  9  1  0  0  0  0
 29 30  1  0  0  0  0
 29 31  1  0  0  0  0
 29 32  1  0  0  0  0
 27 28  1  0  0  0  0
 27 29  1  0  0  0  0
M  END
$$$$
default_name
  -OEChem-01062215323D

 32 32  0     1  0  0  0  0  0999 V2000
   -3.8405   -3.7518    1.6252 H   0  0  0  0  0  0  0  0  0  0  0  0
   -3.7965   -2.8768    0.9782 C   0  0  0  0  0  0  0  0  0  0  0  0
   -4.5465   -2.1527    1.2902 H   0  0  0  0  0  0  0  0  0  0  0  0
   -3.9745   -3.1748   -0.0538 H   0  0  0  0  0  0  0  0  0  0  0  0
   -2.4245   -2.2537    1.0882 C   0  0  0  0  0  0  0  0  0  0  0  0
   -1.5805   -2.7478    1.8242 O   0  0  0  0  0  0  0  0  0  0  0  0
   -2.2045   -1.1637    0.3562 N   0  0  0  0  0  0  0  0  0  0  0  0
   -2.9595   -0.7907   -0.2008 H   0  0  0  0  0  0  0  0  0  0  0  0
   -0.9485   -0.4087    0.3482 C   0  0  1  0  0  0  0  0  0  0  0  0
   -1.0124    0.3816    1.0978 H   0  0  0  0  0  0  0  0  0  0  0  0
    0.2101   -1.3457    0.7304 C   0  0  0  0  0  0  0  0  0  0  0  0
    0.1946   -2.2162    0.0731 H   0  0  0  0  0  0  0  0  0  0  0  0
    1.1549   -0.8262    0.5636 H   0  0  0  0  0  0  0  0  0  0  0  0
    0.1559   -1.8382    2.1640 C   0  0  0  0  0  0  0  0  0  0  0  0
    0.6202   -1.0252    3.2155 C   0  0  0  0  0  0  0  0  0  0  0  0
    1.0401   -0.0519    3.0043 H   0  0  0  0  0  0  0  0  0  0  0  0
    0.5286   -1.4722    4.5466 C   0  0  0  0  0  0  0  0  0  0  0  0
    0.8881   -0.8475    5.3522 H   0  0  0  0  0  0  0  0  0  0  0  0
   -0.0286   -2.7310    4.8288 C   0  0  0  0  0  0  0  0  0  0  0  0
   -0.0968   -3.0753    5.8512 H   0  0  0  0  0  0  0  0  0  0  0  0
   -0.4921   -3.5464    3.7803 C   0  0  0  0  0  0  0  0  0  0  0  0
   -0.9154   -4.5163    3.9967 H   0  0  0  0  0  0  0  0  0  0  0  0
   -0.3974   -3.1009    2.4500 C   0  0  0  0  0  0  0  0  0  0  0  0
   -0.7513   -3.7305    1.6440 H   0  0  0  0  0  0  0  0  0  0  0  0
   -0.7183    0.2602   -1.0189 C   0  0  0  0  0  0  0  0  0  0  0  0
   -1.1554   -0.2621   -2.0454 O   0  0  0  0  0  0  0  0  0  0  0  0
   -0.0301    1.4087   -1.0356 N   0  0  0  0  0  0  0  0  0  0  0  0
    0.3430    1.7438   -0.1605 H   0  0  0  0  0  0  0  0  0  0  0  0
    0.2817    2.1628   -2.2474 C   0  0  0  0  0  0  0  0  0  0  0  0
   -0.6321    2.3385   -2.8189 H   0  0  0  0  0  0  0  0  0  0  0  0
    0.7339    3.1208   -1.9893 H   0  0  0  0  0  0  0  0  0  0  0  0
    0.9758    1.5917   -2.8670 H   0  0  0  0  0  0  0  0  0  0  0  0
  5  6  2  0  0  0  0
  5  7  1  0  0  0  0
  2  3  1  0  0  0  0
  2  4  1  0  0  0  0
  2  5  1  0  0  0  0
  1  2  1  0  0  0  0
 25 26  2  0  0  0  0
 25 27  1  0  0  0  0
 23 24  1  0  0  0  0
 21 22  1  0  0  0  0
 21 23  2  0  0  0  0
 19 20  1  0  0  0  0
 19 21  1  0  0  0  0
 17 18  1  0  0  0  0
 17 19  2  0  0  0  0
 15 16  1  0  0  0  0
 15 17  1  0  0  0  0
 14 15  2  0  0  0  0
 14 23  1  0  0  0  0
 11 12  1  0  0  0  0
 11 13  1  0  0  0  0
 11 14  1  0  0  0  0
  9 10  1  0  0  0  0
  9 11  1  0  0  0  0
  9 25  1  0  0  0  0
  7  8  1  0  0  0  0
  7  9  1  0  0  0  0
 29 30  1  0  0  0  0
 29 31  1  0  0  0  0
 29 32  1  0  0  0  0
 27 28  1  0  0  0  0
 27 29  1  0  0  0  0
M  END
$$$$
default_name
  -OEChem-01062215323D

 32 32  0     1  0  0  0  0  0999 V2000
   -3.8405   -3.7518    1.6252 H   0  0  0  0  0  0  0  0  0  0  0  0
   -3.7965   -2.8768    0.9782 C   0  0  0  0  0  0  0  0  0  0  0  0
   -4.5465   -2.1527    1.2902 H   0  0  0  0  0  0  0  0  0  0  0  0
   -3.9745   -3.1748   -0.0538 H   0  0  0  0  0  0  0  0  0  0  0  0
   -2.4245   -2.2537    1.0882 C   0  0  0  0  0  0  0  0  0  0  0  0
   -1.5805   -2.7478    1.8242 O   0  0  0  0  0  0  0  0  0  0  0  0
   -2.2045   -1.1637    0.3562 N   0  0  0  0  0  0  0  0  0  0  0  0
   -2.9595   -0.7907   -0.2008 H   0  0  0  0  0  0  0  0  0  0  0  0
   -0.9485   -0.4087    0.3482 C   0  0  1  0  0  0  0  0  0  0  0  0
   -1.0124    0.3816    1.0978 H   0  0  0  0  0  0  0  0  0  0  0  0
    0.2101   -1.3457    0.7304 C   0  0  0  0  0  0  0  0  0  0  0  0
    0.1946   -2.2162    0.0731 H   0  0  0  0  0  0  0  0  0  0  0  0
    1.1549   -0.8262    0.5636 H   0  0  0  0  0  0  0  0  0  0  0  0
    0.1559   -1.8382    2.1640 C   0  0  0  0  0  0  0  0  0  0  0  0
    0.6202   -1.0252    3.2155 C   0  0  0  0  0  0  0  0  0  0  0  0
    1.0401   -0.0519    3.0043 H   0  0  0  0  0  0  0  0  0  0  0  0
    0.5286   -1.4722    4.5466 C   0  0  0  0  0  0  0  0  0  0  0  0
    0.8881   -0.8475    5.3522 H   0  0  0  0  0  0  0  0  0  0  0  0
   -0.0286   -2.7310    4.8288 C   0  0  0  0  0  0  0  0  0  0  0  0
   -0.0968   -3.0753    5.8512 H   0  0  0  0  0  0  0  0  0  0  0  0
   -0.4921   -3.5464    3.7803 C   0  0  0  0  0  0  0  0  0  0  0  0
   -0.9154   -4.5163    3.9967 H   0  0  0  0  0  0  0  0  0  0  0  0
   -0.3974   -3.1009    2.4500 C   0  0  0  0  0  0  0  0  0  0  0  0
   -0.7513   -3.7305    1.6440 H   0  0  0  0  0  0  0  0  0  0  0  0
   -0.7183    0.2602   -1.0189 C   0  0  0  0  0  0  0  0  0  0  0  0
   -1.3728   -0.0949   -2.0002 O   0  0  0  0  0  0  0  0  0  0  0  0
    0.2117    1.2212   -1.0867 N   0  0  0  0  0  0  0  0  0  0  0  0
    0.7446    1.4167   -0.2530 H   0  0  0  0  0  0  0  0  0  0  0  0
    0.5573    1.9463   -2.3069 C   0  0  0  0  0  0  0  0  0  0  0  0
   -0.3470    2.3548   -2.7629 H   0  0  0  0  0  0  0  0  0  0  0  0
    1.2447    2.7614   -2.0791 H   0  0  0  0  0  0  0  0  0  0  0  0
    1.0289    1.2651   -3.0179 H   0  0  0  0  0  0  0  0  0  0  0  0
  5  6  2  0  0  0  0
  5  7  1  0  0  0  0
  2  3  1  0  0  0  0
  2  4  1  0  0  0  0
  2  5  1  0  0  0  0
  1  2  1  0  0  0  0
 25 26  2  0  0  0  0
 25 27  1  0  0  0  0
 23 24  1  0  0  0  0
 21 22  1  0  0  0  0
 21 23  2  0  0  0  0
 19 20  1  0  0  0  0
 19 21  1  0  0  0  0
 17 18  1  0  0  0  0
 17 19  2  0  0  0  0
 15 16  1  0  0  0  0
 15 17  1  0  0  0  0
 14 15  2  0  0  0  0
 14 23  1  0  0  0  0
 11 12  1  0  0  0  0
 11 13  1  0  0  0  0
 11 14  1  0  0  0  0
  9 10  1  0  0  0  0
  9 11  1  0  0  0  0
  9 25  1  0  0  0  0
  7  8  1  0  0  0  0
  7  9  1  0  0  0  0
 29 30  1  0  0  0  0
 29 31  1  0  0  0  0
 29 32  1  0  0  0  0
 27 28  1  0  0  0  0
 27 29  1  0  0  0  0
M  END
$$$$
default_name
  -OEChem-01062215323D

 32 32  0     1  0  0  0  0  0999 V2000
   -3.8405   -3.7518    1.6252 H   0  0  0  0  0  0  0  0  0  0  0  0
   -3.7965   -2.8768    0.9782 C   0  0  0  0  0  0  0  0  0  0  0  0
   -4.5465   -2.1527    1.2902 H   0  0  0  0  0  0  0  0  0  0  0  0
   -3.9745   -3.1748   -0.0538 H   0  0  0  0  0  0  0  0  0  0  0  0
   -2.4245   -2.2537    1.0882 C   0  0  0  0  0  0  0  0  0  0  0  0
   -1.5805   -2.7478    1.8242 O   0  0  0  0  0  0  0  0  0  0  0  0
   -2.2045   -1.1637    0.3562 N   0  0  0  0  0  0  0  0  0  0  0  0
   -2.9595   -0.7907   -0.2008 H   0  0  0  0  0  0  0  0  0  0  0  0
   -0.9485   -0.4087    0.3482 C   0  0  1  0  0  0  0  0  0  0  0  0
   -0.8990    0.1946    1.2560 H   0  0  0  0  0  0  0  0  0  0  0  0
    0.2351   -1.3912    0.3550 C   0  0  0  0  0  0  0  0  0  0  0  0
    0.1179   -2.0943   -0.4709 H   0  0  0  0  0  0  0  0  0  0  0  0
    1.1577   -0.8348    0.1829 H   0  0  0  0  0  0  0  0  0  0  0  0
    0.3643   -2.1903    1.6378 C   0  0  0  0  0  0  0  0  0  0  0  0
    0.9777   -1.6247    2.7717 C   0  0  0  0  0  0  0  0  0  0  0  0
    1.3817   -0.6232    2.7274 H   0  0  0  0  0  0  0  0  0  0  0  0
    1.0569   -2.3572    3.9705 C   0  0  0  0  0  0  0  0  0  0  0  0
    1.5307   -1.9220    4.8392 H   0  0  0  0  0  0  0  0  0  0  0  0
    0.5216   -3.6547    4.0384 C   0  0  0  0  0  0  0  0  0  0  0  0
    0.5846   -4.2182    4.9588 H   0  0  0  0  0  0  0  0  0  0  0  0
   -0.0907   -4.2233    2.9067 C   0  0  0  0  0  0  0  0  0  0  0  0
   -0.4974   -5.2227    2.9572 H   0  0  0  0  0  0  0  0  0  0  0  0
   -0.1668   -3.4924    1.7079 C   0  0  0  0  0  0  0  0  0  0  0  0
   -0.6351   -3.9323    0.8370 H   0  0  0  0  0  0  0  0  0  0  0  0
   -0.8915    0.5499   -0.8548 C   0  0  0  0  0  0  0  0  0  0  0  0
   -1.8282    0.5982   -1.6532 O   0  0  0  0  0  0  0  0  0  0  0  0
    0.2050    1.3068   -0.9889 N   0  0  0  0  0  0  0  0  0  0  0  0
    0.9526    1.1697   -0.3260 H   0  0  0  0  0  0  0  0  0  0  0  0
    0.4194    2.2580   -2.0768 C   0  0  0  0  0  0  0  0  0  0  0  0
   -0.4362    2.9324   -2.1523 H   0  0  0  0  0  0  0  0  0  0  0  0
    1.3222    2.8417   -1.8948 H   0  0  0  0  0  0  0  0  0  0  0  0
    0.5227    1.7192   -3.0207 H   0  0  0  0  0  0  0  0  0  0  0  0
  5  6  2  0  0  0  0
  5  7  1  0  0  0  0
  2  3  1  0  0  0  0
  2  4  1  0  0  0  0
  2  5  1  0  0  0  0
  1  2  1  0  0  0  0
 25 26  2  0  0  0  0
 25 27  1  0  0  0  0
 23 24  1  0  0  0  0
 21 22  1  0  0  0  0
 21 23  2  0  0  0  0
 19 20  1  0  0  0  0
 19 21  1  0  0  0  0
 17 18  1  0  0  0  0
 17 19  2  0  0  0  0
 15 16  1  0  0  0  0
 15 17  1  0  0  0  0
 14 15  2  0  0  0  0
 14 23  1  0  0  0  0
 11 12  1  0  0  0  0
 11 13  1  0  0  0  0
 11 14  1  0  0  0  0
  9 10  1  0  0  0  0
  9 11  1  0  0  0  0
  9 25  1  0  0  0  0
  7  8  1  0  0  0  0
  7  9  1  0  0  0  0
 29 30  1  0  0  0  0
 29 31  1  0  0  0  0
 29 32  1  0  0  0  0
 27 28  1  0  0  0  0
 27 29  1  0  0  0  0
M  END
$$$$
default_name
  -OEChem-01062215323D

 32 32  0     1  0  0  0  0  0999 V2000
   -3.8405   -3.7518    1.6252 H   0  0  0  0  0  0  0  0  0  0  0  0
   -3.7965   -2.8768    0.9782 C   0  0  0  0  0  0  0  0  0  0  0  0
   -4.5465   -2.1527    1.2902 H   0  0  0  0  0  0  0  0  0  0  0  0
   -3.9745   -3.1748   -0.0538 H   0  0  0  0  0  0  0  0  0  0  0  0
   -2.4245   -2.2537    1.0882 C   0  0  0  0  0  0  0  0  0  0  0  0
   -1.5805   -2.7478    1.8242 O   0  0  0  0  0  0  0  0  0  0  0  0
   -2.2045   -1.1637    0.3562 N   0  0  0  0  0  0  0  0  0  0  0  0
   -2.9595   -0.7907   -0.2008 H   0  0  0  0  0  0  0  0  0  0  0  0
   -0.9485   -0.4087    0.3482 C   0  0  1  0  0  0  0  0  0  0  0  0
   -0.8990    0.1946    1.2560 H   0  0  0  0  0  0  0  0  0  0  0  0
    0.2351   -1.3912    0.3550 C   0  0  0  0  0  0  0  0  0  0  0  0
    0.1179   -2.0943   -0.4709 H   0  0  0  0  0  0  0  0  0  0  0  0
    1.1577   -0.8348    0.1829 H   0  0  0  0  0  0  0  0  0  0  0  0
    0.3643   -2.1903    1.6378 C   0  0  0  0  0  0  0  0  0  0  0  0
    0.9777   -1.6247    2.7717 C   0  0  0  0  0  0  0  0  0  0  0  0
    1.3817   -0.6232    2.7274 H   0  0  0  0  0  0  0  0  0  0  0  0
    1.0569   -2.3572    3.9705 C   0  0  0  0  0  0  0  0  0  0  0  0
    1.5307   -1.9220    4.8392 H   0  0  0  0  0  0  0  0  0  0  0  0
    0.5216   -3.6547    4.0384 C   0  0  0  0  0  0  0  0  0  0  0  0
    0.5846   -4.2182    4.9588 H   0  0  0  0  0  0  0  0  0  0  0  0
   -0.0907   -4.2233    2.9067 C   0  0  0  0  0  0  0  0  0  0  0  0
   -0.4974   -5.2227    2.9572 H   0  0  0  0  0  0  0  0  0  0  0  0
   -0.1668   -3.4924    1.7079 C   0  0  0  0  0  0  0  0  0  0  0  0
   -0.6351   -3.9323    0.8370 H   0  0  0  0  0  0  0  0  0  0  0  0
   -0.8915    0.5499   -0.8548 C   0  0  0  0  0  0  0  0  0  0  0  0
   -1.9145    0.8069   -1.4911 O   0  0  0  0  0  0  0  0  0  0  0  0
    0.2999    1.0736   -1.1703 N   0  0  0  0  0  0  0  0  0  0  0  0
    1.1004    0.7713   -0.6364 H   0  0  0  0  0  0  0  0  0  0  0  0
    0.5258    1.9902   -2.2852 C   0  0  0  0  0  0  0  0  0  0  0  0
   -0.1758    2.8249   -2.2256 H   0  0  0  0  0  0  0  0  0  0  0  0
    1.5456    2.3751   -2.2560 H   0  0  0  0  0  0  0  0  0  0  0  0
    0.3650    1.4666   -3.2295 H   0  0  0  0  0  0  0  0  0  0  0  0
  5  6  2  0  0  0  0
  5  7  1  0  0  0  0
  2  3  1  0  0  0  0
  2  4  1  0  0  0  0
  2  5  1  0  0  0  0
  1  2  1  0  0  0  0
 25 26  2  0  0  0  0
 25 27  1  0  0  0  0
 23 24  1  0  0  0  0
 21 22  1  0  0  0  0
 21 23  2  0  0  0  0
 19 20  1  0  0  0  0
 19 21  1  0  0  0  0
 17 18  1  0  0  0  0
 17 19  2  0  0  0  0
 15 16  1  0  0  0  0
 15 17  1  0  0  0  0
 14 15  2  0  0  0  0
 14 23  1  0  0  0  0
 11 12  1  0  0  0  0
 11 13  1  0  0  0  0
 11 14  1  0  0  0  0
  9 10  1  0  0  0  0
  9 11  1  0  0  0  0
  9 25  1  0  0  0  0
  7  8  1  0  0  0  0
  7  9  1  0  0  0  0
 29 30  1  0  0  0  0
 29 31  1  0  0  0  0
 29 32  1  0  0  0  0
 27 28  1  0  0  0  0
 27 29  1  0  0  0  0
M  END
$$$$
default_name
  -OEChem-01062215323D

 32 32  0     1  0  0  0  0  0999 V2000
   -3.8405   -3.7518    1.6252 H   0  0  0  0  0  0  0  0  0  0  0  0
   -3.7965   -2.8768    0.9782 C   0  0  0  0  0  0  0  0  0  0  0  0
   -4.5465   -2.1527    1.2902 H   0  0  0  0  0  0  0  0  0  0  0  0
   -3.9745   -3.1748   -0.0538 H   0  0  0  0  0  0  0  0  0  0  0  0
   -2.4245   -2.2537    1.0882 C   0  0  0  0  0  0  0  0  0  0  0  0
   -1.5805   -2.7478    1.8242 O   0  0  0  0  0  0  0  0  0  0  0  0
   -2.2045   -1.1637    0.3562 N   0  0  0  0  0  0  0  0  0  0  0  0
   -2.9595   -0.7907   -0.2008 H   0  0  0  0  0  0  0  0  0  0  0  0
   -0.9485   -0.4087    0.3482 C   0  0  1  0  0  0  0  0  0  0  0  0
   -0.8990    0.1946    1.2560 H   0  0  0  0  0  0  0  0  0  0  0  0
    0.2351   -1.3912    0.3550 C   0  0  0  0  0  0  0  0  0  0  0  0
    0.1179   -2.0943   -0.4709 H   0  0  0  0  0  0  0  0  0  0  0  0
    1.1577   -0.8348    0.1829 H   0  0  0  0  0  0  0  0  0  0  0  0
    0.3643   -2.1903    1.6378 C   0  0  0  0  0  0  0  0  0  0  0  0
    0.9777   -1.6247    2.7717 C   0  0  0  0  0  0  0  0  0  0  0  0
    1.3817   -0.6232    2.7274 H   0  0  0  0  0  0  0  0  0  0  0  0
    1.0569   -2.3572    3.9705 C   0  0  0  0  0  0  0  0  0  0  0  0
    1.5307   -1.9220    4.8392 H   0  0  0  0  0  0  0  0  0  0  0  0
    0.5216   -3.6547    4.0384 C   0  0  0  0  0  0  0  0  0  0  0  0
    0.5846   -4.2182    4.9588 H   0  0  0  0  0  0  0  0  0  0  0  0
   -0.0907   -4.2233    2.9067 C   0  0  0  0  0  0  0  0  0  0  0  0
   -0.4974   -5.2227    2.9572 H   0  0  0  0  0  0  0  0  0  0  0  0
   -0.1668   -3.4924    1.7079 C   0  0  0  0  0  0  0  0  0  0  0  0
   -0.6351   -3.9323    0.8370 H   0  0  0  0  0  0  0  0  0  0  0  0
   -0.8915    0.5499   -0.8548 C   0  0  0  0  0  0  0  0  0  0  0  0
   -1.9294    1.0243   -1.3185 O   0  0  0  0  0  0  0  0  0  0  0  0
    0.3151    0.8309   -1.3630 N   0  0  0  0  0  0  0  0  0  0  0  0
    1.1126    0.3597   -0.9639 H   0  0  0  0  0  0  0  0  0  0  0  0
    0.5409    1.7121   -2.5062 C   0  0  0  0  0  0  0  0  0  0  0  0
    0.0422    2.6691   -2.3394 H   0  0  0  0  0  0  0  0  0  0  0  0
    1.6088    1.8827   -2.6455 H   0  0  0  0  0  0  0  0  0  0  0  0
    0.1279    1.2565   -3.4082 H   0  0  0  0  0  0  0  0  0  0  0  0
  5  6  2  0  0  0  0
  5  7  1  0  0  0  0
  2  3  1  0  0  0  0
  2  4  1  0  0  0  0
  2  5  1  0  0  0  0
  1  2  1  0  0  0  0
 25 26  2  0  0  0  0
 25 27  1  0  0  0  0
 23 24  1  0  0  0  0
 21 22  1  0  0  0  0
 21 23  2  0  0  0  0
 19 20  1  0  0  0  0
 19 21  1  0  0  0  0
 17 18  1  0  0  0  0
 17 19  2  0  0  0  0
 15 16  1  0  0  0  0
 15 17  1  0  0  0  0
 14 15  2  0  0  0  0
 14 23  1  0  0  0  0
 11 12  1  0  0  0  0
 11 13  1  0  0  0  0
 11 14  1  0  0  0  0
  9 10  1  0  0  0  0
  9 11  1  0  0  0  0
  9 25  1  0  0  0  0
  7  8  1  0  0  0  0
  7  9  1  0  0  0  0
 29 30  1  0  0  0  0
 29 31  1  0  0  0  0
 29 32  1  0  0  0  0
 27 28  1  0  0  0  0
 27 29  1  0  0  0  0
M  END
$$$$
default_name
  -OEChem-01062215323D

 32 32  0     1  0  0  0  0  0999 V2000
   -3.8405   -3.7518    1.6252 H   0  0  0  0  0  0  0  0  0  0  0  0
   -3.7965   -2.8768    0.9782 C   0  0  0  0  0  0  0  0  0  0  0  0
   -4.5465   -2.1527    1.2902 H   0  0  0  0  0  0  0  0  0  0  0  0
   -3.9745   -3.1748   -0.0538 H   0  0  0  0  0  0  0  0  0  0  0  0
   -2.4245   -2.2537    1.0882 C   0  0  0  0  0  0  0  0  0  0  0  0
   -1.5805   -2.7478    1.8242 O   0  0  0  0  0  0  0  0  0  0  0  0
   -2.2045   -1.1637    0.3562 N   0  0  0  0  0  0  0  0  0  0  0  0
   -2.9595   -0.7907   -0.2008 H   0  0  0  0  0  0  0  0  0  0  0  0
   -0.9485   -0.4087    0.3482 C   0  0  1  0  0  0  0  0  0  0  0  0
   -0.8990    0.1946    1.2560 H   0  0  0  0  0  0  0  0  0  0  0  0
    0.2351   -1.3912    0.3550 C   0  0  0  0  0  0  0  0  0  0  0  0
    0.1179   -2.0943   -0.4709 H   0  0  0  0  0  0  0  0  0  0  0  0
    1.1577   -0.8348    0.1829 H   0  0  0  0  0  0  0  0  0  0  0  0
    0.3643   -2.1903    1.6378 C   0  0  0  0  0  0  0  0  0  0  0  0
    0.9777   -1.6247    2.7717 C   0  0  0  0  0  0  0  0  0  0  0  0
    1.3817   -0.6232    2.7274 H   0  0  0  0  0  0  0  0  0  0  0  0
    1.0569   -2.3572    3.9705 C   0  0  0  0  0  0  0  0  0  0  0  0
    1.5307   -1.9220    4.8392 H   0  0  0  0  0  0  0  0  0  0  0  0
    0.5216   -3.6547    4.0384 C   0  0  0  0  0  0  0  0  0  0  0  0
    0.5846   -4.2182    4.9588 H   0  0  0  0  0  0  0  0  0  0  0  0
   -0.0907   -4.2233    2.9067 C   0  0  0  0  0  0  0  0  0  0  0  0
   -0.4974   -5.2227    2.9572 H   0  0  0  0  0  0  0  0  0  0  0  0
   -0.1668   -3.4924    1.7079 C   0  0  0  0  0  0  0  0  0  0  0  0
   -0.6351   -3.9323    0.8370 H   0  0  0  0  0  0  0  0  0  0  0  0
   -0.8915    0.5499   -0.8548 C   0  0  0  0  0  0  0  0  0  0  0  0
   -1.8721    1.2357   -1.1473 O   0  0  0  0  0  0  0  0  0  0  0  0
    0.2497    0.5953   -1.5539 N   0  0  0  0  0  0  0  0  0  0  0  0
    0.9883   -0.0373   -1.2861 H   0  0  0  0  0  0  0  0  0  0  0  0
    0.4636    1.4425   -2.7247 C   0  0  0  0  0  0  0  0  0  0  0  0
    0.2029    2.4757   -2.4859 H   0  0  0  0  0  0  0  0  0  0  0  0
    1.5074    1.3980   -3.0365 H   0  0  0  0  0  0  0  0  0  0  0  0
   -0.1724    1.1032   -3.5446 H   0  0  0  0  0  0  0  0  0  0  0  0
  5  6  2  0  0  0  0
  5  7  1  0  0  0  0
  2  3  1  0  0  0  0
  2  4  1  0  0  0  0
  2  5  1  0  0  0  0
  1  2  1  0  0  0  0
 25 26  2  0  0  0  0
 25 27  1  0  0  0  0
 23 24  1  0  0  0  0
 21 22  1  0  0  0  0
 21 23  2  0  0  0  0
 19 20  1  0  0  0  0
 19 21  1  0  0  0  0
 17 18  1  0  0  0  0
 17 19  2  0  0  0  0
 15 16  1  0  0  0  0
 15 17  1  0  0  0  0
 14 15  2  0  0  0  0
 14 23  1  0  0  0  0
 11 12  1  0  0  0  0
 11 13  1  0  0  0  0
 11 14  1  0  0  0  0
  9 10  1  0  0  0  0
  9 11  1  0  0  0  0
  9 25  1  0  0  0  0
  7  8  1  0  0  0  0
  7  9  1  0  0  0  0
 29 30  1  0  0  0  0
 29 31  1  0  0  0  0
 29 32  1  0  0  0  0
 27 28  1  0  0  0  0
 27 29  1  0  0  0  0
M  END
$$$$
default_name
  -OEChem-01062215323D

 32 32  0     1  0  0  0  0  0999 V2000
   -3.8405   -3.7518    1.6252 H   0  0  0  0  0  0  0  0  0  0  0  0
   -3.7965   -2.8768    0.9782 C   0  0  0  0  0  0  0  0  0  0  0  0
   -4.5465   -2.1527    1.2902 H   0  0  0  0  0  0  0  0  0  0  0  0
   -3.9745   -3.1748   -0.0538 H   0  0  0  0  0  0  0  0  0  0  0  0
   -2.4245   -2.2537    1.0882 C   0  0  0  0  0  0  0  0  0  0  0  0
   -1.5805   -2.7478    1.8242 O   0  0  0  0  0  0  0  0  0  0  0  0
   -2.2045   -1.1637    0.3562 N   0  0  0  0  0  0  0  0  0  0  0  0
   -2.9595   -0.7907   -0.2008 H   0  0  0  0  0  0  0  0  0  0  0  0
   -0.9485   -0.4087    0.3482 C   0  0  1  0  0  0  0  0  0  0  0  0
   -0.8990    0.1946    1.2560 H   0  0  0  0  0  0  0  0  0  0  0  0
    0.2351   -1.3912    0.3550 C   0  0  0  0  0  0  0  0  0  0  0  0
    0.1179   -2.0943   -0.4709 H   0  0  0  0  0  0  0  0  0  0  0  0
    1.1577   -0.8348    0.1829 H   0  0  0  0  0  0  0  0  0  0  0  0
    0.3643   -2.1903    1.6378 C   0  0  0  0  0  0  0  0  0  0  0  0
    0.9777   -1.6247    2.7717 C   0  0  0  0  0  0  0  0  0  0  0  0
    1.3817   -0.6232    2.7274 H   0  0  0  0  0  0  0  0  0  0  0  0
    1.0569   -2.3572    3.9705 C   0  0  0  0  0  0  0  0  0  0  0  0
    1.5307   -1.9220    4.8392 H   0  0  0  0  0  0  0  0  0  0  0  0
    0.5216   -3.6547    4.0384 C   0  0  0  0  0  0  0  0  0  0  0  0
    0.5846   -4.2182    4.9588 H   0  0  0  0  0  0  0  0  0  0  0  0
   -0.0907   -4.2233    2.9067 C   0  0  0  0  0  0  0  0  0  0  0  0
   -0.4974   -5.2227    2.9572 H   0  0  0  0  0  0  0  0  0  0  0  0
   -0.1668   -3.4924    1.7079 C   0  0  0  0  0  0  0  0  0  0  0  0
   -0.6351   -3.9323    0.8370 H   0  0  0  0  0  0  0  0  0  0  0  0
   -0.8915    0.5499   -0.8548 C   0  0  0  0  0  0  0  0  0  0  0  0
   -1.7464    1.4266   -0.9892 O   0  0  0  0  0  0  0  0  0  0  0  0
    0.1081    0.3827   -1.7300 N   0  0  0  0  0  0  0  0  0  0  0  0
    0.7360   -0.3925   -1.5812 H   0  0  0  0  0  0  0  0  0  0  0  0
    0.2991    1.1998   -2.9259 C   0  0  0  0  0  0  0  0  0  0  0  0
    0.2953    2.2577   -2.6553 H   0  0  0  0  0  0  0  0  0  0  0  0
    1.2484    0.9541   -3.4026 H   0  0  0  0  0  0  0  0  0  0  0  0
   -0.5155    1.0172   -3.6294 H   0  0  0  0  0  0  0  0  0  0  0  0
  5  6  2  0  0  0  0
  5  7  1  0  0  0  0
  2  3  1  0  0  0  0
  2  4  1  0  0  0  0
  2  5  1  0  0  0  0
  1  2  1  0  0  0  0
 25 26  2  0  0  0  0
 25 27  1  0  0  0  0
 23 24  1  0  0  0  0
 21 22  1  0  0  0  0
 21 23  2  0  0  0  0
 19 20  1  0  0  0  0
 19 21  1  0  0  0  0
 17 18  1  0  0  0  0
 17 19  2  0  0  0  0
 15 16  1  0  0  0  0
 15 17  1  0  0  0  0
 14 15  2  0  0  0  0
 14 23  1  0  0  0  0
 11 12  1  0  0  0  0
 11 13  1  0  0  0  0
 11 14  1  0  0  0  0
  9 10  1  0  0  0  0
  9 11  1  0  0  0  0
  9 25  1  0  0  0  0
  7  8  1  0  0  0  0
  7  9  1  0  0  0  0
 29 30  1  0  0  0  0
 29 31  1  0  0  0  0
 29 32  1  0  0  0  0
 27 28  1  0  0  0  0
 27 29  1  0  0  0  0
M  END
$$$$
default_name
  -OEChem-01062215323D

 32 32  0     1  0  0  0  0  0999 V2000
   -3.8405   -3.7518    1.6252 H   0  0  0  0  0  0  0  0  0  0  0  0
   -3.7965   -2.8768    0.9782 C   0  0  0  0  0  0  0  0  0  0  0  0
   -4.5465   -2.1527    1.2902 H   0  0  0  0  0  0  0  0  0  0  0  0
   -3.9745   -3.1748   -0.0538 H   0  0  0  0  0  0  0  0  0  0  0  0
   -2.4245   -2.2537    1.0882 C   0  0  0  0  0  0  0  0  0  0  0  0
   -1.5805   -2.7478    1.8242 O   0  0  0  0  0  0  0  0  0  0  0  0
   -2.2045   -1.1637    0.3562 N   0  0  0  0  0  0  0  0  0  0  0  0
   -2.9595   -0.7907   -0.2008 H   0  0  0  0  0  0  0  0  0  0  0  0
   -0.9485   -0.4087    0.3482 C   0  0  1  0  0  0  0  0  0  0  0  0
   -0.8990    0.1946    1.2560 H   0  0  0  0  0  0  0  0  0  0  0  0
    0.2351   -1.3912    0.3550 C   0  0  0  0  0  0  0  0  0  0  0  0
    0.1179   -2.0943   -0.4709 H   0  0  0  0  0  0  0  0  0  0  0  0
    1.1577   -0.8348    0.1829 H   0  0  0  0  0  0  0  0  0  0  0  0
    0.3643   -2.1903    1.6378 C   0  0  0  0  0  0  0  0  0  0  0  0
    0.9777   -1.6247    2.7717 C   0  0  0  0  0  0  0  0  0  0  0  0
    1.3817   -0.6232    2.7274 H   0  0  0  0  0  0  0  0  0  0  0  0
    1.0569   -2.3572    3.9705 C   0  0  0  0  0  0  0  0  0  0  0  0
    1.5307   -1.9220    4.8392 H   0  0  0  0  0  0  0  0  0  0  0  0
    0.5216   -3.6547    4.0384 C   0  0  0  0  0  0  0  0  0  0  0  0
    0.5846   -4.2182    4.9588 H   0  0  0  0  0  0  0  0  0  0  0  0
   -0.0907   -4.2233    2.9067 C   0  0  0  0  0  0  0  0  0  0  0  0
   -0.4974   -5.2227    2.9572 H   0  0  0  0  0  0  0  0  0  0  0  0
   -0.1668   -3.4924    1.7079 C   0  0  0  0  0  0  0  0  0  0  0  0
   -0.6351   -3.9323    0.8370 H   0  0  0  0  0  0  0  0  0  0  0  0
   -0.8915    0.5499   -0.8548 C   0  0  0  0  0  0  0  0  0  0  0  0
   -1.5608    1.5841   -0.8549 O   0  0  0  0  0  0  0  0  0  0  0  0
   -0.1001    0.2077   -1.8793 N   0  0  0  0  0  0  0  0  0  0  0  0
    0.3729   -0.6817   -1.8289 H   0  0  0  0  0  0  0  0  0  0  0  0
    0.0587    1.0006   -3.0961 C   0  0  0  0  0  0  0  0  0  0  0  0
    0.3132    2.0301   -2.8358 H   0  0  0  0  0  0  0  0  0  0  0  0
    0.8495    0.5812   -3.7187 H   0  0  0  0  0  0  0  0  0  0  0  0
   -0.8779    1.0043   -3.6569 H   0  0  0  0  0  0  0  0  0  0  0  0
  5  6  2  0  0  0  0
  5  7  1  0  0  0  0
  2  3  1  0  0  0  0
  2  4  1  0  0  0  0
  2  5  1  0  0  0  0
  1  2  1  0  0  0  0
 25 26  2  0  0  0  0
 25 27  1  0  0  0  0
 23 24  1  0  0  0  0
 21 22  1  0  0  0  0
 21 23  2  0  0  0  0
 19 20  1  0  0  0  0
 19 21  1  0  0  0  0
 17 18  1  0  0  0  0
 17 19  2  0  0  0  0
 15 16  1  0  0  0  0
 15 17  1  0  0  0  0
 14 15  2  0  0  0  0
 14 23  1  0  0  0  0
 11 12  1  0  0  0  0
 11 13  1  0  0  0  0
 11 14  1  0  0  0  0
  9 10  1  0  0  0  0
  9 11  1  0  0  0  0
  9 25  1  0  0  0  0
  7  8  1  0  0  0  0
  7  9  1  0  0  0  0
 29 30  1  0  0  0  0
 29 31  1  0  0  0  0
 29 32  1  0  0  0  0
 27 28  1  0  0  0  0
 27 29  1  0  0  0  0
M  END
$$$$
default_name
  -OEChem-01062215323D

 32 32  0     1  0  0  0  0  0999 V2000
   -3.8405   -3.7518    1.6252 H   0  0  0  0  0  0  0  0  0  0  0  0
   -3.7965   -2.8768    0.9782 C   0  0  0  0  0  0  0  0  0  0  0  0
   -4.5465   -2.1527    1.2902 H   0  0  0  0  0  0  0  0  0  0  0  0
   -3.9745   -3.1748   -0.0538 H   0  0  0  0  0  0  0  0  0  0  0  0
   -2.4245   -2.2537    1.0882 C   0  0  0  0  0  0  0  0  0  0  0  0
   -1.5805   -2.7478    1.8242 O   0  0  0  0  0  0  0  0  0  0  0  0
   -2.2045   -1.1637    0.3562 N   0  0  0  0  0  0  0  0  0  0  0  0
   -2.9595   -0.7907   -0.2008 H   0  0  0  0  0  0  0  0  0  0  0  0
   -0.9485   -0.4087    0.3482 C   0  0  1  0  0  0  0  0  0  0  0  0
   -0.8990    0.1946    1.2560 H   0  0  0  0  0  0  0  0  0  0  0  0
    0.2351   -1.3912    0.3550 C   0  0  0  0  0  0  0  0  0  0  0  0
    0.1179   -2.0943   -0.4709 H   0  0  0  0  0  0  0  0  0  0  0  0
    1.1577   -0.8348    0.1829 H   0  0  0  0  0  0  0  0  0  0  0  0
    0.3643   -2.1903    1.6378 C   0  0  0  0  0  0  0  0  0  0  0  0
    0.9777   -1.6247    2.7717 C   0  0  0  0  0  0  0  0  0  0  0  0
    1.3817   -0.6232    2.7274 H   0  0  0  0  0  0  0  0  0  0  0  0
    1.0569   -2.3572    3.9705 C   0  0  0  0  0  0  0  0  0  0  0  0
    1.5307   -1.9220    4.8392 H   0  0  0  0  0  0  0  0  0  0  0  0
    0.5216   -3.6547    4.0384 C   0  0  0  0  0  0  0  0  0  0  0  0
    0.5846   -4.2182    4.9588 H   0  0  0  0  0  0  0  0  0  0  0  0
   -0.0907   -4.2233    2.9067 C   0  0  0  0  0  0  0  0  0  0  0  0
   -0.4974   -5.2227    2.9572 H   0  0  0  0  0  0  0  0  0  0  0  0
   -0.1668   -3.4924    1.7079 C   0  0  0  0  0  0  0  0  0  0  0  0
   -0.6351   -3.9323    0.8370 H   0  0  0  0  0  0  0  0  0  0  0  0
   -0.8915    0.5499   -0.8548 C   0  0  0  0  0  0  0  0  0  0  0  0
   -1.3281    1.6974   -0.7536 O   0  0  0  0  0  0  0  0  0  0  0  0
   -0.3607    0.0822   -1.9917 N   0  0  0  0  0  0  0  0  0  0  0  0
   -0.0763   -0.8853   -2.0124 H   0  0  0  0  0  0  0  0  0  0  0  0
   -0.2412    0.8584   -3.2236 C   0  0  0  0  0  0  0  0  0  0  0  0
    0.2554    1.8084   -3.0153 H   0  0  0  0  0  0  0  0  0  0  0  0
    0.3378    0.3047   -3.9633 H   0  0  0  0  0  0  0  0  0  0  0  0
   -1.2351    1.0655   -3.6251 H   0  0  0  0  0  0  0  0  0  0  0  0
  5  6  2  0  0  0  0
  5  7  1  0  0  0  0
  2  3  1  0  0  0  0
  2  4  1  0  0  0  0
  2  5  1  0  0  0  0
  1  2  1  0  0  0  0
 25 26  2  0  0  0  0
 25 27  1  0  0  0  0
 23 24  1  0  0  0  0
 21 22  1  0  0  0  0
 21 23  2  0  0  0  0
 19 20  1  0  0  0  0
 19 21  1  0  0  0  0
 17 18  1  0  0  0  0
 17 19  2  0  0  0  0
 15 16  1  0  0  0  0
 15 17  1  0  0  0  0
 14 15  2  0  0  0  0
 14 23  1  0  0  0  0
 11 12  1  0  0  0  0
 11 13  1  0  0  0  0
 11 14  1  0  0  0  0
  9 10  1  0  0  0  0
  9 11  1  0  0  0  0
  9 25  1  0  0  0  0
  7  8  1  0  0  0  0
  7  9  1  0  0  0  0
 29 30  1  0  0  0  0
 29 31  1  0  0  0  0
 29 32  1  0  0  0  0
 27 28  1  0  0  0  0
 27 29  1  0  0  0  0
M  END
$$$$
default_name
  -OEChem-01062215323D

 32 32  0     1  0  0  0  0  0999 V2000
   -3.8405   -3.7518    1.6252 H   0  0  0  0  0  0  0  0  0  0  0  0
   -3.7965   -2.8768    0.9782 C   0  0  0  0  0  0  0  0  0  0  0  0
   -4.5465   -2.1527    1.2902 H   0  0  0  0  0  0  0  0  0  0  0  0
   -3.9745   -3.1748   -0.0538 H   0  0  0  0  0  0  0  0  0  0  0  0
   -2.4245   -2.2537    1.0882 C   0  0  0  0  0  0  0  0  0  0  0  0
   -1.5805   -2.7478    1.8242 O   0  0  0  0  0  0  0  0  0  0  0  0
   -2.2045   -1.1637    0.3562 N   0  0  0  0  0  0  0  0  0  0  0  0
   -2.9595   -0.7907   -0.2008 H   0  0  0  0  0  0  0  0  0  0  0  0
   -0.9485   -0.4087    0.3482 C   0  0  1  0  0  0  0  0  0  0  0  0
   -0.8990    0.1946    1.2560 H   0  0  0  0  0  0  0  0  0  0  0  0
    0.2351   -1.3912    0.3550 C   0  0  0  0  0  0  0  0  0  0  0  0
    0.1179   -2.0943   -0.4709 H   0  0  0  0  0  0  0  0  0  0  0  0
    1.1577   -0.8348    0.1829 H   0  0  0  0  0  0  0  0  0  0  0  0
    0.3643   -2.1903    1.6378 C   0  0  0  0  0  0  0  0  0  0  0  0
    0.9777   -1.6247    2.7717 C   0  0  0  0  0  0  0  0  0  0  0  0
    1.3817   -0.6232    2.7274 H   0  0  0  0  0  0  0  0  0  0  0  0
    1.0569   -2.3572    3.9705 C   0  0  0  0  0  0  0  0  0  0  0  0
    1.5307   -1.9220    4.8392 H   0  0  0  0  0  0  0  0  0  0  0  0
    0.5216   -3.6547    4.0384 C   0  0  0  0  0  0  0  0  0  0  0  0
    0.5846   -4.2182    4.9588 H   0  0  0  0  0  0  0  0  0  0  0  0
   -0.0907   -4.2233    2.9067 C   0  0  0  0  0  0  0  0  0  0  0  0
   -0.4974   -5.2227    2.9572 H   0  0  0  0  0  0  0  0  0  0  0  0
   -0.1668   -3.4924    1.7079 C   0  0  0  0  0  0  0  0  0  0  0  0
   -0.6351   -3.9323    0.8370 H   0  0  0  0  0  0  0  0  0  0  0  0
   -0.8915    0.5499   -0.8548 C   0  0  0  0  0  0  0  0  0  0  0  0
   -1.0640    1.7587   -0.6921 O   0  0  0  0  0  0  0  0  0  0  0  0
   -0.6559    0.0148   -2.0594 N   0  0  0  0  0  0  0  0  0  0  0  0
   -0.5809   -0.9893   -2.1192 H   0  0  0  0  0  0  0  0  0  0  0  0
   -0.5802    0.7829   -3.2998 C   0  0  0  0  0  0  0  0  0  0  0  0
    0.1258    1.6076   -3.1814 H   0  0  0  0  0  0  0  0  0  0  0  0
   -0.2518    0.1435   -4.1197 H   0  0  0  0  0  0  0  0  0  0  0  0
   -1.5625    1.1964   -3.5362 H   0  0  0  0  0  0  0  0  0  0  0  0
  5  6  2  0  0  0  0
  5  7  1  0  0  0  0
  2  3  1  0  0  0  0
  2  4  1  0  0  0  0
  2  5  1  0  0  0  0
  1  2  1  0  0  0  0
 25 26  2  0  0  0  0
 25 27  1  0  0  0  0
 23 24  1  0  0  0  0
 21 22  1  0  0  0  0
 21 23  2  0  0  0  0
 19 20  1  0  0  0  0
 19 21  1  0  0  0  0
 17 18  1  0  0  0  0
 17 19  2  0  0  0  0
 15 16  1  0  0  0  0
 15 17  1  0  0  0  0
 14 15  2  0  0  0  0
 14 23  1  0  0  0  0
 11 12  1  0  0  0  0
 11 13  1  0  0  0  0
 11 14  1  0  0  0  0
  9 10  1  0  0  0  0
  9 11  1  0  0  0  0
  9 25  1  0  0  0  0
  7  8  1  0  0  0  0
  7  9  1  0  0  0  0
 29 30  1  0  0  0  0
 29 31  1  0  0  0  0
 29 32  1  0  0  0  0
 27 28  1  0  0  0  0
 27 29  1  0  0  0  0
M  END
$$$$
default_name
  -OEChem-01062215323D

 32 32  0     1  0  0  0  0  0999 V2000
   -3.8405   -3.7518    1.6252 H   0  0  0  0  0  0  0  0  0  0  0  0
   -3.7965   -2.8768    0.9782 C   0  0  0  0  0  0  0  0  0  0  0  0
   -4.5465   -2.1527    1.2902 H   0  0  0  0  0  0  0  0  0  0  0  0
   -3.9745   -3.1748   -0.0538 H   0  0  0  0  0  0  0  0  0  0  0  0
   -2.4245   -2.2537    1.0882 C   0  0  0  0  0  0  0  0  0  0  0  0
   -1.5805   -2.7478    1.8242 O   0  0  0  0  0  0  0  0  0  0  0  0
   -2.2045   -1.1637    0.3562 N   0  0  0  0  0  0  0  0  0  0  0  0
   -2.9595   -0.7907   -0.2008 H   0  0  0  0  0  0  0  0  0  0  0  0
   -0.9485   -0.4087    0.3482 C   0  0  1  0  0  0  0  0  0  0  0  0
   -0.8990    0.1946    1.2560 H   0  0  0  0  0  0  0  0  0  0  0  0
    0.2351   -1.3912    0.3550 C   0  0  0  0  0  0  0  0  0  0  0  0
    0.1179   -2.0943   -0.4709 H   0  0  0  0  0  0  0  0  0  0  0  0
    1.1577   -0.8348    0.1829 H   0  0  0  0  0  0  0  0  0  0  0  0
    0.3643   -2.1903    1.6378 C   0  0  0  0  0  0  0  0  0  0  0  0
    0.9777   -1.6247    2.7717 C   0  0  0  0  0  0  0  0  0  0  0  0
    1.3817   -0.6232    2.7274 H   0  0  0  0  0  0  0  0  0  0  0  0
    1.0569   -2.3572    3.9705 C   0  0  0  0  0  0  0  0  0  0  0  0
    1.5307   -1.9220    4.8392 H   0  0  0  0  0  0  0  0  0  0  0  0
    0.5216   -3.6547    4.0384 C   0  0  0  0  0  0  0  0  0  0  0  0
    0.5846   -4.2182    4.9588 H   0  0  0  0  0  0  0  0  0  0  0  0
   -0.0907   -4.2233    2.9067 C   0  0  0  0  0  0  0  0  0  0  0  0
   -0.4974   -5.2227    2.9572 H   0  0  0  0  0  0  0  0  0  0  0  0
   -0.1668   -3.4924    1.7079 C   0  0  0  0  0  0  0  0  0  0  0  0
   -0.6351   -3.9323    0.8370 H   0  0  0  0  0  0  0  0  0  0  0  0
   -0.8915    0.5499   -0.8548 C   0  0  0  0  0  0  0  0  0  0  0  0
   -0.7867    1.7640   -0.6748 O   0  0  0  0  0  0  0  0  0  0  0  0
   -0.9656    0.0100   -2.0779 N   0  0  0  0  0  0  0  0  0  0  0  0
   -1.1066   -0.9866   -2.1420 H   0  0  0  0  0  0  0  0  0  0  0  0
   -0.9352    0.7793   -3.3195 C   0  0  0  0  0  0  0  0  0  0  0  0
   -0.0668    1.4415   -3.3229 H   0  0  0  0  0  0  0  0  0  0  0  0
   -0.8792    0.1086   -4.1773 H   0  0  0  0  0  0  0  0  0  0  0  0
   -1.8380    1.3883   -3.3963 H   0  0  0  0  0  0  0  0  0  0  0  0
  5  6  2  0  0  0  0
  5  7  1  0  0  0  0
  2  3  1  0  0  0  0
  2  4  1  0  0  0  0
  2  5  1  0  0  0  0
  1  2  1  0  0  0  0
 25 26  2  0  0  0  0
 25 27  1  0  0  0  0
 23 24  1  0  0  0  0
 21 22  1  0  0  0  0
 21 23  2  0  0  0  0
 19 20  1  0  0  0  0
 19 21  1  0  0  0  0
 17 18  1  0  0  0  0
 17 19  2  0  0  0  0
 15 16  1  0  0  0  0
 15 17  1  0  0  0  0
 14 15  2  0  0  0  0
 14 23  1  0  0  0  0
 11 12  1  0  0  0  0
 11 13  1  0  0  0  0
 11 14  1  0  0  0  0
  9 10  1  0  0  0  0
  9 11  1  0  0  0  0
  9 25  1  0  0  0  0
  7  8  1  0  0  0  0
  7  9  1  0  0  0  0
 29 30  1  0  0  0  0
 29 31  1  0  0  0  0
 29 32  1  0  0  0  0
 27 28  1  0  0  0  0
 27 29  1  0  0  0  0
M  END
$$$$
default_name
  -OEChem-01062215323D

 32 32  0     1  0  0  0  0  0999 V2000
   -3.8405   -3.7518    1.6252 H   0  0  0  0  0  0  0  0  0  0  0  0
   -3.7965   -2.8768    0.9782 C   0  0  0  0  0  0  0  0  0  0  0  0
   -4.5465   -2.1527    1.2902 H   0  0  0  0  0  0  0  0  0  0  0  0
   -3.9745   -3.1748   -0.0538 H   0  0  0  0  0  0  0  0  0  0  0  0
   -2.4245   -2.2537    1.0882 C   0  0  0  0  0  0  0  0  0  0  0  0
   -1.5805   -2.7478    1.8242 O   0  0  0  0  0  0  0  0  0  0  0  0
   -2.2045   -1.1637    0.3562 N   0  0  0  0  0  0  0  0  0  0  0  0
   -2.9595   -0.7907   -0.2008 H   0  0  0  0  0  0  0  0  0  0  0  0
   -0.9485   -0.4087    0.3482 C   0  0  1  0  0  0  0  0  0  0  0  0
   -0.8990    0.1946    1.2560 H   0  0  0  0  0  0  0  0  0  0  0  0
    0.2351   -1.3912    0.3550 C   0  0  0  0  0  0  0  0  0  0  0  0
    0.1179   -2.0943   -0.4709 H   0  0  0  0  0  0  0  0  0  0  0  0
    1.1577   -0.8348    0.1829 H   0  0  0  0  0  0  0  0  0  0  0  0
    0.3643   -2.1903    1.6378 C   0  0  0  0  0  0  0  0  0  0  0  0
    0.9777   -1.6247    2.7717 C   0  0  0  0  0  0  0  0  0  0  0  0
    1.3817   -0.6232    2.7274 H   0  0  0  0  0  0  0  0  0  0  0  0
    1.0569   -2.3572    3.9705 C   0  0  0  0  0  0  0  0  0  0  0  0
    1.5307   -1.9220    4.8392 H   0  0  0  0  0  0  0  0  0  0  0  0
    0.5216   -3.6547    4.0384 C   0  0  0  0  0  0  0  0  0  0  0  0
    0.5846   -4.2182    4.9588 H   0  0  0  0  0  0  0  0  0  0  0  0
   -0.0907   -4.2233    2.9067 C   0  0  0  0  0  0  0  0  0  0  0  0
   -0.4974   -5.2227    2.9572 H   0  0  0  0  0  0  0  0  0  0  0  0
   -0.1668   -3.4924    1.7079 C   0  0  0  0  0  0  0  0  0  0  0  0
   -0.6351   -3.9323    0.8370 H   0  0  0  0  0  0  0  0  0  0  0  0
   -0.8915    0.5499   -0.8548 C   0  0  0  0  0  0  0  0  0  0  0  0
   -0.5149    1.7129   -0.7027 O   0  0  0  0  0  0  0  0  0  0  0  0
   -1.2686    0.0682   -2.0459 N   0  0  0  0  0  0  0  0  0  0  0  0
   -1.6175   -0.8775   -2.0793 H   0  0  0  0  0  0  0  0  0  0  0  0
   -1.2820    0.8479   -3.2813 C   0  0  0  0  0  0  0  0  0  0  0  0
   -0.3093    1.3213   -3.4302 H   0  0  0  0  0  0  0  0  0  0  0  0
   -1.5015    0.2023   -4.1321 H   0  0  0  0  0  0  0  0  0  0  0  0
   -2.0428    1.6281   -3.2150 H   0  0  0  0  0  0  0  0  0  0  0  0
  5  6  2  0  0  0  0
  5  7  1  0  0  0  0
  2  3  1  0  0  0  0
  2  4  1  0  0  0  0
  2  5  1  0  0  0  0
  1  2  1  0  0  0  0
 25 26  2  0  0  0  0
 25 27  1  0  0  0  0
 23 24  1  0  0  0  0
 21 22  1  0  0  0  0
 21 23  2  0  0  0  0
 19 20  1  0  0  0  0
 19 21  1  0  0  0  0
 17 18  1  0  0  0  0
 17 19  2  0  0  0  0
 15 16  1  0  0  0  0
 15 17  1  0  0  0  0
 14 15  2  0  0  0  0
 14 23  1  0  0  0  0
 11 12  1  0  0  0  0
 11 13  1  0  0  0  0
 11 14  1  0  0  0  0
  9 10  1  0  0  0  0
  9 11  1  0  0  0  0
  9 25  1  0  0  0  0
  7  8  1  0  0  0  0
  7  9  1  0  0  0  0
 29 30  1  0  0  0  0
 29 31  1  0  0  0  0
 29 32  1  0  0  0  0
 27 28  1  0  0  0  0
 27 29  1  0  0  0  0
M  END
$$$$
default_name
  -OEChem-01062215323D

 32 32  0     1  0  0  0  0  0999 V2000
   -3.8405   -3.7518    1.6252 H   0  0  0  0  0  0  0  0  0  0  0  0
   -3.7965   -2.8768    0.9782 C   0  0  0  0  0  0  0  0  0  0  0  0
   -4.5465   -2.1527    1.2902 H   0  0  0  0  0  0  0  0  0  0  0  0
   -3.9745   -3.1748   -0.0538 H   0  0  0  0  0  0  0  0  0  0  0  0
   -2.4245   -2.2537    1.0882 C   0  0  0  0  0  0  0  0  0  0  0  0
   -1.5805   -2.7478    1.8242 O   0  0  0  0  0  0  0  0  0  0  0  0
   -2.2045   -1.1637    0.3562 N   0  0  0  0  0  0  0  0  0  0  0  0
   -2.9595   -0.7907   -0.2008 H   0  0  0  0  0  0  0  0  0  0  0  0
   -0.9485   -0.4087    0.3482 C   0  0  1  0  0  0  0  0  0  0  0  0
   -0.8990    0.1946    1.2560 H   0  0  0  0  0  0  0  0  0  0  0  0
    0.2351   -1.3912    0.3550 C   0  0  0  0  0  0  0  0  0  0  0  0
    0.1179   -2.0943   -0.4709 H   0  0  0  0  0  0  0  0  0  0  0  0
    1.1577   -0.8348    0.1829 H   0  0  0  0  0  0  0  0  0  0  0  0
    0.3643   -2.1903    1.6378 C   0  0  0  0  0  0  0  0  0  0  0  0
    0.9777   -1.6247    2.7717 C   0  0  0  0  0  0  0  0  0  0  0  0
    1.3817   -0.6232    2.7274 H   0  0  0  0  0  0  0  0  0  0  0  0
    1.0569   -2.3572    3.9705 C   0  0  0  0  0  0  0  0  0  0  0  0
    1.5307   -1.9220    4.8392 H   0  0  0  0  0  0  0  0  0  0  0  0
    0.5216   -3.6547    4.0384 C   0  0  0  0  0  0  0  0  0  0  0  0
    0.5846   -4.2182    4.9588 H   0  0  0  0  0  0  0  0  0  0  0  0
   -0.0907   -4.2233    2.9067 C   0  0  0  0  0  0  0  0  0  0  0  0
   -0.4974   -5.2227    2.9572 H   0  0  0  0  0  0  0  0  0  0  0  0
   -0.1668   -3.4924    1.7079 C   0  0  0  0  0  0  0  0  0  0  0  0
   -0.6351   -3.9323    0.8370 H   0  0  0  0  0  0  0  0  0  0  0  0
   -0.8915    0.5499   -0.8548 C   0  0  0  0  0  0  0  0  0  0  0  0
   -0.2672    1.6088   -0.7739 O   0  0  0  0  0  0  0  0  0  0  0  0
   -1.5444    0.1854   -1.9655 N   0  0  0  0  0  0  0  0  0  0  0  0
   -2.0789   -0.6694   -1.9353 H   0  0  0  0  0  0  0  0  0  0  0  0
   -1.5970    0.9838   -3.1879 C   0  0  0  0  0  0  0  0  0  0  0  0
   -0.5851    1.2553   -3.4958 H   0  0  0  0  0  0  0  0  0  0  0  0
   -2.0764    0.4182   -3.9873 H   0  0  0  0  0  0  0  0  0  0  0  0
   -2.1628    1.8993   -3.0045 H   0  0  0  0  0  0  0  0  0  0  0  0
  5  6  2  0  0  0  0
  5  7  1  0  0  0  0
  2  3  1  0  0  0  0
  2  4  1  0  0  0  0
  2  5  1  0  0  0  0
  1  2  1  0  0  0  0
 25 26  2  0  0  0  0
 25 27  1  0  0  0  0
 23 24  1  0  0  0  0
 21 22  1  0  0  0  0
 21 23  2  0  0  0  0
 19 20  1  0  0  0  0
 19 21  1  0  0  0  0
 17 18  1  0  0  0  0
 17 19  2  0  0  0  0
 15 16  1  0  0  0  0
 15 17  1  0  0  0  0
 14 15  2  0  0  0  0
 14 23  1  0  0  0  0
 11 12  1  0  0  0  0
 11 13  1  0  0  0  0
 11 14  1  0  0  0  0
  9 10  1  0  0  0  0
  9 11  1  0  0  0  0
  9 25  1  0  0  0  0
  7  8  1  0  0  0  0
  7  9  1  0  0  0  0
 29 30  1  0  0  0  0
 29 31  1  0  0  0  0
 29 32  1  0  0  0  0
 27 28  1  0  0  0  0
 27 29  1  0  0  0  0
M  END
$$$$
default_name
  -OEChem-01062215323D

 32 32  0     1  0  0  0  0  0999 V2000
   -3.8405   -3.7518    1.6252 H   0  0  0  0  0  0  0  0  0  0  0  0
   -3.7965   -2.8768    0.9782 C   0  0  0  0  0  0  0  0  0  0  0  0
   -4.5465   -2.1527    1.2902 H   0  0  0  0  0  0  0  0  0  0  0  0
   -3.9745   -3.1748   -0.0538 H   0  0  0  0  0  0  0  0  0  0  0  0
   -2.4245   -2.2537    1.0882 C   0  0  0  0  0  0  0  0  0  0  0  0
   -1.5805   -2.7478    1.8242 O   0  0  0  0  0  0  0  0  0  0  0  0
   -2.2045   -1.1637    0.3562 N   0  0  0  0  0  0  0  0  0  0  0  0
   -2.9595   -0.7907   -0.2008 H   0  0  0  0  0  0  0  0  0  0  0  0
   -0.9485   -0.4087    0.3482 C   0  0  1  0  0  0  0  0  0  0  0  0
   -0.8990    0.1946    1.2560 H   0  0  0  0  0  0  0  0  0  0  0  0
    0.2351   -1.3912    0.3550 C   0  0  0  0  0  0  0  0  0  0  0  0
    0.1179   -2.0943   -0.4709 H   0  0  0  0  0  0  0  0  0  0  0  0
    1.1577   -0.8348    0.1829 H   0  0  0  0  0  0  0  0  0  0  0  0
    0.3643   -2.1903    1.6378 C   0  0  0  0  0  0  0  0  0  0  0  0
    0.9777   -1.6247    2.7717 C   0  0  0  0  0  0  0  0  0  0  0  0
    1.3817   -0.6232    2.7274 H   0  0  0  0  0  0  0  0  0  0  0  0
    1.0569   -2.3572    3.9705 C   0  0  0  0  0  0  0  0  0  0  0  0
    1.5307   -1.9220    4.8392 H   0  0  0  0  0  0  0  0  0  0  0  0
    0.5216   -3.6547    4.0384 C   0  0  0  0  0  0  0  0  0  0  0  0
    0.5846   -4.2182    4.9588 H   0  0  0  0  0  0  0  0  0  0  0  0
   -0.0907   -4.2233    2.9067 C   0  0  0  0  0  0  0  0  0  0  0  0
   -0.4974   -5.2227    2.9572 H   0  0  0  0  0  0  0  0  0  0  0  0
   -0.1668   -3.4924    1.7079 C   0  0  0  0  0  0  0  0  0  0  0  0
   -0.6351   -3.9323    0.8370 H   0  0  0  0  0  0  0  0  0  0  0  0
   -0.8915    0.5499   -0.8548 C   0  0  0  0  0  0  0  0  0  0  0  0
   -0.0605    1.4588   -0.8836 O   0  0  0  0  0  0  0  0  0  0  0  0
   -1.7742    0.3537   -1.8424 N   0  0  0  0  0  0  0  0  0  0  0  0
   -2.4592   -0.3765   -1.7199 H   0  0  0  0  0  0  0  0  0  0  0  0
   -1.8587    1.1780   -3.0455 C   0  0  0  0  0  0  0  0  0  0  0  0
   -0.8754    1.2480   -3.5154 H   0  0  0  0  0  0  0  0  0  0  0  0
   -2.5647    0.7417   -3.7526 H   0  0  0  0  0  0  0  0  0  0  0  0
   -2.1900    2.1836   -2.7792 H   0  0  0  0  0  0  0  0  0  0  0  0
  5  6  2  0  0  0  0
  5  7  1  0  0  0  0
  2  3  1  0  0  0  0
  2  4  1  0  0  0  0
  2  5  1  0  0  0  0
  1  2  1  0  0  0  0
 25 26  2  0  0  0  0
 25 27  1  0  0  0  0
 23 24  1  0  0  0  0
 21 22  1  0  0  0  0
 21 23  2  0  0  0  0
 19 20  1  0  0  0  0
 19 21  1  0  0  0  0
 17 18  1  0  0  0  0
 17 19  2  0  0  0  0
 15 16  1  0  0  0  0
 15 17  1  0  0  0  0
 14 15  2  0  0  0  0
 14 23  1  0  0  0  0
 11 12  1  0  0  0  0
 11 13  1  0  0  0  0
 11 14  1  0  0  0  0
  9 10  1  0  0  0  0
  9 11  1  0  0  0  0
  9 25  1  0  0  0  0
  7  8  1  0  0  0  0
  7  9  1  0  0  0  0
 29 30  1  0  0  0  0
 29 31  1  0  0  0  0
 29 32  1  0  0  0  0
 27 28  1  0  0  0  0
 27 29  1  0  0  0  0
M  END
$$$$
default_name
  -OEChem-01062215323D

 32 32  0     1  0  0  0  0  0999 V2000
   -3.8405   -3.7518    1.6252 H   0  0  0  0  0  0  0  0  0  0  0  0
   -3.7965   -2.8768    0.9782 C   0  0  0  0  0  0  0  0  0  0  0  0
   -4.5465   -2.1527    1.2902 H   0  0  0  0  0  0  0  0  0  0  0  0
   -3.9745   -3.1748   -0.0538 H   0  0  0  0  0  0  0  0  0  0  0  0
   -2.4245   -2.2537    1.0882 C   0  0  0  0  0  0  0  0  0  0  0  0
   -1.5805   -2.7478    1.8242 O   0  0  0  0  0  0  0  0  0  0  0  0
   -2.2045   -1.1637    0.3562 N   0  0  0  0  0  0  0  0  0  0  0  0
   -2.9595   -0.7907   -0.2008 H   0  0  0  0  0  0  0  0  0  0  0  0
   -0.9485   -0.4087    0.3482 C   0  0  1  0  0  0  0  0  0  0  0  0
   -0.8990    0.1946    1.2560 H   0  0  0  0  0  0  0  0  0  0  0  0
    0.2351   -1.3912    0.3550 C   0  0  0  0  0  0  0  0  0  0  0  0
    0.1179   -2.0943   -0.4709 H   0  0  0  0  0  0  0  0  0  0  0  0
    1.1577   -0.8348    0.1829 H   0  0  0  0  0  0  0  0  0  0  0  0
    0.3643   -2.1903    1.6378 C   0  0  0  0  0  0  0  0  0  0  0  0
    0.9777   -1.6247    2.7717 C   0  0  0  0  0  0  0  0  0  0  0  0
    1.3817   -0.6232    2.7274 H   0  0  0  0  0  0  0  0  0  0  0  0
    1.0569   -2.3572    3.9705 C   0  0  0  0  0  0  0  0  0  0  0  0
    1.5307   -1.9220    4.8392 H   0  0  0  0  0  0  0  0  0  0  0  0
    0.5216   -3.6547    4.0384 C   0  0  0  0  0  0  0  0  0  0  0  0
    0.5846   -4.2182    4.9588 H   0  0  0  0  0  0  0  0  0  0  0  0
   -0.0907   -4.2233    2.9067 C   0  0  0  0  0  0  0  0  0  0  0  0
   -0.4974   -5.2227    2.9572 H   0  0  0  0  0  0  0  0  0  0  0  0
   -0.1668   -3.4924    1.7079 C   0  0  0  0  0  0  0  0  0  0  0  0
   -0.6351   -3.9323    0.8370 H   0  0  0  0  0  0  0  0  0  0  0  0
   -0.8915    0.5499   -0.8548 C   0  0  0  0  0  0  0  0  0  0  0  0
    0.0912    1.2732   -1.0244 O   0  0  0  0  0  0  0  0  0  0  0  0
   -1.9422    0.5615   -1.6847 N   0  0  0  0  0  0  0  0  0  0  0  0
   -2.7326   -0.0187   -1.4477 H   0  0  0  0  0  0  0  0  0  0  0  0
   -2.0492    1.4171   -2.8640 C   0  0  0  0  0  0  0  0  0  0  0  0
   -1.1605    1.2999   -3.4876 H   0  0  0  0  0  0  0  0  0  0  0  0
   -2.9331    1.1506   -3.4441 H   0  0  0  0  0  0  0  0  0  0  0  0
   -2.1224    2.4615   -2.5546 H   0  0  0  0  0  0  0  0  0  0  0  0
  5  6  2  0  0  0  0
  5  7  1  0  0  0  0
  2  3  1  0  0  0  0
  2  4  1  0  0  0  0
  2  5  1  0  0  0  0
  1  2  1  0  0  0  0
 25 26  2  0  0  0  0
 25 27  1  0  0  0  0
 23 24  1  0  0  0  0
 21 22  1  0  0  0  0
 21 23  2  0  0  0  0
 19 20  1  0  0  0  0
 19 21  1  0  0  0  0
 17 18  1  0  0  0  0
 17 19  2  0  0  0  0
 15 16  1  0  0  0  0
 15 17  1  0  0  0  0
 14 15  2  0  0  0  0
 14 23  1  0  0  0  0
 11 12  1  0  0  0  0
 11 13  1  0  0  0  0
 11 14  1  0  0  0  0
  9 10  1  0  0  0  0
  9 11  1  0  0  0  0
  9 25  1  0  0  0  0
  7  8  1  0  0  0  0
  7  9  1  0  0  0  0
 29 30  1  0  0  0  0
 29 31  1  0  0  0  0
 29 32  1  0  0  0  0
 27 28  1  0  0  0  0
 27 29  1  0  0  0  0
M  END
$$$$
default_name
  -OEChem-01062215323D

 32 32  0     1  0  0  0  0  0999 V2000
   -3.8405   -3.7518    1.6252 H   0  0  0  0  0  0  0  0  0  0  0  0
   -3.7965   -2.8768    0.9782 C   0  0  0  0  0  0  0  0  0  0  0  0
   -4.5465   -2.1527    1.2902 H   0  0  0  0  0  0  0  0  0  0  0  0
   -3.9745   -3.1748   -0.0538 H   0  0  0  0  0  0  0  0  0  0  0  0
   -2.4245   -2.2537    1.0882 C   0  0  0  0  0  0  0  0  0  0  0  0
   -1.5805   -2.7478    1.8242 O   0  0  0  0  0  0  0  0  0  0  0  0
   -2.2045   -1.1637    0.3562 N   0  0  0  0  0  0  0  0  0  0  0  0
   -2.9595   -0.7907   -0.2008 H   0  0  0  0  0  0  0  0  0  0  0  0
   -0.9485   -0.4087    0.3482 C   0  0  1  0  0  0  0  0  0  0  0  0
   -0.8990    0.1946    1.2560 H   0  0  0  0  0  0  0  0  0  0  0  0
    0.2351   -1.3912    0.3550 C   0  0  0  0  0  0  0  0  0  0  0  0
    0.1179   -2.0943   -0.4709 H   0  0  0  0  0  0  0  0  0  0  0  0
    1.1577   -0.8348    0.1829 H   0  0  0  0  0  0  0  0  0  0  0  0
    0.3643   -2.1903    1.6378 C   0  0  0  0  0  0  0  0  0  0  0  0
    0.9777   -1.6247    2.7717 C   0  0  0  0  0  0  0  0  0  0  0  0
    1.3817   -0.6232    2.7274 H   0  0  0  0  0  0  0  0  0  0  0  0
    1.0569   -2.3572    3.9705 C   0  0  0  0  0  0  0  0  0  0  0  0
    1.5307   -1.9220    4.8392 H   0  0  0  0  0  0  0  0  0  0  0  0
    0.5216   -3.6547    4.0384 C   0  0  0  0  0  0  0  0  0  0  0  0
    0.5846   -4.2182    4.9588 H   0  0  0  0  0  0  0  0  0  0  0  0
   -0.0907   -4.2233    2.9067 C   0  0  0  0  0  0  0  0  0  0  0  0
   -0.4974   -5.2227    2.9572 H   0  0  0  0  0  0  0  0  0  0  0  0
   -0.1668   -3.4924    1.7079 C   0  0  0  0  0  0  0  0  0  0  0  0
   -0.6351   -3.9323    0.8370 H   0  0  0  0  0  0  0  0  0  0  0  0
   -0.8915    0.5499   -0.8548 C   0  0  0  0  0  0  0  0  0  0  0  0
    0.1774    1.0645   -1.1866 O   0  0  0  0  0  0  0  0  0  0  0  0
   -2.0371    0.7946   -1.5034 N   0  0  0  0  0  0  0  0  0  0  0  0
   -2.8804    0.3796   -1.1373 H   0  0  0  0  0  0  0  0  0  0  0  0
   -2.1556    1.6849   -2.6557 C   0  0  0  0  0  0  0  0  0  0  0  0
   -1.4209    1.4073   -3.4143 H   0  0  0  0  0  0  0  0  0  0  0  0
   -3.1565    1.6172   -3.0829 H   0  0  0  0  0  0  0  0  0  0  0  0
   -1.9647    2.7141   -2.3458 H   0  0  0  0  0  0  0  0  0  0  0  0
  5  6  2  0  0  0  0
  5  7  1  0  0  0  0
  2  3  1  0  0  0  0
  2  4  1  0  0  0  0
  2  5  1  0  0  0  0
  1  2  1  0  0  0  0
 25 26  2  0  0  0  0
 25 27  1  0  0  0  0
 23 24  1  0  0  0  0
 21 22  1  0  0  0  0
 21 23  2  0  0  0  0
 19 20  1  0  0  0  0
 19 21  1  0  0  0  0
 17 18  1  0  0  0  0
 17 19  2  0  0  0  0
 15 16  1  0  0  0  0
 15 17  1  0  0  0  0
 14 15  2  0  0  0  0
 14 23  1  0  0  0  0
 11 12  1  0  0  0  0
 11 13  1  0  0  0  0
 11 14  1  0  0  0  0
  9 10  1  0  0  0  0
  9 11  1  0  0  0  0
  9 25  1  0  0  0  0
  7  8  1  0  0  0  0
  7  9  1  0  0  0  0
 29 30  1  0  0  0  0
 29 31  1  0  0  0  0
 29 32  1  0  0  0  0
 27 28  1  0  0  0  0
 27 29  1  0  0  0  0
M  END
$$$$
default_name
  -OEChem-01062215323D

 32 32  0     1  0  0  0  0  0999 V2000
   -3.8405   -3.7518    1.6252 H   0  0  0  0  0  0  0  0  0  0  0  0
   -3.7965   -2.8768    0.9782 C   0  0  0  0  0  0  0  0  0  0  0  0
   -4.5465   -2.1527    1.2902 H   0  0  0  0  0  0  0  0  0  0  0  0
   -3.9745   -3.1748   -0.0538 H   0  0  0  0  0  0  0  0  0  0  0  0
   -2.4245   -2.2537    1.0882 C   0  0  0  0  0  0  0  0  0  0  0  0
   -1.5805   -2.7478    1.8242 O   0  0  0  0  0  0  0  0  0  0  0  0
   -2.2045   -1.1637    0.3562 N   0  0  0  0  0  0  0  0  0  0  0  0
   -2.9595   -0.7907   -0.2008 H   0  0  0  0  0  0  0  0  0  0  0  0
   -0.9485   -0.4087    0.3482 C   0  0  1  0  0  0  0  0  0  0  0  0
   -0.8990    0.1946    1.2560 H   0  0  0  0  0  0  0  0  0  0  0  0
    0.2351   -1.3912    0.3550 C   0  0  0  0  0  0  0  0  0  0  0  0
    0.1179   -2.0943   -0.4709 H   0  0  0  0  0  0  0  0  0  0  0  0
    1.1577   -0.8348    0.1829 H   0  0  0  0  0  0  0  0  0  0  0  0
    0.3643   -2.1903    1.6378 C   0  0  0  0  0  0  0  0  0  0  0  0
    0.9777   -1.6247    2.7717 C   0  0  0  0  0  0  0  0  0  0  0  0
    1.3817   -0.6232    2.7274 H   0  0  0  0  0  0  0  0  0  0  0  0
    1.0569   -2.3572    3.9705 C   0  0  0  0  0  0  0  0  0  0  0  0
    1.5307   -1.9220    4.8392 H   0  0  0  0  0  0  0  0  0  0  0  0
    0.5216   -3.6547    4.0384 C   0  0  0  0  0  0  0  0  0  0  0  0
    0.5846   -4.2182    4.9588 H   0  0  0  0  0  0  0  0  0  0  0  0
   -0.0907   -4.2233    2.9067 C   0  0  0  0  0  0  0  0  0  0  0  0
   -0.4974   -5.2227    2.9572 H   0  0  0  0  0  0  0  0  0  0  0  0
   -0.1668   -3.4924    1.7079 C   0  0  0  0  0  0  0  0  0  0  0  0
   -0.6351   -3.9323    0.8370 H   0  0  0  0  0  0  0  0  0  0  0  0
   -0.8915    0.5499   -0.8548 C   0  0  0  0  0  0  0  0  0  0  0  0
    0.1924    0.8471   -1.3591 O   0  0  0  0  0  0  0  0  0  0  0  0
   -2.0524    1.0373   -1.3107 N   0  0  0  0  0  0  0  0  0  0  0  0
   -2.8925    0.7913   -0.8098 H   0  0  0  0  0  0  0  0  0  0  0  0
   -2.1707    1.9630   -2.4347 C   0  0  0  0  0  0  0  0  0  0  0  0
   -1.6388    1.5631   -3.3005 H   0  0  0  0  0  0  0  0  0  0  0  0
   -3.2197    2.1096   -2.6935 H   0  0  0  0  0  0  0  0  0  0  0  0
   -1.7276    2.9242   -2.1671 H   0  0  0  0  0  0  0  0  0  0  0  0
  5  6  2  0  0  0  0
  5  7  1  0  0  0  0
  2  3  1  0  0  0  0
  2  4  1  0  0  0  0
  2  5  1  0  0  0  0
  1  2  1  0  0  0  0
 25 26  2  0  0  0  0
 25 27  1  0  0  0  0
 23 24  1  0  0  0  0
 21 22  1  0  0  0  0
 21 23  2  0  0  0  0
 19 20  1  0  0  0  0
 19 21  1  0  0  0  0
 17 18  1  0  0  0  0
 17 19  2  0  0  0  0
 15 16  1  0  0  0  0
 15 17  1  0  0  0  0
 14 15  2  0  0  0  0
 14 23  1  0  0  0  0
 11 12  1  0  0  0  0
 11 13  1  0  0  0  0
 11 14  1  0  0  0  0
  9 10  1  0  0  0  0
  9 11  1  0  0  0  0
  9 25  1  0  0  0  0
  7  8  1  0  0  0  0
  7  9  1  0  0  0  0
 29 30  1  0  0  0  0
 29 31  1  0  0  0  0
 29 32  1  0  0  0  0
 27 28  1  0  0  0  0
 27 29  1  0  0  0  0
M  END
$$$$
default_name
  -OEChem-01062215323D

 32 32  0     1  0  0  0  0  0999 V2000
   -3.8405   -3.7518    1.6252 H   0  0  0  0  0  0  0  0  0  0  0  0
   -3.7965   -2.8768    0.9782 C   0  0  0  0  0  0  0  0  0  0  0  0
   -4.5465   -2.1527    1.2902 H   0  0  0  0  0  0  0  0  0  0  0  0
   -3.9745   -3.1748   -0.0538 H   0  0  0  0  0  0  0  0  0  0  0  0
   -2.4245   -2.2537    1.0882 C   0  0  0  0  0  0  0  0  0  0  0  0
   -1.5805   -2.7478    1.8242 O   0  0  0  0  0  0  0  0  0  0  0  0
   -2.2045   -1.1637    0.3562 N   0  0  0  0  0  0  0  0  0  0  0  0
   -2.9595   -0.7907   -0.2008 H   0  0  0  0  0  0  0  0  0  0  0  0
   -0.9485   -0.4087    0.3482 C   0  0  1  0  0  0  0  0  0  0  0  0
   -0.8990    0.1946    1.2560 H   0  0  0  0  0  0  0  0  0  0  0  0
    0.2351   -1.3912    0.3550 C   0  0  0  0  0  0  0  0  0  0  0  0
    0.1179   -2.0943   -0.4709 H   0  0  0  0  0  0  0  0  0  0  0  0
    1.1577   -0.8348    0.1829 H   0  0  0  0  0  0  0  0  0  0  0  0
    0.3643   -2.1903    1.6378 C   0  0  0  0  0  0  0  0  0  0  0  0
    0.9777   -1.6247    2.7717 C   0  0  0  0  0  0  0  0  0  0  0  0
    1.3817   -0.6232    2.7274 H   0  0  0  0  0  0  0  0  0  0  0  0
    1.0569   -2.3572    3.9705 C   0  0  0  0  0  0  0  0  0  0  0  0
    1.5307   -1.9220    4.8392 H   0  0  0  0  0  0  0  0  0  0  0  0
    0.5216   -3.6547    4.0384 C   0  0  0  0  0  0  0  0  0  0  0  0
    0.5846   -4.2182    4.9588 H   0  0  0  0  0  0  0  0  0  0  0  0
   -0.0907   -4.2233    2.9067 C   0  0  0  0  0  0  0  0  0  0  0  0
   -0.4974   -5.2227    2.9572 H   0  0  0  0  0  0  0  0  0  0  0  0
   -0.1668   -3.4924    1.7079 C   0  0  0  0  0  0  0  0  0  0  0  0
   -0.6351   -3.9323    0.8370 H   0  0  0  0  0  0  0  0  0  0  0  0
   -0.8915    0.5499   -0.8548 C   0  0  0  0  0  0  0  0  0  0  0  0
    0.1350    0.6358   -1.5303 O   0  0  0  0  0  0  0  0  0  0  0  0
   -1.9869    1.2730   -1.1198 N   0  0  0  0  0  0  0  0  0  0  0  0
   -2.7682    1.1883   -0.4875 H   0  0  0  0  0  0  0  0  0  0  0  0
   -2.0934    2.2326   -2.2162 C   0  0  0  0  0  0  0  0  0  0  0  0
   -1.7995    1.7565   -3.1540 H   0  0  0  0  0  0  0  0  0  0  0  0
   -3.1183    2.5943   -2.3024 H   0  0  0  0  0  0  0  0  0  0  0  0
   -1.4273    3.0775   -2.0307 H   0  0  0  0  0  0  0  0  0  0  0  0
  5  6  2  0  0  0  0
  5  7  1  0  0  0  0
  2  3  1  0  0  0  0
  2  4  1  0  0  0  0
  2  5  1  0  0  0  0
  1  2  1  0  0  0  0
 25 26  2  0  0  0  0
 25 27  1  0  0  0  0
 23 24  1  0  0  0  0
 21 22  1  0  0  0  0
 21 23  2  0  0  0  0
 19 20  1  0  0  0  0
 19 21  1  0  0  0  0
 17 18  1  0  0  0  0
 17 19  2  0  0  0  0
 15 16  1  0  0  0  0
 15 17  1  0  0  0  0
 14 15  2  0  0  0  0
 14 23  1  0  0  0  0
 11 12  1  0  0  0  0
 11 13  1  0  0  0  0
 11 14  1  0  0  0  0
  9 10  1  0  0  0  0
  9 11  1  0  0  0  0
  9 25  1  0  0  0  0
  7  8  1  0  0  0  0
  7  9  1  0  0  0  0
 29 30  1  0  0  0  0
 29 31  1  0  0  0  0
 29 32  1  0  0  0  0
 27 28  1  0  0  0  0
 27 29  1  0  0  0  0
M  END
$$$$
default_name
  -OEChem-01062215323D

 32 32  0     1  0  0  0  0  0999 V2000
   -3.8405   -3.7518    1.6252 H   0  0  0  0  0  0  0  0  0  0  0  0
   -3.7965   -2.8768    0.9782 C   0  0  0  0  0  0  0  0  0  0  0  0
   -4.5465   -2.1527    1.2902 H   0  0  0  0  0  0  0  0  0  0  0  0
   -3.9745   -3.1748   -0.0538 H   0  0  0  0  0  0  0  0  0  0  0  0
   -2.4245   -2.2537    1.0882 C   0  0  0  0  0  0  0  0  0  0  0  0
   -1.5805   -2.7478    1.8242 O   0  0  0  0  0  0  0  0  0  0  0  0
   -2.2045   -1.1637    0.3562 N   0  0  0  0  0  0  0  0  0  0  0  0
   -2.9595   -0.7907   -0.2008 H   0  0  0  0  0  0  0  0  0  0  0  0
   -0.9485   -0.4087    0.3482 C   0  0  1  0  0  0  0  0  0  0  0  0
   -0.8990    0.1946    1.2560 H   0  0  0  0  0  0  0  0  0  0  0  0
    0.2351   -1.3912    0.3550 C   0  0  0  0  0  0  0  0  0  0  0  0
    0.1179   -2.0943   -0.4709 H   0  0  0  0  0  0  0  0  0  0  0  0
    1.1577   -0.8348    0.1829 H   0  0  0  0  0  0  0  0  0  0  0  0
    0.3643   -2.1903    1.6378 C   0  0  0  0  0  0  0  0  0  0  0  0
    0.9777   -1.6247    2.7717 C   0  0  0  0  0  0  0  0  0  0  0  0
    1.3817   -0.6232    2.7274 H   0  0  0  0  0  0  0  0  0  0  0  0
    1.0569   -2.3572    3.9705 C   0  0  0  0  0  0  0  0  0  0  0  0
    1.5307   -1.9220    4.8392 H   0  0  0  0  0  0  0  0  0  0  0  0
    0.5216   -3.6547    4.0384 C   0  0  0  0  0  0  0  0  0  0  0  0
    0.5846   -4.2182    4.9588 H   0  0  0  0  0  0  0  0  0  0  0  0
   -0.0907   -4.2233    2.9067 C   0  0  0  0  0  0  0  0  0  0  0  0
   -0.4974   -5.2227    2.9572 H   0  0  0  0  0  0  0  0  0  0  0  0
   -0.1668   -3.4924    1.7079 C   0  0  0  0  0  0  0  0  0  0  0  0
   -0.6351   -3.9323    0.8370 H   0  0  0  0  0  0  0  0  0  0  0  0
   -0.8915    0.5499   -0.8548 C   0  0  0  0  0  0  0  0  0  0  0  0
    0.0093    0.4448   -1.6884 O   0  0  0  0  0  0  0  0  0  0  0  0
   -1.8453    1.4856   -0.9437 N   0  0  0  0  0  0  0  0  0  0  0  0
   -2.5159    1.5435   -0.1925 H   0  0  0  0  0  0  0  0  0  0  0  0
   -1.9289    2.4753   -2.0149 C   0  0  0  0  0  0  0  0  0  0  0  0
   -1.8920    1.9745   -2.9847 H   0  0  0  0  0  0  0  0  0  0  0  0
   -2.8594    3.0382   -1.9363 H   0  0  0  0  0  0  0  0  0  0  0  0
   -1.0842    3.1635   -1.9459 H   0  0  0  0  0  0  0  0  0  0  0  0
  5  6  2  0  0  0  0
  5  7  1  0  0  0  0
  2  3  1  0  0  0  0
  2  4  1  0  0  0  0
  2  5  1  0  0  0  0
  1  2  1  0  0  0  0
 25 26  2  0  0  0  0
 25 27  1  0  0  0  0
 23 24  1  0  0  0  0
 21 22  1  0  0  0  0
 21 23  2  0  0  0  0
 19 20  1  0  0  0  0
 19 21  1  0  0  0  0
 17 18  1  0  0  0  0
 17 19  2  0  0  0  0
 15 16  1  0  0  0  0
 15 17  1  0  0  0  0
 14 15  2  0  0  0  0
 14 23  1  0  0  0  0
 11 12  1  0  0  0  0
 11 13  1  0  0  0  0
 11 14  1  0  0  0  0
  9 10  1  0  0  0  0
  9 11  1  0  0  0  0
  9 25  1  0  0  0  0
  7  8  1  0  0  0  0
  7  9  1  0  0  0  0
 29 30  1  0  0  0  0
 29 31  1  0  0  0  0
 29 32  1  0  0  0  0
 27 28  1  0  0  0  0
 27 29  1  0  0  0  0
M  END
$$$$
default_name
  -OEChem-01062215323D

 32 32  0     1  0  0  0  0  0999 V2000
   -3.8405   -3.7518    1.6252 H   0  0  0  0  0  0  0  0  0  0  0  0
   -3.7965   -2.8768    0.9782 C   0  0  0  0  0  0  0  0  0  0  0  0
   -4.5465   -2.1527    1.2902 H   0  0  0  0  0  0  0  0  0  0  0  0
   -3.9745   -3.1748   -0.0538 H   0  0  0  0  0  0  0  0  0  0  0  0
   -2.4245   -2.2537    1.0882 C   0  0  0  0  0  0  0  0  0  0  0  0
   -1.5805   -2.7478    1.8242 O   0  0  0  0  0  0  0  0  0  0  0  0
   -2.2045   -1.1637    0.3562 N   0  0  0  0  0  0  0  0  0  0  0  0
   -2.9595   -0.7907   -0.2008 H   0  0  0  0  0  0  0  0  0  0  0  0
   -0.9485   -0.4087    0.3482 C   0  0  1  0  0  0  0  0  0  0  0  0
   -0.8990    0.1946    1.2560 H   0  0  0  0  0  0  0  0  0  0  0  0
    0.2351   -1.3912    0.3550 C   0  0  0  0  0  0  0  0  0  0  0  0
    0.1179   -2.0943   -0.4709 H   0  0  0  0  0  0  0  0  0  0  0  0
    1.1577   -0.8348    0.1829 H   0  0  0  0  0  0  0  0  0  0  0  0
    0.3643   -2.1903    1.6378 C   0  0  0  0  0  0  0  0  0  0  0  0
    0.9777   -1.6247    2.7717 C   0  0  0  0  0  0  0  0  0  0  0  0
    1.3817   -0.6232    2.7274 H   0  0  0  0  0  0  0  0  0  0  0  0
    1.0569   -2.3572    3.9705 C   0  0  0  0  0  0  0  0  0  0  0  0
    1.5307   -1.9220    4.8392 H   0  0  0  0  0  0  0  0  0  0  0  0
    0.5216   -3.6547    4.0384 C   0  0  0  0  0  0  0  0  0  0  0  0
    0.5846   -4.2182    4.9588 H   0  0  0  0  0  0  0  0  0  0  0  0
   -0.0907   -4.2233    2.9067 C   0  0  0  0  0  0  0  0  0  0  0  0
   -0.4974   -5.2227    2.9572 H   0  0  0  0  0  0  0  0  0  0  0  0
   -0.1668   -3.4924    1.7079 C   0  0  0  0  0  0  0  0  0  0  0  0
   -0.6351   -3.9323    0.8370 H   0  0  0  0  0  0  0  0  0  0  0  0
   -0.8915    0.5499   -0.8548 C   0  0  0  0  0  0  0  0  0  0  0  0
   -0.1762    0.2873   -1.8227 O   0  0  0  0  0  0  0  0  0  0  0  0
   -1.6371    1.6606   -0.7943 N   0  0  0  0  0  0  0  0  0  0  0  0
   -2.1528    1.8327    0.0552 H   0  0  0  0  0  0  0  0  0  0  0  0
   -1.6885    2.6745   -1.8448 C   0  0  0  0  0  0  0  0  0  0  0  0
   -1.9099    2.2021   -2.8041 H   0  0  0  0  0  0  0  0  0  0  0  0
   -2.4604    3.4111   -1.6202 H   0  0  0  0  0  0  0  0  0  0  0  0
   -0.7218    3.1764   -1.9184 H   0  0  0  0  0  0  0  0  0  0  0  0
  5  6  2  0  0  0  0
  5  7  1  0  0  0  0
  2  3  1  0  0  0  0
  2  4  1  0  0  0  0
  2  5  1  0  0  0  0
  1  2  1  0  0  0  0
 25 26  2  0  0  0  0
 25 27  1  0  0  0  0
 23 24  1  0  0  0  0
 21 22  1  0  0  0  0
 21 23  2  0  0  0  0
 19 20  1  0  0  0  0
 19 21  1  0  0  0  0
 17 18  1  0  0  0  0
 17 19  2  0  0  0  0
 15 16  1  0  0  0  0
 15 17  1  0  0  0  0
 14 15  2  0  0  0  0
 14 23  1  0  0  0  0
 11 12  1  0  0  0  0
 11 13  1  0  0  0  0
 11 14  1  0  0  0  0
  9 10  1  0  0  0  0
  9 11  1  0  0  0  0
  9 25  1  0  0  0  0
  7  8  1  0  0  0  0
  7  9  1  0  0  0  0
 29 30  1  0  0  0  0
 29 31  1  0  0  0  0
 29 32  1  0  0  0  0
 27 28  1  0  0  0  0
 27 29  1  0  0  0  0
M  END
$$$$
default_name
  -OEChem-01062215323D

 32 32  0     1  0  0  0  0  0999 V2000
   -3.8405   -3.7518    1.6252 H   0  0  0  0  0  0  0  0  0  0  0  0
   -3.7965   -2.8768    0.9782 C   0  0  0  0  0  0  0  0  0  0  0  0
   -4.5465   -2.1527    1.2902 H   0  0  0  0  0  0  0  0  0  0  0  0
   -3.9745   -3.1748   -0.0538 H   0  0  0  0  0  0  0  0  0  0  0  0
   -2.4245   -2.2537    1.0882 C   0  0  0  0  0  0  0  0  0  0  0  0
   -1.5805   -2.7478    1.8242 O   0  0  0  0  0  0  0  0  0  0  0  0
   -2.2045   -1.1637    0.3562 N   0  0  0  0  0  0  0  0  0  0  0  0
   -2.9595   -0.7907   -0.2008 H   0  0  0  0  0  0  0  0  0  0  0  0
   -0.9485   -0.4087    0.3482 C   0  0  1  0  0  0  0  0  0  0  0  0
   -0.8990    0.1946    1.2560 H   0  0  0  0  0  0  0  0  0  0  0  0
    0.2351   -1.3912    0.3550 C   0  0  0  0  0  0  0  0  0  0  0  0
    0.1179   -2.0943   -0.4709 H   0  0  0  0  0  0  0  0  0  0  0  0
    1.1577   -0.8348    0.1829 H   0  0  0  0  0  0  0  0  0  0  0  0
    0.3643   -2.1903    1.6378 C   0  0  0  0  0  0  0  0  0  0  0  0
    0.9777   -1.6247    2.7717 C   0  0  0  0  0  0  0  0  0  0  0  0
    1.3817   -0.6232    2.7274 H   0  0  0  0  0  0  0  0  0  0  0  0
    1.0569   -2.3572    3.9705 C   0  0  0  0  0  0  0  0  0  0  0  0
    1.5307   -1.9220    4.8392 H   0  0  0  0  0  0  0  0  0  0  0  0
    0.5216   -3.6547    4.0384 C   0  0  0  0  0  0  0  0  0  0  0  0
    0.5846   -4.2182    4.9588 H   0  0  0  0  0  0  0  0  0  0  0  0
   -0.0907   -4.2233    2.9067 C   0  0  0  0  0  0  0  0  0  0  0  0
   -0.4974   -5.2227    2.9572 H   0  0  0  0  0  0  0  0  0  0  0  0
   -0.1668   -3.4924    1.7079 C   0  0  0  0  0  0  0  0  0  0  0  0
   -0.6351   -3.9323    0.8370 H   0  0  0  0  0  0  0  0  0  0  0  0
   -0.8915    0.5499   -0.8548 C   0  0  0  0  0  0  0  0  0  0  0  0
   -0.4090    0.1741   -1.9240 O   0  0  0  0  0  0  0  0  0  0  0  0
   -1.3766    1.7860   -0.6820 N   0  0  0  0  0  0  0  0  0  0  0  0
   -1.7036    2.0362    0.2388 H   0  0  0  0  0  0  0  0  0  0  0  0
   -1.3886    2.8167   -1.7173 C   0  0  0  0  0  0  0  0  0  0  0  0
   -1.8521    2.4239   -2.6247 H   0  0  0  0  0  0  0  0  0  0  0  0
   -1.9487    3.6876   -1.3757 H   0  0  0  0  0  0  0  0  0  0  0  0
   -0.3647    3.1153   -1.9502 H   0  0  0  0  0  0  0  0  0  0  0  0
  5  6  2  0  0  0  0
  5  7  1  0  0  0  0
  2  3  1  0  0  0  0
  2  4  1  0  0  0  0
  2  5  1  0  0  0  0
  1  2  1  0  0  0  0
 25 26  2  0  0  0  0
 25 27  1  0  0  0  0
 23 24  1  0  0  0  0
 21 22  1  0  0  0  0
 21 23  2  0  0  0  0
 19 20  1  0  0  0  0
 19 21  1  0  0  0  0
 17 18  1  0  0  0  0
 17 19  2  0  0  0  0
 15 16  1  0  0  0  0
 15 17  1  0  0  0  0
 14 15  2  0  0  0  0
 14 23  1  0  0  0  0
 11 12  1  0  0  0  0
 11 13  1  0  0  0  0
 11 14  1  0  0  0  0
  9 10  1  0  0  0  0
  9 11  1  0  0  0  0
  9 25  1  0  0  0  0
  7  8  1  0  0  0  0
  7  9  1  0  0  0  0
 29 30  1  0  0  0  0
 29 31  1  0  0  0  0
 29 32  1  0  0  0  0
 27 28  1  0  0  0  0
 27 29  1  0  0  0  0
M  END
$$$$
default_name
  -OEChem-01062215323D

 32 32  0     1  0  0  0  0  0999 V2000
   -3.8405   -3.7518    1.6252 H   0  0  0  0  0  0  0  0  0  0  0  0
   -3.7965   -2.8768    0.9782 C   0  0  0  0  0  0  0  0  0  0  0  0
   -4.5465   -2.1527    1.2902 H   0  0  0  0  0  0  0  0  0  0  0  0
   -3.9745   -3.1748   -0.0538 H   0  0  0  0  0  0  0  0  0  0  0  0
   -2.4245   -2.2537    1.0882 C   0  0  0  0  0  0  0  0  0  0  0  0
   -1.5805   -2.7478    1.8242 O   0  0  0  0  0  0  0  0  0  0  0  0
   -2.2045   -1.1637    0.3562 N   0  0  0  0  0  0  0  0  0  0  0  0
   -2.9595   -0.7907   -0.2008 H   0  0  0  0  0  0  0  0  0  0  0  0
   -0.9485   -0.4087    0.3482 C   0  0  1  0  0  0  0  0  0  0  0  0
   -0.8990    0.1946    1.2560 H   0  0  0  0  0  0  0  0  0  0  0  0
    0.2351   -1.3912    0.3550 C   0  0  0  0  0  0  0  0  0  0  0  0
    0.1179   -2.0943   -0.4709 H   0  0  0  0  0  0  0  0  0  0  0  0
    1.1577   -0.8348    0.1829 H   0  0  0  0  0  0  0  0  0  0  0  0
    0.3643   -2.1903    1.6378 C   0  0  0  0  0  0  0  0  0  0  0  0
    0.9777   -1.6247    2.7717 C   0  0  0  0  0  0  0  0  0  0  0  0
    1.3817   -0.6232    2.7274 H   0  0  0  0  0  0  0  0  0  0  0  0
    1.0569   -2.3572    3.9705 C   0  0  0  0  0  0  0  0  0  0  0  0
    1.5307   -1.9220    4.8392 H   0  0  0  0  0  0  0  0  0  0  0  0
    0.5216   -3.6547    4.0384 C   0  0  0  0  0  0  0  0  0  0  0  0
    0.5846   -4.2182    4.9588 H   0  0  0  0  0  0  0  0  0  0  0  0
   -0.0907   -4.2233    2.9067 C   0  0  0  0  0  0  0  0  0  0  0  0
   -0.4974   -5.2227    2.9572 H   0  0  0  0  0  0  0  0  0  0  0  0
   -0.1668   -3.4924    1.7079 C   0  0  0  0  0  0  0  0  0  0  0  0
   -0.6351   -3.9323    0.8370 H   0  0  0  0  0  0  0  0  0  0  0  0
   -0.8915    0.5499   -0.8548 C   0  0  0  0  0  0  0  0  0  0  0  0
   -0.6730    0.1127   -1.9855 O   0  0  0  0  0  0  0  0  0  0  0  0
   -1.0814    1.8535   -0.6142 N   0  0  0  0  0  0  0  0  0  0  0  0
   -1.1990    2.1403    0.3456 H   0  0  0  0  0  0  0  0  0  0  0  0
   -1.0496    2.8922   -1.6410 C   0  0  0  0  0  0  0  0  0  0  0  0
   -1.7224    2.6246   -2.4585 H   0  0  0  0  0  0  0  0  0  0  0  0
   -1.3591    3.8488   -1.2192 H   0  0  0  0  0  0  0  0  0  0  0  0
   -0.0372    2.9843   -2.0391 H   0  0  0  0  0  0  0  0  0  0  0  0
  5  6  2  0  0  0  0
  5  7  1  0  0  0  0
  2  3  1  0  0  0  0
  2  4  1  0  0  0  0
  2  5  1  0  0  0  0
  1  2  1  0  0  0  0
 25 26  2  0  0  0  0
 25 27  1  0  0  0  0
 23 24  1  0  0  0  0
 21 22  1  0  0  0  0
 21 23  2  0  0  0  0
 19 20  1  0  0  0  0
 19 21  1  0  0  0  0
 17 18  1  0  0  0  0
 17 19  2  0  0  0  0
 15 16  1  0  0  0  0
 15 17  1  0  0  0  0
 14 15  2  0  0  0  0
 14 23  1  0  0  0  0
 11 12  1  0  0  0  0
 11 13  1  0  0  0  0
 11 14  1  0  0  0  0
  9 10  1  0  0  0  0
  9 11  1  0  0  0  0
  9 25  1  0  0  0  0
  7  8  1  0  0  0  0
  7  9  1  0  0  0  0
 29 30  1  0  0  0  0
 29 31  1  0  0  0  0
 29 32  1  0  0  0  0
 27 28  1  0  0  0  0
 27 29  1  0  0  0  0
M  END
$$$$
default_name
  -OEChem-01062215323D

 32 32  0     1  0  0  0  0  0999 V2000
   -3.8405   -3.7518    1.6252 H   0  0  0  0  0  0  0  0  0  0  0  0
   -3.7965   -2.8768    0.9782 C   0  0  0  0  0  0  0  0  0  0  0  0
   -4.5465   -2.1527    1.2902 H   0  0  0  0  0  0  0  0  0  0  0  0
   -3.9745   -3.1748   -0.0538 H   0  0  0  0  0  0  0  0  0  0  0  0
   -2.4245   -2.2537    1.0882 C   0  0  0  0  0  0  0  0  0  0  0  0
   -1.5805   -2.7478    1.8242 O   0  0  0  0  0  0  0  0  0  0  0  0
   -2.2045   -1.1637    0.3562 N   0  0  0  0  0  0  0  0  0  0  0  0
   -2.9595   -0.7907   -0.2008 H   0  0  0  0  0  0  0  0  0  0  0  0
   -0.9485   -0.4087    0.3482 C   0  0  1  0  0  0  0  0  0  0  0  0
   -0.8990    0.1946    1.2560 H   0  0  0  0  0  0  0  0  0  0  0  0
    0.2351   -1.3912    0.3550 C   0  0  0  0  0  0  0  0  0  0  0  0
    0.1179   -2.0943   -0.4709 H   0  0  0  0  0  0  0  0  0  0  0  0
    1.1577   -0.8348    0.1829 H   0  0  0  0  0  0  0  0  0  0  0  0
    0.3643   -2.1903    1.6378 C   0  0  0  0  0  0  0  0  0  0  0  0
    0.9777   -1.6247    2.7717 C   0  0  0  0  0  0  0  0  0  0  0  0
    1.3817   -0.6232    2.7274 H   0  0  0  0  0  0  0  0  0  0  0  0
    1.0569   -2.3572    3.9705 C   0  0  0  0  0  0  0  0  0  0  0  0
    1.5307   -1.9220    4.8392 H   0  0  0  0  0  0  0  0  0  0  0  0
    0.5216   -3.6547    4.0384 C   0  0  0  0  0  0  0  0  0  0  0  0
    0.5846   -4.2182    4.9588 H   0  0  0  0  0  0  0  0  0  0  0  0
   -0.0907   -4.2233    2.9067 C   0  0  0  0  0  0  0  0  0  0  0  0
   -0.4974   -5.2227    2.9572 H   0  0  0  0  0  0  0  0  0  0  0  0
   -0.1668   -3.4924    1.7079 C   0  0  0  0  0  0  0  0  0  0  0  0
   -0.6351   -3.9323    0.8370 H   0  0  0  0  0  0  0  0  0  0  0  0
   -0.8915    0.5499   -0.8548 C   0  0  0  0  0  0  0  0  0  0  0  0
   -0.9504    0.1074   -2.0028 O   0  0  0  0  0  0  0  0  0  0  0  0
   -0.7717    1.8582   -0.5958 N   0  0  0  0  0  0  0  0  0  0  0  0
   -0.6733    2.1376    0.3684 H   0  0  0  0  0  0  0  0  0  0  0  0
   -0.6946    2.8958   -1.6214 C   0  0  0  0  0  0  0  0  0  0  0  0
   -1.5298    2.7908   -2.3170 H   0  0  0  0  0  0  0  0  0  0  0  0
   -0.7317    3.8838   -1.1616 H   0  0  0  0  0  0  0  0  0  0  0  0
    0.2383    2.7924   -2.1789 H   0  0  0  0  0  0  0  0  0  0  0  0
  5  6  2  0  0  0  0
  5  7  1  0  0  0  0
  2  3  1  0  0  0  0
  2  4  1  0  0  0  0
  2  5  1  0  0  0  0
  1  2  1  0  0  0  0
 25 26  2  0  0  0  0
 25 27  1  0  0  0  0
 23 24  1  0  0  0  0
 21 22  1  0  0  0  0
 21 23  2  0  0  0  0
 19 20  1  0  0  0  0
 19 21  1  0  0  0  0
 17 18  1  0  0  0  0
 17 19  2  0  0  0  0
 15 16  1  0  0  0  0
 15 17  1  0  0  0  0
 14 15  2  0  0  0  0
 14 23  1  0  0  0  0
 11 12  1  0  0  0  0
 11 13  1  0  0  0  0
 11 14  1  0  0  0  0
  9 10  1  0  0  0  0
  9 11  1  0  0  0  0
  9 25  1  0  0  0  0
  7  8  1  0  0  0  0
  7  9  1  0  0  0  0
 29 30  1  0  0  0  0
 29 31  1  0  0  0  0
 29 32  1  0  0  0  0
 27 28  1  0  0  0  0
 27 29  1  0  0  0  0
M  END
$$$$
default_name
  -OEChem-01062215323D

 32 32  0     1  0  0  0  0  0999 V2000
   -3.8405   -3.7518    1.6252 H   0  0  0  0  0  0  0  0  0  0  0  0
   -3.7965   -2.8768    0.9782 C   0  0  0  0  0  0  0  0  0  0  0  0
   -4.5465   -2.1527    1.2902 H   0  0  0  0  0  0  0  0  0  0  0  0
   -3.9745   -3.1748   -0.0538 H   0  0  0  0  0  0  0  0  0  0  0  0
   -2.4245   -2.2537    1.0882 C   0  0  0  0  0  0  0  0  0  0  0  0
   -1.5805   -2.7478    1.8242 O   0  0  0  0  0  0  0  0  0  0  0  0
   -2.2045   -1.1637    0.3562 N   0  0  0  0  0  0  0  0  0  0  0  0
   -2.9595   -0.7907   -0.2008 H   0  0  0  0  0  0  0  0  0  0  0  0
   -0.9485   -0.4087    0.3482 C   0  0  1  0  0  0  0  0  0  0  0  0
   -0.8990    0.1946    1.2560 H   0  0  0  0  0  0  0  0  0  0  0  0
    0.2351   -1.3912    0.3550 C   0  0  0  0  0  0  0  0  0  0  0  0
    0.1179   -2.0943   -0.4709 H   0  0  0  0  0  0  0  0  0  0  0  0
    1.1577   -0.8348    0.1829 H   0  0  0  0  0  0  0  0  0  0  0  0
    0.3643   -2.1903    1.6378 C   0  0  0  0  0  0  0  0  0  0  0  0
    0.9777   -1.6247    2.7717 C   0  0  0  0  0  0  0  0  0  0  0  0
    1.3817   -0.6232    2.7274 H   0  0  0  0  0  0  0  0  0  0  0  0
    1.0569   -2.3572    3.9705 C   0  0  0  0  0  0  0  0  0  0  0  0
    1.5307   -1.9220    4.8392 H   0  0  0  0  0  0  0  0  0  0  0  0
    0.5216   -3.6547    4.0384 C   0  0  0  0  0  0  0  0  0  0  0  0
    0.5846   -4.2182    4.9588 H   0  0  0  0  0  0  0  0  0  0  0  0
   -0.0907   -4.2233    2.9067 C   0  0  0  0  0  0  0  0  0  0  0  0
   -0.4974   -5.2227    2.9572 H   0  0  0  0  0  0  0  0  0  0  0  0
   -0.1668   -3.4924    1.7079 C   0  0  0  0  0  0  0  0  0  0  0  0
   -0.6351   -3.9323    0.8370 H   0  0  0  0  0  0  0  0  0  0  0  0
   -0.8915    0.5499   -0.8548 C   0  0  0  0  0  0  0  0  0  0  0  0
   -1.2222    0.1585   -1.9750 O   0  0  0  0  0  0  0  0  0  0  0  0
   -0.4686    1.8000   -0.6278 N   0  0  0  0  0  0  0  0  0  0  0  0
   -0.1624    2.0285    0.3057 H   0  0  0  0  0  0  0  0  0  0  0  0
   -0.3478    2.8272   -1.6595 C   0  0  0  0  0  0  0  0  0  0  0  0
   -1.2874    2.9109   -2.2097 H   0  0  0  0  0  0  0  0  0  0  0  0
   -0.1094    3.7901   -1.2068 H   0  0  0  0  0  0  0  0  0  0  0  0
    0.4430    2.5526   -2.3603 H   0  0  0  0  0  0  0  0  0  0  0  0
  5  6  2  0  0  0  0
  5  7  1  0  0  0  0
  2  3  1  0  0  0  0
  2  4  1  0  0  0  0
  2  5  1  0  0  0  0
  1  2  1  0  0  0  0
 25 26  2  0  0  0  0
 25 27  1  0  0  0  0
 23 24  1  0  0  0  0
 21 22  1  0  0  0  0
 21 23  2  0  0  0  0
 19 20  1  0  0  0  0
 19 21  1  0  0  0  0
 17 18  1  0  0  0  0
 17 19  2  0  0  0  0
 15 16  1  0  0  0  0
 15 17  1  0  0  0  0
 14 15  2  0  0  0  0
 14 23  1  0  0  0  0
 11 12  1  0  0  0  0
 11 13  1  0  0  0  0
 11 14  1  0  0  0  0
  9 10  1  0  0  0  0
  9 11  1  0  0  0  0
  9 25  1  0  0  0  0
  7  8  1  0  0  0  0
  7  9  1  0  0  0  0
 29 30  1  0  0  0  0
 29 31  1  0  0  0  0
 29 32  1  0  0  0  0
 27 28  1  0  0  0  0
 27 29  1  0  0  0  0
M  END
$$$$
default_name
  -OEChem-01062215323D

 32 32  0     1  0  0  0  0  0999 V2000
   -3.8405   -3.7518    1.6252 H   0  0  0  0  0  0  0  0  0  0  0  0
   -3.7965   -2.8768    0.9782 C   0  0  0  0  0  0  0  0  0  0  0  0
   -4.5465   -2.1527    1.2902 H   0  0  0  0  0  0  0  0  0  0  0  0
   -3.9745   -3.1748   -0.0538 H   0  0  0  0  0  0  0  0  0  0  0  0
   -2.4245   -2.2537    1.0882 C   0  0  0  0  0  0  0  0  0  0  0  0
   -1.5805   -2.7478    1.8242 O   0  0  0  0  0  0  0  0  0  0  0  0
   -2.2045   -1.1637    0.3562 N   0  0  0  0  0  0  0  0  0  0  0  0
   -2.9595   -0.7907   -0.2008 H   0  0  0  0  0  0  0  0  0  0  0  0
   -0.9485   -0.4087    0.3482 C   0  0  1  0  0  0  0  0  0  0  0  0
   -0.8990    0.1946    1.2560 H   0  0  0  0  0  0  0  0  0  0  0  0
    0.2351   -1.3912    0.3550 C   0  0  0  0  0  0  0  0  0  0  0  0
    0.1179   -2.0943   -0.4709 H   0  0  0  0  0  0  0  0  0  0  0  0
    1.1577   -0.8348    0.1829 H   0  0  0  0  0  0  0  0  0  0  0  0
    0.3643   -2.1903    1.6378 C   0  0  0  0  0  0  0  0  0  0  0  0
    0.9777   -1.6247    2.7717 C   0  0  0  0  0  0  0  0  0  0  0  0
    1.3817   -0.6232    2.7274 H   0  0  0  0  0  0  0  0  0  0  0  0
    1.0569   -2.3572    3.9705 C   0  0  0  0  0  0  0  0  0  0  0  0
    1.5307   -1.9220    4.8392 H   0  0  0  0  0  0  0  0  0  0  0  0
    0.5216   -3.6547    4.0384 C   0  0  0  0  0  0  0  0  0  0  0  0
    0.5846   -4.2182    4.9588 H   0  0  0  0  0  0  0  0  0  0  0  0
   -0.0907   -4.2233    2.9067 C   0  0  0  0  0  0  0  0  0  0  0  0
   -0.4974   -5.2227    2.9572 H   0  0  0  0  0  0  0  0  0  0  0  0
   -0.1668   -3.4924    1.7079 C   0  0  0  0  0  0  0  0  0  0  0  0
   -0.6351   -3.9323    0.8370 H   0  0  0  0  0  0  0  0  0  0  0  0
   -0.8915    0.5499   -0.8548 C   0  0  0  0  0  0  0  0  0  0  0  0
   -1.4699    0.2626   -1.9037 O   0  0  0  0  0  0  0  0  0  0  0  0
   -0.1928    1.6828   -0.7081 N   0  0  0  0  0  0  0  0  0  0  0  0
    0.2989    1.8204    0.1617 H   0  0  0  0  0  0  0  0  0  0  0  0
   -0.0328    2.6913   -1.7530 C   0  0  0  0  0  0  0  0  0  0  0  0
   -1.0116    2.9769   -2.1441 H   0  0  0  0  0  0  0  0  0  0  0  0
    0.4655    3.5741   -1.3517 H   0  0  0  0  0  0  0  0  0  0  0  0
    0.5631    2.2814   -2.5708 H   0  0  0  0  0  0  0  0  0  0  0  0
  5  6  2  0  0  0  0
  5  7  1  0  0  0  0
  2  3  1  0  0  0  0
  2  4  1  0  0  0  0
  2  5  1  0  0  0  0
  1  2  1  0  0  0  0
 25 26  2  0  0  0  0
 25 27  1  0  0  0  0
 23 24  1  0  0  0  0
 21 22  1  0  0  0  0
 21 23  2  0  0  0  0
 19 20  1  0  0  0  0
 19 21  1  0  0  0  0
 17 18  1  0  0  0  0
 17 19  2  0  0  0  0
 15 16  1  0  0  0  0
 15 17  1  0  0  0  0
 14 15  2  0  0  0  0
 14 23  1  0  0  0  0
 11 12  1  0  0  0  0
 11 13  1  0  0  0  0
 11 14  1  0  0  0  0
  9 10  1  0  0  0  0
  9 11  1  0  0  0  0
  9 25  1  0  0  0  0
  7  8  1  0  0  0  0
  7  9  1  0  0  0  0
 29 30  1  0  0  0  0
 29 31  1  0  0  0  0
 29 32  1  0  0  0  0
 27 28  1  0  0  0  0
 27 29  1  0  0  0  0
M  END
$$$$
default_name
  -OEChem-01062215323D

 32 32  0     1  0  0  0  0  0999 V2000
   -3.8405   -3.7518    1.6252 H   0  0  0  0  0  0  0  0  0  0  0  0
   -3.7965   -2.8768    0.9782 C   0  0  0  0  0  0  0  0  0  0  0  0
   -4.5465   -2.1527    1.2902 H   0  0  0  0  0  0  0  0  0  0  0  0
   -3.9745   -3.1748   -0.0538 H   0  0  0  0  0  0  0  0  0  0  0  0
   -2.4245   -2.2537    1.0882 C   0  0  0  0  0  0  0  0  0  0  0  0
   -1.5805   -2.7478    1.8242 O   0  0  0  0  0  0  0  0  0  0  0  0
   -2.2045   -1.1637    0.3562 N   0  0  0  0  0  0  0  0  0  0  0  0
   -2.9595   -0.7907   -0.2008 H   0  0  0  0  0  0  0  0  0  0  0  0
   -0.9485   -0.4087    0.3482 C   0  0  1  0  0  0  0  0  0  0  0  0
   -0.8990    0.1946    1.2560 H   0  0  0  0  0  0  0  0  0  0  0  0
    0.2351   -1.3912    0.3550 C   0  0  0  0  0  0  0  0  0  0  0  0
    0.1179   -2.0943   -0.4709 H   0  0  0  0  0  0  0  0  0  0  0  0
    1.1577   -0.8348    0.1829 H   0  0  0  0  0  0  0  0  0  0  0  0
    0.3643   -2.1903    1.6378 C   0  0  0  0  0  0  0  0  0  0  0  0
    0.9777   -1.6247    2.7717 C   0  0  0  0  0  0  0  0  0  0  0  0
    1.3817   -0.6232    2.7274 H   0  0  0  0  0  0  0  0  0  0  0  0
    1.0569   -2.3572    3.9705 C   0  0  0  0  0  0  0  0  0  0  0  0
    1.5307   -1.9220    4.8392 H   0  0  0  0  0  0  0  0  0  0  0  0
    0.5216   -3.6547    4.0384 C   0  0  0  0  0  0  0  0  0  0  0  0
    0.5846   -4.2182    4.9588 H   0  0  0  0  0  0  0  0  0  0  0  0
   -0.0907   -4.2233    2.9067 C   0  0  0  0  0  0  0  0  0  0  0  0
   -0.4974   -5.2227    2.9572 H   0  0  0  0  0  0  0  0  0  0  0  0
   -0.1668   -3.4924    1.7079 C   0  0  0  0  0  0  0  0  0  0  0  0
   -0.6351   -3.9323    0.8370 H   0  0  0  0  0  0  0  0  0  0  0  0
   -0.8915    0.5499   -0.8548 C   0  0  0  0  0  0  0  0  0  0  0  0
   -1.6766    0.4126   -1.7940 O   0  0  0  0  0  0  0  0  0  0  0  0
    0.0369    1.5146   -0.8313 N   0  0  0  0  0  0  0  0  0  0  0  0
    0.6793    1.5275   -0.0538 H   0  0  0  0  0  0  0  0  0  0  0  0
    0.2289    2.4971   -1.8953 C   0  0  0  0  0  0  0  0  0  0  0  0
   -0.7213    2.9842   -2.1245 H   0  0  0  0  0  0  0  0  0  0  0  0
    0.9538    3.2507   -1.5863 H   0  0  0  0  0  0  0  0  0  0  0  0
    0.5902    1.9971   -2.7960 H   0  0  0  0  0  0  0  0  0  0  0  0
  5  6  2  0  0  0  0
  5  7  1  0  0  0  0
  2  3  1  0  0  0  0
  2  4  1  0  0  0  0
  2  5  1  0  0  0  0
  1  2  1  0  0  0  0
 25 26  2  0  0  0  0
 25 27  1  0  0  0  0
 23 24  1  0  0  0  0
 21 22  1  0  0  0  0
 21 23  2  0  0  0  0
 19 20  1  0  0  0  0
 19 21  1  0  0  0  0
 17 18  1  0  0  0  0
 17 19  2  0  0  0  0
 15 16  1  0  0  0  0
 15 17  1  0  0  0  0
 14 15  2  0  0  0  0
 14 23  1  0  0  0  0
 11 12  1  0  0  0  0
 11 13  1  0  0  0  0
 11 14  1  0  0  0  0
  9 10  1  0  0  0  0
  9 11  1  0  0  0  0
  9 25  1  0  0  0  0
  7  8  1  0  0  0  0
  7  9  1  0  0  0  0
 29 30  1  0  0  0  0
 29 31  1  0  0  0  0
 29 32  1  0  0  0  0
 27 28  1  0  0  0  0
 27 29  1  0  0  0  0
M  END
$$$$
