
  -OEChem-01062216083D

 29 29  0     1  0  0  0  0  0999 V2000
   -3.3888   -2.4095    1.1828 H   0  0  0  0  0  0  0  0  0  0  0  0
   -3.2222   -1.5743    0.4966 C   0  0  0  0  0  0  0  0  0  0  0  0
   -4.0877   -0.9085    0.5319 H   0  0  0  0  0  0  0  0  0  0  0  0
   -3.1132   -1.9689   -0.5163 H   0  0  0  0  0  0  0  0  0  0  0  0
   -1.9702   -0.8172    0.8946 C   0  0  0  0  0  0  0  0  0  0  0  0
   -1.4365   -1.0481    1.9676 O   0  0  0  0  0  0  0  0  0  0  0  0
   -1.5305    0.2387    0.1241 N   0  0  0  0  0  0  0  0  0  0  0  0
   -2.0970    0.4711   -0.6914 H   0  0  0  0  0  0  0  0  0  0  0  0
   -0.1728    0.8166    0.1356 C   0  0  1  0  0  0  0  0  0  0  0  0
    0.0741    1.1760    1.1391 H   0  0  0  0  0  0  0  0  0  0  0  0
    0.9072   -0.1827   -0.3714 C   0  0  0  0  0  0  0  0  0  0  0  0
    0.6376   -0.4905   -1.3881 H   0  0  0  0  0  0  0  0  0  0  0  0
    1.8767    0.3203   -0.4324 H   0  0  0  0  0  0  0  0  0  0  0  0
    1.1076   -1.4201    0.4616 C   0  0  0  0  0  0  0  0  0  0  0  0
    1.7451   -1.5380    1.6765 N   0  0  0  0  0  0  0  0  0  0  0  0
    2.0399   -0.7738    2.2787 H   0  0  0  0  0  0  0  0  0  0  0  0
    1.7469   -2.8729    2.0367 C   0  0  0  0  0  0  0  0  0  0  0  0
    2.1454   -3.2657    2.9676 H   0  0  0  0  0  0  0  0  0  0  0  0
    1.2051   -3.6025    1.0911 N   0  0  0  0  0  0  0  0  0  0  0  0
    0.8007   -2.7086    0.1071 C   0  0  0  0  0  0  0  0  0  0  0  0
    0.3194   -2.9957   -0.8228 H   0  0  0  0  0  0  0  0  0  0  0  0
   -0.1170    1.9908   -0.8751 C   0  0  0  0  0  0  0  0  0  0  0  0
   -1.0834    2.2361   -1.5904 O   0  0  0  0  0  0  0  0  0  0  0  0
    1.0454    2.7194   -1.0665 N   0  0  0  0  0  0  0  0  0  0  0  0
    1.8303    2.5281   -0.4507 H   0  0  0  0  0  0  0  0  0  0  0  0
    1.1602    3.8064   -2.0323 C   0  0  0  0  0  0  0  0  0  0  0  0
    0.4372    4.5975   -1.8073 H   0  0  0  0  0  0  0  0  0  0  0  0
    2.1653    4.2374   -1.9997 H   0  0  0  0  0  0  0  0  0  0  0  0
    0.9753    3.4387   -3.0471 H   0  0  0  0  0  0  0  0  0  0  0  0
  1  2  1  0  0  0  0
  2  3  1  0  0  0  0
  2  4  1  0  0  0  0
  2  5  1  0  0  0  0
  5  6  2  0  0  0  0
  5  7  1  0  0  0  0
  7  8  1  0  0  0  0
  7  9  1  0  0  0  0
  9 10  1  0  0  0  0
  9 11  1  0  0  0  0
  9 22  1  0  0  0  0
 11 12  1  0  0  0  0
 11 13  1  0  0  0  0
 11 14  1  0  0  0  0
 14 15  1  0  0  0  0
 14 20  2  0  0  0  0
 15 16  1  0  0  0  0
 15 17  1  0  0  0  0
 17 18  1  0  0  0  0
 17 19  2  0  0  0  0
 19 20  1  0  0  0  0
 20 21  1  0  0  0  0
 22 23  2  0  0  0  0
 22 24  1  0  0  0  0
 24 25  1  0  0  0  0
 24 26  1  0  0  0  0
 26 27  1  0  0  0  0
 26 28  1  0  0  0  0
 26 29  1  0  0  0  0
M  END
$$$$

  -OEChem-01062216083D

 29 29  0     1  0  0  0  0  0999 V2000
   -3.4370   -2.3802    1.1319 H   0  0  0  0  0  0  0  0  0  0  0  0
   -3.2587   -1.5244    0.4748 C   0  0  0  0  0  0  0  0  0  0  0  0
   -4.0971   -0.8293    0.5621 H   0  0  0  0  0  0  0  0  0  0  0  0
   -3.1938   -1.8811   -0.5559 H   0  0  0  0  0  0  0  0  0  0  0  0
   -1.9686   -0.8296    0.8644 C   0  0  0  0  0  0  0  0  0  0  0  0
   -1.4293   -1.1051    1.9234 O   0  0  0  0  0  0  0  0  0  0  0  0
   -1.5069    0.2275    0.1086 N   0  0  0  0  0  0  0  0  0  0  0  0
   -2.1012    0.5271   -0.6640 H   0  0  0  0  0  0  0  0  0  0  0  0
   -0.1470    0.8021    0.1243 C   0  0  1  0  0  0  0  0  0  0  0  0
    0.0956    1.1661    1.1274 H   0  0  0  0  0  0  0  0  0  0  0  0
    0.9353   -0.2067   -0.3648 C   0  0  0  0  0  0  0  0  0  0  0  0
    0.6761   -0.5202   -1.3823 H   0  0  0  0  0  0  0  0  0  0  0  0
    1.9087    0.2887   -0.4147 H   0  0  0  0  0  0  0  0  0  0  0  0
    1.1308   -1.4381    0.4774 C   0  0  0  0  0  0  0  0  0  0  0  0
    1.7620   -1.5464    1.6963 N   0  0  0  0  0  0  0  0  0  0  0  0
    2.0460   -0.7771    2.2974 H   0  0  0  0  0  0  0  0  0  0  0  0
    1.7690   -2.8796    2.0628 C   0  0  0  0  0  0  0  0  0  0  0  0
    2.1646   -3.2654    2.9977 H   0  0  0  0  0  0  0  0  0  0  0  0
    1.2367   -3.6171    1.1179 N   0  0  0  0  0  0  0  0  0  0  0  0
    0.8313   -2.7299    0.1282 C   0  0  0  0  0  0  0  0  0  0  0  0
    0.3572   -3.0238   -0.8032 H   0  0  0  0  0  0  0  0  0  0  0  0
   -0.1029    1.9826   -0.8869 C   0  0  0  0  0  0  0  0  0  0  0  0
   -1.1419    2.3876   -1.3990 O   0  0  0  0  0  0  0  0  0  0  0  0
    1.0897    2.5345   -1.3286 N   0  0  0  0  0  0  0  0  0  0  0  0
    1.9494    2.2137   -0.8936 H   0  0  0  0  0  0  0  0  0  0  0  0
    1.1634    3.6072   -2.3148 C   0  0  0  0  0  0  0  0  0  0  0  0
    0.6315    4.4950   -1.9566 H   0  0  0  0  0  0  0  0  0  0  0  0
    2.2068    3.8804   -2.4992 H   0  0  0  0  0  0  0  0  0  0  0  0
    0.7179    3.2881   -3.2630 H   0  0  0  0  0  0  0  0  0  0  0  0
  1  2  1  0  0  0  0
  2  3  1  0  0  0  0
  2  4  1  0  0  0  0
  2  5  1  0  0  0  0
  5  6  2  0  0  0  0
  5  7  1  0  0  0  0
  7  8  1  0  0  0  0
  7  9  1  0  0  0  0
  9 10  1  0  0  0  0
  9 11  1  0  0  0  0
  9 22  1  0  0  0  0
 11 12  1  0  0  0  0
 11 13  1  0  0  0  0
 11 14  1  0  0  0  0
 14 15  1  0  0  0  0
 14 20  2  0  0  0  0
 15 16  1  0  0  0  0
 15 17  1  0  0  0  0
 17 18  1  0  0  0  0
 17 19  2  0  0  0  0
 19 20  1  0  0  0  0
 20 21  1  0  0  0  0
 22 23  2  0  0  0  0
 22 24  1  0  0  0  0
 24 25  1  0  0  0  0
 24 26  1  0  0  0  0
 26 27  1  0  0  0  0
 26 28  1  0  0  0  0
 26 29  1  0  0  0  0
M  END
$$$$

  -OEChem-01062216083D

 29 29  0     1  0  0  0  0  0999 V2000
   -3.5194   -2.3119    1.1177 H   0  0  0  0  0  0  0  0  0  0  0  0
   -3.3021   -1.4703    0.4540 C   0  0  0  0  0  0  0  0  0  0  0  0
   -4.1023   -0.7320    0.5452 H   0  0  0  0  0  0  0  0  0  0  0  0
   -3.2662   -1.8351   -0.5750 H   0  0  0  0  0  0  0  0  0  0  0  0
   -1.9731   -0.8422    0.8274 C   0  0  0  0  0  0  0  0  0  0  0  0
   -1.4253   -1.1669    1.8672 O   0  0  0  0  0  0  0  0  0  0  0  0
   -1.4890    0.2155    0.0859 N   0  0  0  0  0  0  0  0  0  0  0  0
   -2.1075    0.5813   -0.6372 H   0  0  0  0  0  0  0  0  0  0  0  0
   -0.1238    0.7794    0.1043 C   0  0  1  0  0  0  0  0  0  0  0  0
    0.1140    1.1477    1.1070 H   0  0  0  0  0  0  0  0  0  0  0  0
    0.9649   -0.2335   -0.3614 C   0  0  0  0  0  0  0  0  0  0  0  0
    0.7201   -0.5568   -1.3793 H   0  0  0  0  0  0  0  0  0  0  0  0
    1.9370    0.2660   -0.3973 H   0  0  0  0  0  0  0  0  0  0  0  0
    1.1592   -1.4570    0.4920 C   0  0  0  0  0  0  0  0  0  0  0  0
    1.7818   -1.5518    1.7167 N   0  0  0  0  0  0  0  0  0  0  0  0
    2.0625   -0.7763    2.3116 H   0  0  0  0  0  0  0  0  0  0  0  0
    1.7974   -2.8825    2.0925 C   0  0  0  0  0  0  0  0  0  0  0  0
    2.1913   -3.2591    3.0322 H   0  0  0  0  0  0  0  0  0  0  0  0
    1.2777   -3.6306    1.1489 N   0  0  0  0  0  0  0  0  0  0  0  0
    0.8697   -2.7533    0.1512 C   0  0  0  0  0  0  0  0  0  0  0  0
    0.4029   -3.0571   -0.7808 H   0  0  0  0  0  0  0  0  0  0  0  0
   -0.0897    1.9657   -0.9035 C   0  0  0  0  0  0  0  0  0  0  0  0
   -1.1348    2.5400   -1.1908 O   0  0  0  0  0  0  0  0  0  0  0  0
    1.0514    2.3416   -1.5969 N   0  0  0  0  0  0  0  0  0  0  0  0
    1.9218    1.8714   -1.3689 H   0  0  0  0  0  0  0  0  0  0  0  0
    1.0758    3.4129   -2.5872 C   0  0  0  0  0  0  0  0  0  0  0  0
    0.7538    4.3585   -2.1380 H   0  0  0  0  0  0  0  0  0  0  0  0
    2.0893    3.5444   -2.9780 H   0  0  0  0  0  0  0  0  0  0  0  0
    0.4109    3.1760   -3.4244 H   0  0  0  0  0  0  0  0  0  0  0  0
  1  2  1  0  0  0  0
  2  3  1  0  0  0  0
  2  4  1  0  0  0  0
  2  5  1  0  0  0  0
  5  6  2  0  0  0  0
  5  7  1  0  0  0  0
  7  8  1  0  0  0  0
  7  9  1  0  0  0  0
  9 10  1  0  0  0  0
  9 11  1  0  0  0  0
  9 22  1  0  0  0  0
 11 12  1  0  0  0  0
 11 13  1  0  0  0  0
 11 14  1  0  0  0  0
 14 15  1  0  0  0  0
 14 20  2  0  0  0  0
 15 16  1  0  0  0  0
 15 17  1  0  0  0  0
 17 18  1  0  0  0  0
 17 19  2  0  0  0  0
 19 20  1  0  0  0  0
 20 21  1  0  0  0  0
 22 23  2  0  0  0  0
 22 24  1  0  0  0  0
 24 25  1  0  0  0  0
 24 26  1  0  0  0  0
 26 27  1  0  0  0  0
 26 28  1  0  0  0  0
 26 29  1  0  0  0  0
M  END
$$$$

  -OEChem-01062216083D

 29 29  0     1  0  0  0  0  0999 V2000
   -3.5600   -2.2848    1.0832 H   0  0  0  0  0  0  0  0  0  0  0  0
   -3.3350   -1.4303    0.4388 C   0  0  0  0  0  0  0  0  0  0  0  0
   -4.1115   -0.6730    0.5713 H   0  0  0  0  0  0  0  0  0  0  0  0
   -3.3347   -1.7653   -0.6009 H   0  0  0  0  0  0  0  0  0  0  0  0
   -1.9802   -0.8502    0.7970 C   0  0  0  0  0  0  0  0  0  0  0  0
   -1.4245   -1.2129    1.8192 O   0  0  0  0  0  0  0  0  0  0  0  0
   -1.4831    0.2081    0.0649 N   0  0  0  0  0  0  0  0  0  0  0  0
   -2.1167    0.6138   -0.6220 H   0  0  0  0  0  0  0  0  0  0  0  0
   -0.1122    0.7586    0.0820 C   0  0  1  0  0  0  0  0  0  0  0  0
    0.1219    1.1288    1.0849 H   0  0  0  0  0  0  0  0  0  0  0  0
    0.9843   -0.2533   -0.3655 C   0  0  0  0  0  0  0  0  0  0  0  0
    0.7465   -0.5917   -1.3800 H   0  0  0  0  0  0  0  0  0  0  0  0
    1.9517    0.2567   -0.4006 H   0  0  0  0  0  0  0  0  0  0  0  0
    1.1804   -1.4687    0.4987 C   0  0  0  0  0  0  0  0  0  0  0  0
    1.7967   -1.5449    1.7279 N   0  0  0  0  0  0  0  0  0  0  0  0
    2.0705   -0.7603    2.3141 H   0  0  0  0  0  0  0  0  0  0  0  0
    1.8224   -2.8711    2.1183 C   0  0  0  0  0  0  0  0  0  0  0  0
    2.2152   -3.2336    3.0639 H   0  0  0  0  0  0  0  0  0  0  0  0
    1.3146   -3.6340    1.1801 N   0  0  0  0  0  0  0  0  0  0  0  0
    0.9035   -2.7712    0.1709 C   0  0  0  0  0  0  0  0  0  0  0  0
    0.4458   -3.0900   -0.7606 H   0  0  0  0  0  0  0  0  0  0  0  0
   -0.0809    1.9504   -0.9179 C   0  0  0  0  0  0  0  0  0  0  0  0
   -1.0575    2.6874   -0.9880 O   0  0  0  0  0  0  0  0  0  0  0  0
    0.9359    2.1563   -1.8395 N   0  0  0  0  0  0  0  0  0  0  0  0
    1.7325    1.5272   -1.8166 H   0  0  0  0  0  0  0  0  0  0  0  0
    0.9196    3.2256   -2.8323 C   0  0  0  0  0  0  0  0  0  0  0  0
    0.8562    4.2031   -2.3424 H   0  0  0  0  0  0  0  0  0  0  0  0
    1.8344    3.1989   -3.4319 H   0  0  0  0  0  0  0  0  0  0  0  0
    0.0626    3.1117   -3.5044 H   0  0  0  0  0  0  0  0  0  0  0  0
  1  2  1  0  0  0  0
  2  3  1  0  0  0  0
  2  4  1  0  0  0  0
  2  5  1  0  0  0  0
  5  6  2  0  0  0  0
  5  7  1  0  0  0  0
  7  8  1  0  0  0  0
  7  9  1  0  0  0  0
  9 10  1  0  0  0  0
  9 11  1  0  0  0  0
  9 22  1  0  0  0  0
 11 12  1  0  0  0  0
 11 13  1  0  0  0  0
 11 14  1  0  0  0  0
 14 15  1  0  0  0  0
 14 20  2  0  0  0  0
 15 16  1  0  0  0  0
 15 17  1  0  0  0  0
 17 18  1  0  0  0  0
 17 19  2  0  0  0  0
 19 20  1  0  0  0  0
 20 21  1  0  0  0  0
 22 23  2  0  0  0  0
 22 24  1  0  0  0  0
 24 25  1  0  0  0  0
 24 26  1  0  0  0  0
 26 27  1  0  0  0  0
 26 28  1  0  0  0  0
 26 29  1  0  0  0  0
M  END
$$$$

  -OEChem-01062216083D

 29 29  0     1  0  0  0  0  0999 V2000
   -3.5614   -2.2861    1.0820 H   0  0  0  0  0  0  0  0  0  0  0  0
   -3.3452   -1.4260    0.4421 C   0  0  0  0  0  0  0  0  0  0  0  0
   -4.1211   -0.6711    0.5902 H   0  0  0  0  0  0  0  0  0  0  0  0
   -3.3570   -1.7530   -0.6002 H   0  0  0  0  0  0  0  0  0  0  0  0
   -1.9868   -0.8472    0.7898 C   0  0  0  0  0  0  0  0  0  0  0  0
   -1.4245   -1.2127    1.8069 O   0  0  0  0  0  0  0  0  0  0  0  0
   -1.4915    0.2085    0.0519 N   0  0  0  0  0  0  0  0  0  0  0  0
   -2.1284    0.6073   -0.6345 H   0  0  0  0  0  0  0  0  0  0  0  0
   -0.1167    0.7497    0.0581 C   0  0  1  0  0  0  0  0  0  0  0  0
    0.1202    1.1240    1.0590 H   0  0  0  0  0  0  0  0  0  0  0  0
    0.9813   -0.2646   -0.3795 C   0  0  0  0  0  0  0  0  0  0  0  0
    0.7379   -0.6221   -1.3858 H   0  0  0  0  0  0  0  0  0  0  0  0
    1.9441    0.2541   -0.4309 H   0  0  0  0  0  0  0  0  0  0  0  0
    1.1835   -1.4710    0.4958 C   0  0  0  0  0  0  0  0  0  0  0  0
    1.8032   -1.5312    1.7238 N   0  0  0  0  0  0  0  0  0  0  0  0
    2.0789   -0.7390    2.2989 H   0  0  0  0  0  0  0  0  0  0  0  0
    1.8363   -2.8530    2.1283 C   0  0  0  0  0  0  0  0  0  0  0  0
    2.2346   -3.2035    3.0761 H   0  0  0  0  0  0  0  0  0  0  0  0
    1.3288   -3.6284    1.2000 N   0  0  0  0  0  0  0  0  0  0  0  0
    0.9106   -2.7781    0.1833 C   0  0  0  0  0  0  0  0  0  0  0  0
    0.4507   -3.1085   -0.7430 H   0  0  0  0  0  0  0  0  0  0  0  0
   -0.0800    1.9401   -0.9393 C   0  0  0  0  0  0  0  0  0  0  0  0
   -0.9150    2.8272   -0.8208 O   0  0  0  0  0  0  0  0  0  0  0  0
    0.7476    1.9880   -2.0519 N   0  0  0  0  0  0  0  0  0  0  0  0
    1.4090    1.2292   -2.1840 H   0  0  0  0  0  0  0  0  0  0  0  0
    0.7168    3.0665   -3.0343 C   0  0  0  0  0  0  0  0  0  0  0  0
    0.9314    4.0279   -2.5556 H   0  0  0  0  0  0  0  0  0  0  0  0
    1.4683    2.8927   -3.8106 H   0  0  0  0  0  0  0  0  0  0  0  0
   -0.2669    3.1226   -3.5123 H   0  0  0  0  0  0  0  0  0  0  0  0
  1  2  1  0  0  0  0
  2  3  1  0  0  0  0
  2  4  1  0  0  0  0
  2  5  1  0  0  0  0
  5  6  2  0  0  0  0
  5  7  1  0  0  0  0
  7  8  1  0  0  0  0
  7  9  1  0  0  0  0
  9 10  1  0  0  0  0
  9 11  1  0  0  0  0
  9 22  1  0  0  0  0
 11 12  1  0  0  0  0
 11 13  1  0  0  0  0
 11 14  1  0  0  0  0
 14 15  1  0  0  0  0
 14 20  2  0  0  0  0
 15 16  1  0  0  0  0
 15 17  1  0  0  0  0
 17 18  1  0  0  0  0
 17 19  2  0  0  0  0
 19 20  1  0  0  0  0
 20 21  1  0  0  0  0
 22 23  2  0  0  0  0
 22 24  1  0  0  0  0
 24 25  1  0  0  0  0
 24 26  1  0  0  0  0
 26 27  1  0  0  0  0
 26 28  1  0  0  0  0
 26 29  1  0  0  0  0
M  END
$$$$

  -OEChem-01062216083D

 29 29  0     1  0  0  0  0  0999 V2000
   -3.5371   -2.3096    1.0897 H   0  0  0  0  0  0  0  0  0  0  0  0
   -3.3401   -1.4411    0.4550 C   0  0  0  0  0  0  0  0  0  0  0  0
   -4.1277   -0.7008    0.6144 H   0  0  0  0  0  0  0  0  0  0  0  0
   -3.3539   -1.7608   -0.5895 H   0  0  0  0  0  0  0  0  0  0  0  0
   -1.9895   -0.8416    0.7979 C   0  0  0  0  0  0  0  0  0  0  0  0
   -1.4221   -1.1912    1.8175 O   0  0  0  0  0  0  0  0  0  0  0  0
   -1.5054    0.2117    0.0484 N   0  0  0  0  0  0  0  0  0  0  0  0
   -2.1404    0.5784   -0.6562 H   0  0  0  0  0  0  0  0  0  0  0  0
   -0.1273    0.7456    0.0379 C   0  0  1  0  0  0  0  0  0  0  0  0
    0.1177    1.1211    1.0369 H   0  0  0  0  0  0  0  0  0  0  0  0
    0.9696   -0.2686   -0.4004 C   0  0  0  0  0  0  0  0  0  0  0  0
    0.7181   -0.6429   -1.3979 H   0  0  0  0  0  0  0  0  0  0  0  0
    1.9286    0.2558   -0.4718 H   0  0  0  0  0  0  0  0  0  0  0  0
    1.1773   -1.4666    0.4848 C   0  0  0  0  0  0  0  0  0  0  0  0
    1.8038   -1.5145    1.7100 N   0  0  0  0  0  0  0  0  0  0  0  0
    2.0821   -0.7161    2.2756 H   0  0  0  0  0  0  0  0  0  0  0  0
    1.8371   -2.8318    2.1289 C   0  0  0  0  0  0  0  0  0  0  0  0
    2.2401   -3.1726    3.0783 H   0  0  0  0  0  0  0  0  0  0  0  0
    1.3223   -3.6164    1.2123 N   0  0  0  0  0  0  0  0  0  0  0  0
    0.9007   -2.7766    0.1884 C   0  0  0  0  0  0  0  0  0  0  0  0
    0.4346   -3.1166   -0.7312 H   0  0  0  0  0  0  0  0  0  0  0  0
   -0.0849    1.9334   -0.9577 C   0  0  0  0  0  0  0  0  0  0  0  0
   -0.7009    2.9525   -0.6795 O   0  0  0  0  0  0  0  0  0  0  0  0
    0.4941    1.8543   -2.2159 N   0  0  0  0  0  0  0  0  0  0  0  0
    0.9685    0.9924   -2.4666 H   0  0  0  0  0  0  0  0  0  0  0  0
    0.4640    2.9436   -3.1860 C   0  0  0  0  0  0  0  0  0  0  0  0
    0.9618    3.8312   -2.7815 H   0  0  0  0  0  0  0  0  0  0  0  0
    0.9801    2.6466   -4.1041 H   0  0  0  0  0  0  0  0  0  0  0  0
   -0.5691    3.2038   -3.4397 H   0  0  0  0  0  0  0  0  0  0  0  0
  1  2  1  0  0  0  0
  2  3  1  0  0  0  0
  2  4  1  0  0  0  0
  2  5  1  0  0  0  0
  5  6  2  0  0  0  0
  5  7  1  0  0  0  0
  7  8  1  0  0  0  0
  7  9  1  0  0  0  0
  9 10  1  0  0  0  0
  9 11  1  0  0  0  0
  9 22  1  0  0  0  0
 11 12  1  0  0  0  0
 11 13  1  0  0  0  0
 11 14  1  0  0  0  0
 14 15  1  0  0  0  0
 14 20  2  0  0  0  0
 15 16  1  0  0  0  0
 15 17  1  0  0  0  0
 17 18  1  0  0  0  0
 17 19  2  0  0  0  0
 19 20  1  0  0  0  0
 20 21  1  0  0  0  0
 22 23  2  0  0  0  0
 22 24  1  0  0  0  0
 24 25  1  0  0  0  0
 24 26  1  0  0  0  0
 26 27  1  0  0  0  0
 26 28  1  0  0  0  0
 26 29  1  0  0  0  0
M  END
$$$$

  -OEChem-01062216083D

 29 29  0     1  0  0  0  0  0999 V2000
   -3.5313   -2.3146    1.1460 H   0  0  0  0  0  0  0  0  0  0  0  0
   -3.3384   -1.4666    0.4827 C   0  0  0  0  0  0  0  0  0  0  0  0
   -4.1342   -0.7292    0.6121 H   0  0  0  0  0  0  0  0  0  0  0  0
   -3.3421   -1.8220   -0.5502 H   0  0  0  0  0  0  0  0  0  0  0  0
   -1.9960   -0.8427    0.8135 C   0  0  0  0  0  0  0  0  0  0  0  0
   -1.4197   -1.1727    1.8344 O   0  0  0  0  0  0  0  0  0  0  0  0
   -1.5300    0.2098    0.0510 N   0  0  0  0  0  0  0  0  0  0  0  0
   -2.1609    0.5347   -0.6766 H   0  0  0  0  0  0  0  0  0  0  0  0
   -0.1520    0.7443    0.0262 C   0  0  1  0  0  0  0  0  0  0  0  0
    0.0994    1.1196    1.0239 H   0  0  0  0  0  0  0  0  0  0  0  0
    0.9487   -0.2605   -0.4215 C   0  0  0  0  0  0  0  0  0  0  0  0
    0.6966   -0.6402   -1.4161 H   0  0  0  0  0  0  0  0  0  0  0  0
    1.9019    0.2728   -0.5023 H   0  0  0  0  0  0  0  0  0  0  0  0
    1.1673   -1.4547    0.4657 C   0  0  0  0  0  0  0  0  0  0  0  0
    1.8010   -1.4943    1.6873 N   0  0  0  0  0  0  0  0  0  0  0  0
    2.0832   -0.6920    2.2455 H   0  0  0  0  0  0  0  0  0  0  0  0
    1.8403   -2.8094    2.1124 C   0  0  0  0  0  0  0  0  0  0  0  0
    2.2494   -3.1442    3.0612 H   0  0  0  0  0  0  0  0  0  0  0  0
    1.3221   -3.6001    1.2028 N   0  0  0  0  0  0  0  0  0  0  0  0
    0.8932   -2.7667    0.1770 C   0  0  0  0  0  0  0  0  0  0  0  0
    0.4229   -3.1122   -0.7385 H   0  0  0  0  0  0  0  0  0  0  0  0
   -0.1073    1.9279   -0.9696 C   0  0  0  0  0  0  0  0  0  0  0  0
   -0.4289    3.0414   -0.5822 O   0  0  0  0  0  0  0  0  0  0  0  0
    0.1841    1.7634   -2.3153 N   0  0  0  0  0  0  0  0  0  0  0  0
    0.4244    0.8312   -2.6381 H   0  0  0  0  0  0  0  0  0  0  0  0
    0.1871    2.8605   -3.2767 C   0  0  0  0  0  0  0  0  0  0  0  0
    0.9208    3.6206   -2.9882 H   0  0  0  0  0  0  0  0  0  0  0  0
    0.4472    2.4900   -4.2729 H   0  0  0  0  0  0  0  0  0  0  0  0
   -0.8021    3.3277   -3.3295 H   0  0  0  0  0  0  0  0  0  0  0  0
  1  2  1  0  0  0  0
  2  3  1  0  0  0  0
  2  4  1  0  0  0  0
  2  5  1  0  0  0  0
  5  6  2  0  0  0  0
  5  7  1  0  0  0  0
  7  8  1  0  0  0  0
  7  9  1  0  0  0  0
  9 10  1  0  0  0  0
  9 11  1  0  0  0  0
  9 22  1  0  0  0  0
 11 12  1  0  0  0  0
 11 13  1  0  0  0  0
 11 14  1  0  0  0  0
 14 15  1  0  0  0  0
 14 20  2  0  0  0  0
 15 16  1  0  0  0  0
 15 17  1  0  0  0  0
 17 18  1  0  0  0  0
 17 19  2  0  0  0  0
 19 20  1  0  0  0  0
 20 21  1  0  0  0  0
 22 23  2  0  0  0  0
 22 24  1  0  0  0  0
 24 25  1  0  0  0  0
 24 26  1  0  0  0  0
 26 27  1  0  0  0  0
 26 28  1  0  0  0  0
 26 29  1  0  0  0  0
M  END
$$$$

  -OEChem-01062216083D

 29 29  0     1  0  0  0  0  0999 V2000
   -3.4743   -2.3729    1.1639 H   0  0  0  0  0  0  0  0  0  0  0  0
   -3.3237   -1.5049    0.5155 C   0  0  0  0  0  0  0  0  0  0  0  0
   -4.1471   -0.8030    0.6681 H   0  0  0  0  0  0  0  0  0  0  0  0
   -3.3251   -1.8410   -0.5239 H   0  0  0  0  0  0  0  0  0  0  0  0
   -2.0038   -0.8339    0.8449 C   0  0  0  0  0  0  0  0  0  0  0  0
   -1.4229   -1.1296    1.8738 O   0  0  0  0  0  0  0  0  0  0  0  0
   -1.5602    0.2173    0.0667 N   0  0  0  0  0  0  0  0  0  0  0  0
   -2.1850    0.4980   -0.6836 H   0  0  0  0  0  0  0  0  0  0  0  0
   -0.1841    0.7572    0.0316 C   0  0  1  0  0  0  0  0  0  0  0  0
    0.0751    1.1322    1.0278 H   0  0  0  0  0  0  0  0  0  0  0  0
    0.9163   -0.2381   -0.4347 C   0  0  0  0  0  0  0  0  0  0  0  0
    0.6617   -0.6086   -1.4321 H   0  0  0  0  0  0  0  0  0  0  0  0
    1.8664    0.3010   -0.5183 H   0  0  0  0  0  0  0  0  0  0  0  0
    1.1450   -1.4365    0.4448 C   0  0  0  0  0  0  0  0  0  0  0  0
    1.7885   -1.4785    1.6609 N   0  0  0  0  0  0  0  0  0  0  0  0
    2.0742   -0.6768    2.2185 H   0  0  0  0  0  0  0  0  0  0  0  0
    1.8359   -2.7948    2.0812 C   0  0  0  0  0  0  0  0  0  0  0  0
    2.2557   -3.1316    3.0246 H   0  0  0  0  0  0  0  0  0  0  0  0
    1.3106   -3.5839    1.1741 N   0  0  0  0  0  0  0  0  0  0  0  0
    0.8728   -2.7484    0.1538 C   0  0  0  0  0  0  0  0  0  0  0  0
    0.3968   -3.0931   -0.7590 H   0  0  0  0  0  0  0  0  0  0  0  0
   -0.1372    1.9337   -0.9683 C   0  0  0  0  0  0  0  0  0  0  0  0
   -0.1229    3.0818   -0.5504 O   0  0  0  0  0  0  0  0  0  0  0  0
   -0.1508    1.7268   -2.3388 N   0  0  0  0  0  0  0  0  0  0  0  0
   -0.1502    0.7679   -2.6727 H   0  0  0  0  0  0  0  0  0  0  0  0
   -0.1006    2.8113   -3.3132 C   0  0  0  0  0  0  0  0  0  0  0  0
    0.8135    3.4006   -3.1846 H   0  0  0  0  0  0  0  0  0  0  0  0
   -0.1110    2.4077   -4.3302 H   0  0  0  0  0  0  0  0  0  0  0  0
   -0.9649    3.4734   -3.1953 H   0  0  0  0  0  0  0  0  0  0  0  0
  1  2  1  0  0  0  0
  2  3  1  0  0  0  0
  2  4  1  0  0  0  0
  2  5  1  0  0  0  0
  5  6  2  0  0  0  0
  5  7  1  0  0  0  0
  7  8  1  0  0  0  0
  7  9  1  0  0  0  0
  9 10  1  0  0  0  0
  9 11  1  0  0  0  0
  9 22  1  0  0  0  0
 11 12  1  0  0  0  0
 11 13  1  0  0  0  0
 11 14  1  0  0  0  0
 14 15  1  0  0  0  0
 14 20  2  0  0  0  0
 15 16  1  0  0  0  0
 15 17  1  0  0  0  0
 17 18  1  0  0  0  0
 17 19  2  0  0  0  0
 19 20  1  0  0  0  0
 20 21  1  0  0  0  0
 22 23  2  0  0  0  0
 22 24  1  0  0  0  0
 24 25  1  0  0  0  0
 24 26  1  0  0  0  0
 26 27  1  0  0  0  0
 26 28  1  0  0  0  0
 26 29  1  0  0  0  0
M  END
$$$$

  -OEChem-01062216083D

 29 29  0     1  0  0  0  0  0999 V2000
   -3.4655   -2.3904    1.2224 H   0  0  0  0  0  0  0  0  0  0  0  0
   -3.3245   -1.5347    0.5559 C   0  0  0  0  0  0  0  0  0  0  0  0
   -4.1564   -0.8400    0.6931 H   0  0  0  0  0  0  0  0  0  0  0  0
   -3.3203   -1.8923   -0.4762 H   0  0  0  0  0  0  0  0  0  0  0  0
   -2.0135   -0.8412    0.8732 C   0  0  0  0  0  0  0  0  0  0  0  0
   -1.4233   -1.1188    1.9018 O   0  0  0  0  0  0  0  0  0  0  0  0
   -1.5899    0.2126    0.0868 N   0  0  0  0  0  0  0  0  0  0  0  0
   -2.2198    0.4790   -0.6641 H   0  0  0  0  0  0  0  0  0  0  0  0
   -0.2207    0.7715    0.0524 C   0  0  1  0  0  0  0  0  0  0  0  0
    0.0392    1.1437    1.0495 H   0  0  0  0  0  0  0  0  0  0  0  0
    0.8855   -0.2036   -0.4372 C   0  0  0  0  0  0  0  0  0  0  0  0
    0.6316   -0.5548   -1.4421 H   0  0  0  0  0  0  0  0  0  0  0  0
    1.8302    0.3461   -0.5140 H   0  0  0  0  0  0  0  0  0  0  0  0
    1.1296   -1.4128    0.4231 C   0  0  0  0  0  0  0  0  0  0  0  0
    1.7802   -1.4672    1.6348 N   0  0  0  0  0  0  0  0  0  0  0  0
    2.0655   -0.6710    2.2004 H   0  0  0  0  0  0  0  0  0  0  0  0
    1.8386   -2.7888    2.0365 C   0  0  0  0  0  0  0  0  0  0  0  0
    2.2661   -3.1357    2.9729 H   0  0  0  0  0  0  0  0  0  0  0  0
    1.3125   -3.5687    1.1217 N   0  0  0  0  0  0  0  0  0  0  0  0
    0.8643   -2.7221    0.1151 C   0  0  0  0  0  0  0  0  0  0  0  0
    0.3848   -3.0568   -0.7996 H   0  0  0  0  0  0  0  0  0  0  0  0
   -0.1751    1.9428   -0.9501 C   0  0  0  0  0  0  0  0  0  0  0  0
    0.1495    3.0582   -0.5715 O   0  0  0  0  0  0  0  0  0  0  0  0
   -0.4833    1.7490   -2.2874 N   0  0  0  0  0  0  0  0  0  0  0  0
   -0.6644    0.7986   -2.5953 H   0  0  0  0  0  0  0  0  0  0  0  0
   -0.3874    2.8054   -3.2887 C   0  0  0  0  0  0  0  0  0  0  0  0
    0.6384    3.1843   -3.3492 H   0  0  0  0  0  0  0  0  0  0  0  0
   -0.6727    2.4215   -4.2730 H   0  0  0  0  0  0  0  0  0  0  0  0
   -1.0552    3.6357   -3.0355 H   0  0  0  0  0  0  0  0  0  0  0  0
  1  2  1  0  0  0  0
  2  3  1  0  0  0  0
  2  4  1  0  0  0  0
  2  5  1  0  0  0  0
  5  6  2  0  0  0  0
  5  7  1  0  0  0  0
  7  8  1  0  0  0  0
  7  9  1  0  0  0  0
  9 10  1  0  0  0  0
  9 11  1  0  0  0  0
  9 22  1  0  0  0  0
 11 12  1  0  0  0  0
 11 13  1  0  0  0  0
 11 14  1  0  0  0  0
 14 15  1  0  0  0  0
 14 20  2  0  0  0  0
 15 16  1  0  0  0  0
 15 17  1  0  0  0  0
 17 18  1  0  0  0  0
 17 19  2  0  0  0  0
 19 20  1  0  0  0  0
 20 21  1  0  0  0  0
 22 23  2  0  0  0  0
 22 24  1  0  0  0  0
 24 25  1  0  0  0  0
 24 26  1  0  0  0  0
 26 27  1  0  0  0  0
 26 28  1  0  0  0  0
 26 29  1  0  0  0  0
M  END
$$$$

  -OEChem-01062216083D

 29 29  0     1  0  0  0  0  0999 V2000
   -3.4572   -2.4032    1.2724 H   0  0  0  0  0  0  0  0  0  0  0  0
   -3.3174   -1.5616    0.5879 C   0  0  0  0  0  0  0  0  0  0  0  0
   -4.1564   -0.8711    0.7017 H   0  0  0  0  0  0  0  0  0  0  0  0
   -3.3008   -1.9431   -0.4355 H   0  0  0  0  0  0  0  0  0  0  0  0
   -2.0144   -0.8508    0.8994 C   0  0  0  0  0  0  0  0  0  0  0  0
   -1.4181   -1.1167    1.9275 O   0  0  0  0  0  0  0  0  0  0  0  0
   -1.6049    0.2042    0.1067 N   0  0  0  0  0  0  0  0  0  0  0  0
   -2.2443    0.4698   -0.6356 H   0  0  0  0  0  0  0  0  0  0  0  0
   -0.2429    0.7832    0.0754 C   0  0  1  0  0  0  0  0  0  0  0  0
    0.0180    1.1538    1.0726 H   0  0  0  0  0  0  0  0  0  0  0  0
    0.8641   -0.1793   -0.4335 C   0  0  0  0  0  0  0  0  0  0  0  0
    0.6053   -0.5144   -1.4430 H   0  0  0  0  0  0  0  0  0  0  0  0
    1.8068    0.3743   -0.5079 H   0  0  0  0  0  0  0  0  0  0  0  0
    1.1166   -1.3971    0.4119 C   0  0  0  0  0  0  0  0  0  0  0  0
    1.7729   -1.4642    1.6196 N   0  0  0  0  0  0  0  0  0  0  0  0
    2.0642   -0.6739    2.1904 H   0  0  0  0  0  0  0  0  0  0  0  0
    1.8292   -2.7895    2.0088 C   0  0  0  0  0  0  0  0  0  0  0  0
    2.2569   -3.1457    2.9414 H   0  0  0  0  0  0  0  0  0  0  0  0
    1.2998   -3.5599    1.0878 N   0  0  0  0  0  0  0  0  0  0  0  0
    0.8518   -2.7028    0.0902 C   0  0  0  0  0  0  0  0  0  0  0  0
    0.3705   -3.0267   -0.8274 H   0  0  0  0  0  0  0  0  0  0  0  0
   -0.1933    1.9503   -0.9311 C   0  0  0  0  0  0  0  0  0  0  0  0
    0.3773    2.9893   -0.6338 O   0  0  0  0  0  0  0  0  0  0  0  0
   -0.7704    1.8297   -2.1857 N   0  0  0  0  0  0  0  0  0  0  0  0
   -1.0971    0.9092   -2.4614 H   0  0  0  0  0  0  0  0  0  0  0  0
   -0.6782    2.8709   -3.2033 C   0  0  0  0  0  0  0  0  0  0  0  0
    0.3668    3.0446   -3.4810 H   0  0  0  0  0  0  0  0  0  0  0  0
   -1.2309    2.5746   -4.1001 H   0  0  0  0  0  0  0  0  0  0  0  0
   -1.1039    3.8093   -2.8317 H   0  0  0  0  0  0  0  0  0  0  0  0
  1  2  1  0  0  0  0
  2  3  1  0  0  0  0
  2  4  1  0  0  0  0
  2  5  1  0  0  0  0
  5  6  2  0  0  0  0
  5  7  1  0  0  0  0
  7  8  1  0  0  0  0
  7  9  1  0  0  0  0
  9 10  1  0  0  0  0
  9 11  1  0  0  0  0
  9 22  1  0  0  0  0
 11 12  1  0  0  0  0
 11 13  1  0  0  0  0
 11 14  1  0  0  0  0
 14 15  1  0  0  0  0
 14 20  2  0  0  0  0
 15 16  1  0  0  0  0
 15 17  1  0  0  0  0
 17 18  1  0  0  0  0
 17 19  2  0  0  0  0
 19 20  1  0  0  0  0
 20 21  1  0  0  0  0
 22 23  2  0  0  0  0
 22 24  1  0  0  0  0
 24 25  1  0  0  0  0
 24 26  1  0  0  0  0
 26 27  1  0  0  0  0
 26 28  1  0  0  0  0
 26 29  1  0  0  0  0
M  END
$$$$

  -OEChem-01062216083D

 29 29  0     1  0  0  0  0  0999 V2000
   -3.4303   -2.4308    1.3304 H   0  0  0  0  0  0  0  0  0  0  0  0
   -3.2955   -1.6098    0.6202 C   0  0  0  0  0  0  0  0  0  0  0  0
   -4.1498   -0.9333    0.6974 H   0  0  0  0  0  0  0  0  0  0  0  0
   -3.2542   -2.0246   -0.3896 H   0  0  0  0  0  0  0  0  0  0  0  0
   -2.0116   -0.8633    0.9286 C   0  0  0  0  0  0  0  0  0  0  0  0
   -1.4169   -1.0967    1.9657 O   0  0  0  0  0  0  0  0  0  0  0  0
   -1.6228    0.1918    0.1253 N   0  0  0  0  0  0  0  0  0  0  0  0
   -2.2679    0.4362   -0.6177 H   0  0  0  0  0  0  0  0  0  0  0  0
   -0.2672    0.7888    0.0883 C   0  0  1  0  0  0  0  0  0  0  0  0
   -0.0028    1.1589    1.0848 H   0  0  0  0  0  0  0  0  0  0  0  0
    0.8349   -0.1742   -0.4329 C   0  0  0  0  0  0  0  0  0  0  0  0
    0.5651   -0.5033   -1.4419 H   0  0  0  0  0  0  0  0  0  0  0  0
    1.7791    0.3767   -0.5145 H   0  0  0  0  0  0  0  0  0  0  0  0
    1.0971   -1.3940    0.4071 C   0  0  0  0  0  0  0  0  0  0  0  0
    1.7667   -1.4614    1.6074 N   0  0  0  0  0  0  0  0  0  0  0  0
    2.0701   -0.6710    2.1718 H   0  0  0  0  0  0  0  0  0  0  0  0
    1.8266   -2.7866    1.9963 C   0  0  0  0  0  0  0  0  0  0  0  0
    2.2655   -3.1434    2.9237 H   0  0  0  0  0  0  0  0  0  0  0  0
    1.2843   -3.5564    1.0820 N   0  0  0  0  0  0  0  0  0  0  0  0
    0.8263   -2.6994    0.0886 C   0  0  0  0  0  0  0  0  0  0  0  0
    0.3323   -3.0238   -0.8222 H   0  0  0  0  0  0  0  0  0  0  0  0
   -0.2049    1.9553   -0.9209 C   0  0  0  0  0  0  0  0  0  0  0  0
    0.5725    2.8793   -0.7302 O   0  0  0  0  0  0  0  0  0  0  0  0
   -1.0085    1.9758   -2.0508 N   0  0  0  0  0  0  0  0  0  0  0  0
   -1.5019    1.1220   -2.2869 H   0  0  0  0  0  0  0  0  0  0  0  0
   -0.9231    3.0270   -3.0588 C   0  0  0  0  0  0  0  0  0  0  0  0
    0.0655    3.0273   -3.5298 H   0  0  0  0  0  0  0  0  0  0  0  0
   -1.6780    2.8699   -3.8353 H   0  0  0  0  0  0  0  0  0  0  0  0
   -1.0970    4.0084   -2.6048 H   0  0  0  0  0  0  0  0  0  0  0  0
  1  2  1  0  0  0  0
  2  3  1  0  0  0  0
  2  4  1  0  0  0  0
  2  5  1  0  0  0  0
  5  6  2  0  0  0  0
  5  7  1  0  0  0  0
  7  8  1  0  0  0  0
  7  9  1  0  0  0  0
  9 10  1  0  0  0  0
  9 11  1  0  0  0  0
  9 22  1  0  0  0  0
 11 12  1  0  0  0  0
 11 13  1  0  0  0  0
 11 14  1  0  0  0  0
 14 15  1  0  0  0  0
 14 20  2  0  0  0  0
 15 16  1  0  0  0  0
 15 17  1  0  0  0  0
 17 18  1  0  0  0  0
 17 19  2  0  0  0  0
 19 20  1  0  0  0  0
 20 21  1  0  0  0  0
 22 23  2  0  0  0  0
 22 24  1  0  0  0  0
 24 25  1  0  0  0  0
 24 26  1  0  0  0  0
 26 27  1  0  0  0  0
 26 28  1  0  0  0  0
 26 29  1  0  0  0  0
M  END
$$$$

  -OEChem-01062216083D

 29 29  0     1  0  0  0  0  0999 V2000
   -3.1158   -2.5607    1.3777 H   0  0  0  0  0  0  0  0  0  0  0  0
   -3.0586   -1.7682    0.6257 C   0  0  0  0  0  0  0  0  0  0  0  0
   -4.0219   -1.2548    0.5799 H   0  0  0  0  0  0  0  0  0  0  0  0
   -2.8453   -2.2233   -0.3443 H   0  0  0  0  0  0  0  0  0  0  0  0
   -1.9616   -0.7870    0.9925 C   0  0  0  0  0  0  0  0  0  0  0  0
   -1.4475   -0.8359    2.0971 O   0  0  0  0  0  0  0  0  0  0  0  0
   -1.6417    0.2509    0.1376 N   0  0  0  0  0  0  0  0  0  0  0  0
   -2.1397    0.1911   -0.7428 H   0  0  0  0  0  0  0  0  0  0  0  0
   -0.2716    0.8138    0.0575 C   0  0  1  0  0  0  0  0  0  0  0  0
    0.0289    1.1892    1.0416 H   0  0  0  0  0  0  0  0  0  0  0  0
    0.7753   -0.2135   -0.4642 C   0  0  0  0  0  0  0  0  0  0  0  0
    0.4663   -0.5555   -1.4576 H   0  0  0  0  0  0  0  0  0  0  0  0
    1.7442    0.2845   -0.5831 H   0  0  0  0  0  0  0  0  0  0  0  0
    1.0010   -1.4171    0.4108 C   0  0  0  0  0  0  0  0  0  0  0  0
    1.6953   -1.4770    1.5971 N   0  0  0  0  0  0  0  0  0  0  0  0
    2.0532   -0.6838    2.1247 H   0  0  0  0  0  0  0  0  0  0  0  0
    1.6998   -2.7894    2.0312 C   0  0  0  0  0  0  0  0  0  0  0  0
    2.1429   -3.1356    2.9605 H   0  0  0  0  0  0  0  0  0  0  0  0
    1.0961   -3.5609    1.1577 N   0  0  0  0  0  0  0  0  0  0  0  0
    0.6638   -2.7179    0.1417 C   0  0  0  0  0  0  0  0  0  0  0  0
    0.1353   -3.0482   -0.7473 H   0  0  0  0  0  0  0  0  0  0  0  0
   -0.1853    1.9732   -0.9650 C   0  0  0  0  0  0  0  0  0  0  0  0
    0.8241    2.6630   -1.0140 O   0  0  0  0  0  0  0  0  0  0  0  0
   -1.1827    2.1988   -1.9015 N   0  0  0  0  0  0  0  0  0  0  0  0
   -2.0814    1.7643   -1.7288 H   0  0  0  0  0  0  0  0  0  0  0  0
   -1.1267    3.2976   -2.8604 C   0  0  0  0  0  0  0  0  0  0  0  0
   -0.2263    3.2214   -3.4793 H   0  0  0  0  0  0  0  0  0  0  0  0
   -1.9995    3.2698   -3.5199 H   0  0  0  0  0  0  0  0  0  0  0  0
   -1.1151    4.2611   -2.3399 H   0  0  0  0  0  0  0  0  0  0  0  0
  1  2  1  0  0  0  0
  2  3  1  0  0  0  0
  2  4  1  0  0  0  0
  2  5  1  0  0  0  0
  5  6  2  0  0  0  0
  5  7  1  0  0  0  0
  7  8  1  0  0  0  0
  7  9  1  0  0  0  0
  9 10  1  0  0  0  0
  9 11  1  0  0  0  0
  9 22  1  0  0  0  0
 11 12  1  0  0  0  0
 11 13  1  0  0  0  0
 11 14  1  0  0  0  0
 14 15  1  0  0  0  0
 14 20  2  0  0  0  0
 15 16  1  0  0  0  0
 15 17  1  0  0  0  0
 17 18  1  0  0  0  0
 17 19  2  0  0  0  0
 19 20  1  0  0  0  0
 20 21  1  0  0  0  0
 22 23  2  0  0  0  0
 22 24  1  0  0  0  0
 24 25  1  0  0  0  0
 24 26  1  0  0  0  0
 26 27  1  0  0  0  0
 26 28  1  0  0  0  0
 26 29  1  0  0  0  0
M  END
$$$$

  -OEChem-01062216083D

 29 29  0     1  0  0  0  0  0999 V2000
   -3.0803   -2.5776    1.3281 H   0  0  0  0  0  0  0  0  0  0  0  0
   -3.0372   -1.7647    0.5975 C   0  0  0  0  0  0  0  0  0  0  0  0
   -4.0055   -1.2596    0.5729 H   0  0  0  0  0  0  0  0  0  0  0  0
   -2.8281   -2.1917   -0.3861 H   0  0  0  0  0  0  0  0  0  0  0  0
   -1.9472   -0.7826    0.9816 C   0  0  0  0  0  0  0  0  0  0  0  0
   -1.4488   -0.8290    2.0935 O   0  0  0  0  0  0  0  0  0  0  0  0
   -1.6194    0.2591    0.1354 N   0  0  0  0  0  0  0  0  0  0  0  0
   -2.1059    0.2010   -0.7535 H   0  0  0  0  0  0  0  0  0  0  0  0
   -0.2455    0.8126    0.0556 C   0  0  1  0  0  0  0  0  0  0  0  0
    0.0592    1.1891    1.0378 H   0  0  0  0  0  0  0  0  0  0  0  0
    0.7937   -0.2266   -0.4627 C   0  0  0  0  0  0  0  0  0  0  0  0
    0.4816   -0.5668   -1.4558 H   0  0  0  0  0  0  0  0  0  0  0  0
    1.7688    0.2584   -0.5810 H   0  0  0  0  0  0  0  0  0  0  0  0
    1.0073   -1.4294    0.4171 C   0  0  0  0  0  0  0  0  0  0  0  0
    1.6994   -1.4931    1.6047 N   0  0  0  0  0  0  0  0  0  0  0  0
    2.0688   -0.7028    2.1286 H   0  0  0  0  0  0  0  0  0  0  0  0
    1.6857   -2.8037    2.0445 C   0  0  0  0  0  0  0  0  0  0  0  0
    2.1211   -3.1518    2.9767 H   0  0  0  0  0  0  0  0  0  0  0  0
    1.0752   -3.5715    1.1725 N   0  0  0  0  0  0  0  0  0  0  0  0
    0.6563   -2.7273    0.1520 C   0  0  0  0  0  0  0  0  0  0  0  0
    0.1254   -3.0542   -0.7367 H   0  0  0  0  0  0  0  0  0  0  0  0
   -0.1865    1.9773   -0.9659 C   0  0  0  0  0  0  0  0  0  0  0  0
    0.8761    2.5250   -1.2283 O   0  0  0  0  0  0  0  0  0  0  0  0
   -1.3198    2.3741   -1.6587 N   0  0  0  0  0  0  0  0  0  0  0  0
   -2.2082    2.0894   -1.2584 H   0  0  0  0  0  0  0  0  0  0  0  0
   -1.3179    3.4958   -2.5923 C   0  0  0  0  0  0  0  0  0  0  0  0
   -0.5854    3.3307   -3.3897 H   0  0  0  0  0  0  0  0  0  0  0  0
   -2.3047    3.6079   -3.0518 H   0  0  0  0  0  0  0  0  0  0  0  0
   -1.0675    4.4268   -2.0729 H   0  0  0  0  0  0  0  0  0  0  0  0
  1  2  1  0  0  0  0
  2  3  1  0  0  0  0
  2  4  1  0  0  0  0
  2  5  1  0  0  0  0
  5  6  2  0  0  0  0
  5  7  1  0  0  0  0
  7  8  1  0  0  0  0
  7  9  1  0  0  0  0
  9 10  1  0  0  0  0
  9 11  1  0  0  0  0
  9 22  1  0  0  0  0
 11 12  1  0  0  0  0
 11 13  1  0  0  0  0
 11 14  1  0  0  0  0
 14 15  1  0  0  0  0
 14 20  2  0  0  0  0
 15 16  1  0  0  0  0
 15 17  1  0  0  0  0
 17 18  1  0  0  0  0
 17 19  2  0  0  0  0
 19 20  1  0  0  0  0
 20 21  1  0  0  0  0
 22 23  2  0  0  0  0
 22 24  1  0  0  0  0
 24 25  1  0  0  0  0
 24 26  1  0  0  0  0
 26 27  1  0  0  0  0
 26 28  1  0  0  0  0
 26 29  1  0  0  0  0
M  END
$$$$

  -OEChem-01062216083D

 29 29  0     1  0  0  0  0  0999 V2000
   -3.1397   -2.5333    1.3370 H   0  0  0  0  0  0  0  0  0  0  0  0
   -3.0456   -1.7496    0.5797 C   0  0  0  0  0  0  0  0  0  0  0  0
   -3.9970   -1.2184    0.5009 H   0  0  0  0  0  0  0  0  0  0  0  0
   -2.8133   -2.2182   -0.3795 H   0  0  0  0  0  0  0  0  0  0  0  0
   -1.9413   -0.7854    0.9675 C   0  0  0  0  0  0  0  0  0  0  0  0
   -1.4446   -0.8422    2.0798 O   0  0  0  0  0  0  0  0  0  0  0  0
   -1.6031    0.2597    0.1297 N   0  0  0  0  0  0  0  0  0  0  0  0
   -2.0980    0.2273   -0.7570 H   0  0  0  0  0  0  0  0  0  0  0  0
   -0.2272    0.8078    0.0513 C   0  0  1  0  0  0  0  0  0  0  0  0
    0.0777    1.1852    1.0327 H   0  0  0  0  0  0  0  0  0  0  0  0
    0.8090   -0.2390   -0.4604 C   0  0  0  0  0  0  0  0  0  0  0  0
    0.5003   -0.5799   -1.4542 H   0  0  0  0  0  0  0  0  0  0  0  0
    1.7871    0.2410   -0.5739 H   0  0  0  0  0  0  0  0  0  0  0  0
    1.0170   -1.4405    0.4231 C   0  0  0  0  0  0  0  0  0  0  0  0
    1.7072   -1.5046    1.6119 N   0  0  0  0  0  0  0  0  0  0  0  0
    2.0807   -0.7152    2.1340 H   0  0  0  0  0  0  0  0  0  0  0  0
    1.6937   -2.8151    2.0515 C   0  0  0  0  0  0  0  0  0  0  0  0
    2.1315   -3.1634    2.9826 H   0  0  0  0  0  0  0  0  0  0  0  0
    1.0811   -3.5823    1.1805 N   0  0  0  0  0  0  0  0  0  0  0  0
    0.6630   -2.7381    0.1594 C   0  0  0  0  0  0  0  0  0  0  0  0
    0.1322   -3.0651   -0.7294 H   0  0  0  0  0  0  0  0  0  0  0  0
   -0.1887    1.9767   -0.9691 C   0  0  0  0  0  0  0  0  0  0  0  0
    0.8654    2.3926   -1.4321 O   0  0  0  0  0  0  0  0  0  0  0  0
   -1.3690    2.5578   -1.4040 N   0  0  0  0  0  0  0  0  0  0  0  0
   -2.1992    2.3416   -0.8594 H   0  0  0  0  0  0  0  0  0  0  0  0
   -1.4051    3.7154   -2.2916 C   0  0  0  0  0  0  0  0  0  0  0  0
   -0.8921    3.4931   -3.2334 H   0  0  0  0  0  0  0  0  0  0  0  0
   -2.4407    3.9845   -2.5204 H   0  0  0  0  0  0  0  0  0  0  0  0
   -0.9184    4.5760   -1.8205 H   0  0  0  0  0  0  0  0  0  0  0  0
  1  2  1  0  0  0  0
  2  3  1  0  0  0  0
  2  4  1  0  0  0  0
  2  5  1  0  0  0  0
  5  6  2  0  0  0  0
  5  7  1  0  0  0  0
  7  8  1  0  0  0  0
  7  9  1  0  0  0  0
  9 10  1  0  0  0  0
  9 11  1  0  0  0  0
  9 22  1  0  0  0  0
 11 12  1  0  0  0  0
 11 13  1  0  0  0  0
 11 14  1  0  0  0  0
 14 15  1  0  0  0  0
 14 20  2  0  0  0  0
 15 16  1  0  0  0  0
 15 17  1  0  0  0  0
 17 18  1  0  0  0  0
 17 19  2  0  0  0  0
 19 20  1  0  0  0  0
 20 21  1  0  0  0  0
 22 23  2  0  0  0  0
 22 24  1  0  0  0  0
 24 25  1  0  0  0  0
 24 26  1  0  0  0  0
 26 27  1  0  0  0  0
 26 28  1  0  0  0  0
 26 29  1  0  0  0  0
M  END
$$$$

  -OEChem-01062216083D

 29 29  0     1  0  0  0  0  0999 V2000
   -3.1758   -2.5085    1.3159 H   0  0  0  0  0  0  0  0  0  0  0  0
   -3.0609   -1.7282    0.5580 C   0  0  0  0  0  0  0  0  0  0  0  0
   -4.0008   -1.1781    0.4716 H   0  0  0  0  0  0  0  0  0  0  0  0
   -2.8313   -2.2024   -0.3991 H   0  0  0  0  0  0  0  0  0  0  0  0
   -1.9400   -0.7859    0.9525 C   0  0  0  0  0  0  0  0  0  0  0  0
   -1.4438   -0.8580    2.0642 O   0  0  0  0  0  0  0  0  0  0  0  0
   -1.5892    0.2640    0.1270 N   0  0  0  0  0  0  0  0  0  0  0  0
   -2.0986    0.2679   -0.7526 H   0  0  0  0  0  0  0  0  0  0  0  0
   -0.2103    0.8023    0.0509 C   0  0  1  0  0  0  0  0  0  0  0  0
    0.0947    1.1778    1.0330 H   0  0  0  0  0  0  0  0  0  0  0  0
    0.8271   -0.2461   -0.4558 C   0  0  0  0  0  0  0  0  0  0  0  0
    0.5221   -0.5874   -1.4506 H   0  0  0  0  0  0  0  0  0  0  0  0
    1.8054    0.2345   -0.5649 H   0  0  0  0  0  0  0  0  0  0  0  0
    1.0308   -1.4472    0.4287 C   0  0  0  0  0  0  0  0  0  0  0  0
    1.7158   -1.5134    1.6203 N   0  0  0  0  0  0  0  0  0  0  0  0
    2.0860   -0.7250    2.1460 H   0  0  0  0  0  0  0  0  0  0  0  0
    1.6999   -2.8245    2.0578 C   0  0  0  0  0  0  0  0  0  0  0  0
    2.1334   -3.1743    2.9902 H   0  0  0  0  0  0  0  0  0  0  0  0
    1.0914   -3.5903    1.1829 N   0  0  0  0  0  0  0  0  0  0  0  0
    0.6777   -2.7442    0.1611 C   0  0  0  0  0  0  0  0  0  0  0  0
    0.1515   -3.0697   -0.7312 H   0  0  0  0  0  0  0  0  0  0  0  0
   -0.1912    1.9777   -0.9631 C   0  0  0  0  0  0  0  0  0  0  0  0
    0.7908    2.2477   -1.6430 O   0  0  0  0  0  0  0  0  0  0  0  0
   -1.3326    2.7435   -1.1314 N   0  0  0  0  0  0  0  0  0  0  0  0
   -2.0799    2.5932   -0.4585 H   0  0  0  0  0  0  0  0  0  0  0  0
   -1.3895    3.9203   -1.9913 C   0  0  0  0  0  0  0  0  0  0  0  0
   -1.1429    3.6534   -3.0245 H   0  0  0  0  0  0  0  0  0  0  0  0
   -2.3956    4.3503   -1.9783 H   0  0  0  0  0  0  0  0  0  0  0  0
   -0.6820    4.6815   -1.6459 H   0  0  0  0  0  0  0  0  0  0  0  0
  1  2  1  0  0  0  0
  2  3  1  0  0  0  0
  2  4  1  0  0  0  0
  2  5  1  0  0  0  0
  5  6  2  0  0  0  0
  5  7  1  0  0  0  0
  7  8  1  0  0  0  0
  7  9  1  0  0  0  0
  9 10  1  0  0  0  0
  9 11  1  0  0  0  0
  9 22  1  0  0  0  0
 11 12  1  0  0  0  0
 11 13  1  0  0  0  0
 11 14  1  0  0  0  0
 14 15  1  0  0  0  0
 14 20  2  0  0  0  0
 15 16  1  0  0  0  0
 15 17  1  0  0  0  0
 17 18  1  0  0  0  0
 17 19  2  0  0  0  0
 19 20  1  0  0  0  0
 20 21  1  0  0  0  0
 22 23  2  0  0  0  0
 22 24  1  0  0  0  0
 24 25  1  0  0  0  0
 24 26  1  0  0  0  0
 26 27  1  0  0  0  0
 26 28  1  0  0  0  0
 26 29  1  0  0  0  0
M  END
$$$$

  -OEChem-01062216083D

 29 29  0     1  0  0  0  0  0999 V2000
   -3.2007   -2.4929    1.2881 H   0  0  0  0  0  0  0  0  0  0  0  0
   -3.0686   -1.7110    0.5345 C   0  0  0  0  0  0  0  0  0  0  0  0
   -4.0005   -1.1484    0.4418 H   0  0  0  0  0  0  0  0  0  0  0  0
   -2.8368   -2.1844   -0.4225 H   0  0  0  0  0  0  0  0  0  0  0  0
   -1.9388   -0.7850    0.9414 C   0  0  0  0  0  0  0  0  0  0  0  0
   -1.4437   -0.8761    2.0523 O   0  0  0  0  0  0  0  0  0  0  0  0
   -1.5776    0.2720    0.1300 N   0  0  0  0  0  0  0  0  0  0  0  0
   -2.0955    0.3047   -0.7443 H   0  0  0  0  0  0  0  0  0  0  0  0
   -0.1967    0.8015    0.0585 C   0  0  1  0  0  0  0  0  0  0  0  0
    0.1087    1.1700    1.0431 H   0  0  0  0  0  0  0  0  0  0  0  0
    0.8417   -0.2453   -0.4473 C   0  0  0  0  0  0  0  0  0  0  0  0
    0.5367   -0.5872   -1.4421 H   0  0  0  0  0  0  0  0  0  0  0  0
    1.8180    0.2396   -0.5571 H   0  0  0  0  0  0  0  0  0  0  0  0
    1.0416   -1.4494    0.4346 C   0  0  0  0  0  0  0  0  0  0  0  0
    1.7217   -1.5216    1.6290 N   0  0  0  0  0  0  0  0  0  0  0  0
    2.0933   -0.7369    2.1589 H   0  0  0  0  0  0  0  0  0  0  0  0
    1.7004   -2.8345    2.0614 C   0  0  0  0  0  0  0  0  0  0  0  0
    2.1281   -3.1890    2.9948 H   0  0  0  0  0  0  0  0  0  0  0  0
    1.0941   -3.5955    1.1810 N   0  0  0  0  0  0  0  0  0  0  0  0
    0.6862   -2.7447    0.1608 C   0  0  0  0  0  0  0  0  0  0  0  0
    0.1620   -3.0659   -0.7342 H   0  0  0  0  0  0  0  0  0  0  0  0
   -0.1873    1.9856   -0.9434 C   0  0  0  0  0  0  0  0  0  0  0  0
    0.6551    2.1126   -1.8234 O   0  0  0  0  0  0  0  0  0  0  0  0
   -1.2000    2.9254   -0.8656 N   0  0  0  0  0  0  0  0  0  0  0  0
   -1.8520    2.8333   -0.0905 H   0  0  0  0  0  0  0  0  0  0  0  0
   -1.2773    4.1048   -1.7199 C   0  0  0  0  0  0  0  0  0  0  0  0
   -1.3411    3.8125   -2.7733 H   0  0  0  0  0  0  0  0  0  0  0  0
   -2.1654    4.6936   -1.4715 H   0  0  0  0  0  0  0  0  0  0  0  0
   -0.3932    4.7361   -1.5824 H   0  0  0  0  0  0  0  0  0  0  0  0
  1  2  1  0  0  0  0
  2  3  1  0  0  0  0
  2  4  1  0  0  0  0
  2  5  1  0  0  0  0
  5  6  2  0  0  0  0
  5  7  1  0  0  0  0
  7  8  1  0  0  0  0
  7  9  1  0  0  0  0
  9 10  1  0  0  0  0
  9 11  1  0  0  0  0
  9 22  1  0  0  0  0
 11 12  1  0  0  0  0
 11 13  1  0  0  0  0
 11 14  1  0  0  0  0
 14 15  1  0  0  0  0
 14 20  2  0  0  0  0
 15 16  1  0  0  0  0
 15 17  1  0  0  0  0
 17 18  1  0  0  0  0
 17 19  2  0  0  0  0
 19 20  1  0  0  0  0
 20 21  1  0  0  0  0
 22 23  2  0  0  0  0
 22 24  1  0  0  0  0
 24 25  1  0  0  0  0
 24 26  1  0  0  0  0
 26 27  1  0  0  0  0
 26 28  1  0  0  0  0
 26 29  1  0  0  0  0
M  END
$$$$

  -OEChem-01062216083D

 29 29  0     1  0  0  0  0  0999 V2000
   -3.2147   -2.4871    1.2611 H   0  0  0  0  0  0  0  0  0  0  0  0
   -3.0796   -1.6952    0.5186 C   0  0  0  0  0  0  0  0  0  0  0  0
   -4.0069   -1.1231    0.4390 H   0  0  0  0  0  0  0  0  0  0  0  0
   -2.8568   -2.1560   -0.4467 H   0  0  0  0  0  0  0  0  0  0  0  0
   -1.9398   -0.7852    0.9335 C   0  0  0  0  0  0  0  0  0  0  0  0
   -1.4449   -0.8923    2.0432 O   0  0  0  0  0  0  0  0  0  0  0  0
   -1.5700    0.2783    0.1351 N   0  0  0  0  0  0  0  0  0  0  0  0
   -2.0876    0.3289   -0.7386 H   0  0  0  0  0  0  0  0  0  0  0  0
   -0.1886    0.8023    0.0734 C   0  0  1  0  0  0  0  0  0  0  0  0
    0.1138    1.1600    1.0628 H   0  0  0  0  0  0  0  0  0  0  0  0
    0.8540   -0.2386   -0.4346 C   0  0  0  0  0  0  0  0  0  0  0  0
    0.5520   -0.5794   -1.4311 H   0  0  0  0  0  0  0  0  0  0  0  0
    1.8267    0.2533   -0.5427 H   0  0  0  0  0  0  0  0  0  0  0  0
    1.0504   -1.4490    0.4393 C   0  0  0  0  0  0  0  0  0  0  0  0
    1.7234   -1.5309    1.6372 N   0  0  0  0  0  0  0  0  0  0  0  0
    2.0896   -0.7509    2.1775 H   0  0  0  0  0  0  0  0  0  0  0  0
    1.7005   -2.8477    2.0576 C   0  0  0  0  0  0  0  0  0  0  0  0
    2.1233   -3.2103    2.9900 H   0  0  0  0  0  0  0  0  0  0  0  0
    1.0998   -3.6015    1.1676 N   0  0  0  0  0  0  0  0  0  0  0  0
    0.6965   -2.7419    0.1531 C   0  0  0  0  0  0  0  0  0  0  0  0
    0.1771   -3.0550   -0.7474 H   0  0  0  0  0  0  0  0  0  0  0  0
   -0.1763    1.9945   -0.9157 C   0  0  0  0  0  0  0  0  0  0  0  0
    0.4687    1.9953   -1.9572 O   0  0  0  0  0  0  0  0  0  0  0  0
   -0.9819    3.0841   -0.6398 N   0  0  0  0  0  0  0  0  0  0  0  0
   -1.5245    3.0529    0.2199 H   0  0  0  0  0  0  0  0  0  0  0  0
   -1.0761    4.2601   -1.4966 C   0  0  0  0  0  0  0  0  0  0  0  0
   -1.4554    3.9842   -2.4861 H   0  0  0  0  0  0  0  0  0  0  0  0
   -1.7581    4.9942   -1.0571 H   0  0  0  0  0  0  0  0  0  0  0  0
   -0.0932    4.7285   -1.6138 H   0  0  0  0  0  0  0  0  0  0  0  0
  1  2  1  0  0  0  0
  2  3  1  0  0  0  0
  2  4  1  0  0  0  0
  2  5  1  0  0  0  0
  5  6  2  0  0  0  0
  5  7  1  0  0  0  0
  7  8  1  0  0  0  0
  7  9  1  0  0  0  0
  9 10  1  0  0  0  0
  9 11  1  0  0  0  0
  9 22  1  0  0  0  0
 11 12  1  0  0  0  0
 11 13  1  0  0  0  0
 11 14  1  0  0  0  0
 14 15  1  0  0  0  0
 14 20  2  0  0  0  0
 15 16  1  0  0  0  0
 15 17  1  0  0  0  0
 17 18  1  0  0  0  0
 17 19  2  0  0  0  0
 19 20  1  0  0  0  0
 20 21  1  0  0  0  0
 22 23  2  0  0  0  0
 22 24  1  0  0  0  0
 24 25  1  0  0  0  0
 24 26  1  0  0  0  0
 26 27  1  0  0  0  0
 26 28  1  0  0  0  0
 26 29  1  0  0  0  0
M  END
$$$$

  -OEChem-01062216083D

 29 29  0     1  0  0  0  0  0999 V2000
   -3.2204   -2.4891    1.2298 H   0  0  0  0  0  0  0  0  0  0  0  0
   -3.0877   -1.6819    0.5037 C   0  0  0  0  0  0  0  0  0  0  0  0
   -4.0134   -1.1051    0.4430 H   0  0  0  0  0  0  0  0  0  0  0  0
   -2.8726   -2.1222   -0.4727 H   0  0  0  0  0  0  0  0  0  0  0  0
   -1.9425   -0.7839    0.9297 C   0  0  0  0  0  0  0  0  0  0  0  0
   -1.4498   -0.9052    2.0393 O   0  0  0  0  0  0  0  0  0  0  0  0
   -1.5645    0.2835    0.1407 N   0  0  0  0  0  0  0  0  0  0  0  0
   -2.0762    0.3427   -0.7364 H   0  0  0  0  0  0  0  0  0  0  0  0
   -0.1829    0.8036    0.0901 C   0  0  1  0  0  0  0  0  0  0  0  0
    0.1157    1.1501    1.0847 H   0  0  0  0  0  0  0  0  0  0  0  0
    0.8639   -0.2305   -0.4207 C   0  0  0  0  0  0  0  0  0  0  0  0
    0.5651   -0.5697   -1.4187 H   0  0  0  0  0  0  0  0  0  0  0  0
    1.8340    0.2666   -0.5263 H   0  0  0  0  0  0  0  0  0  0  0  0
    1.0565   -1.4480    0.4445 C   0  0  0  0  0  0  0  0  0  0  0  0
    1.7219   -1.5402    1.6460 N   0  0  0  0  0  0  0  0  0  0  0  0
    2.0819   -0.7646    2.1964 H   0  0  0  0  0  0  0  0  0  0  0  0
    1.6978   -2.8607    2.0546 C   0  0  0  0  0  0  0  0  0  0  0  0
    2.1154   -3.2315    2.9862 H   0  0  0  0  0  0  0  0  0  0  0  0
    1.1037   -3.6071    1.1539 N   0  0  0  0  0  0  0  0  0  0  0  0
    0.7049   -2.7387    0.1449 C   0  0  0  0  0  0  0  0  0  0  0  0
    0.1910   -3.0446   -0.7613 H   0  0  0  0  0  0  0  0  0  0  0  0
   -0.1591    2.0007   -0.8895 C   0  0  0  0  0  0  0  0  0  0  0  0
    0.2339    1.9008   -2.0455 O   0  0  0  0  0  0  0  0  0  0  0  0
   -0.6982    3.2046   -0.4752 N   0  0  0  0  0  0  0  0  0  0  0  0
   -1.0952    3.2389    0.4604 H   0  0  0  0  0  0  0  0  0  0  0  0
   -0.8069    4.3792   -1.3322 C   0  0  0  0  0  0  0  0  0  0  0  0
   -1.4597    4.1711   -2.1864 H   0  0  0  0  0  0  0  0  0  0  0  0
   -1.2278    5.2189   -0.7707 H   0  0  0  0  0  0  0  0  0  0  0  0
    0.1795    4.6746   -1.7054 H   0  0  0  0  0  0  0  0  0  0  0  0
  1  2  1  0  0  0  0
  2  3  1  0  0  0  0
  2  4  1  0  0  0  0
  2  5  1  0  0  0  0
  5  6  2  0  0  0  0
  5  7  1  0  0  0  0
  7  8  1  0  0  0  0
  7  9  1  0  0  0  0
  9 10  1  0  0  0  0
  9 11  1  0  0  0  0
  9 22  1  0  0  0  0
 11 12  1  0  0  0  0
 11 13  1  0  0  0  0
 11 14  1  0  0  0  0
 14 15  1  0  0  0  0
 14 20  2  0  0  0  0
 15 16  1  0  0  0  0
 15 17  1  0  0  0  0
 17 18  1  0  0  0  0
 17 19  2  0  0  0  0
 19 20  1  0  0  0  0
 20 21  1  0  0  0  0
 22 23  2  0  0  0  0
 22 24  1  0  0  0  0
 24 25  1  0  0  0  0
 24 26  1  0  0  0  0
 26 27  1  0  0  0  0
 26 28  1  0  0  0  0
 26 29  1  0  0  0  0
M  END
$$$$

  -OEChem-01062216083D

 29 29  0     1  0  0  0  0  0999 V2000
   -3.2287   -2.4894    1.2069 H   0  0  0  0  0  0  0  0  0  0  0  0
   -3.1034   -1.6658    0.4982 C   0  0  0  0  0  0  0  0  0  0  0  0
   -4.0266   -1.0826    0.4657 H   0  0  0  0  0  0  0  0  0  0  0  0
   -2.9071   -2.0839   -0.4919 H   0  0  0  0  0  0  0  0  0  0  0  0
   -1.9469   -0.7838    0.9279 C   0  0  0  0  0  0  0  0  0  0  0  0
   -1.4524   -0.9208    2.0352 O   0  0  0  0  0  0  0  0  0  0  0  0
   -1.5577    0.2838    0.1449 N   0  0  0  0  0  0  0  0  0  0  0  0
   -2.0601    0.3527   -0.7374 H   0  0  0  0  0  0  0  0  0  0  0  0
   -0.1773    0.8047    0.1128 C   0  0  1  0  0  0  0  0  0  0  0  0
    0.1104    1.1434    1.1130 H   0  0  0  0  0  0  0  0  0  0  0  0
    0.8788   -0.2167   -0.4010 C   0  0  0  0  0  0  0  0  0  0  0  0
    0.5922   -0.5462   -1.4059 H   0  0  0  0  0  0  0  0  0  0  0  0
    1.8471    0.2865   -0.4914 H   0  0  0  0  0  0  0  0  0  0  0  0
    1.0669   -1.4440    0.4508 C   0  0  0  0  0  0  0  0  0  0  0  0
    1.7187   -1.5537    1.6585 N   0  0  0  0  0  0  0  0  0  0  0  0
    2.0671   -0.7861    2.2272 H   0  0  0  0  0  0  0  0  0  0  0  0
    1.6914   -2.8805    2.0463 C   0  0  0  0  0  0  0  0  0  0  0  0
    2.0972   -3.2649    2.9775 H   0  0  0  0  0  0  0  0  0  0  0  0
    1.1102   -3.6136    1.1267 N   0  0  0  0  0  0  0  0  0  0  0  0
    0.7214   -2.7304    0.1269 C   0  0  0  0  0  0  0  0  0  0  0  0
    0.2187   -3.0223   -0.7902 H   0  0  0  0  0  0  0  0  0  0  0  0
   -0.1387    2.0006   -0.8648 C   0  0  0  0  0  0  0  0  0  0  0  0
   -0.0289    1.8378   -2.0741 O   0  0  0  0  0  0  0  0  0  0  0  0
   -0.3824    3.2747   -0.3856 N   0  0  0  0  0  0  0  0  0  0  0  0
   -0.5922    3.3685    0.6047 H   0  0  0  0  0  0  0  0  0  0  0  0
   -0.4922    4.4494   -1.2432 C   0  0  0  0  0  0  0  0  0  0  0  0
   -1.3424    4.3478   -1.9259 H   0  0  0  0  0  0  0  0  0  0  0  0
   -0.6401    5.3483   -0.6369 H   0  0  0  0  0  0  0  0  0  0  0  0
    0.4205    4.5798   -1.8343 H   0  0  0  0  0  0  0  0  0  0  0  0
  1  2  1  0  0  0  0
  2  3  1  0  0  0  0
  2  4  1  0  0  0  0
  2  5  1  0  0  0  0
  5  6  2  0  0  0  0
  5  7  1  0  0  0  0
  7  8  1  0  0  0  0
  7  9  1  0  0  0  0
  9 10  1  0  0  0  0
  9 11  1  0  0  0  0
  9 22  1  0  0  0  0
 11 12  1  0  0  0  0
 11 13  1  0  0  0  0
 11 14  1  0  0  0  0
 14 15  1  0  0  0  0
 14 20  2  0  0  0  0
 15 16  1  0  0  0  0
 15 17  1  0  0  0  0
 17 18  1  0  0  0  0
 17 19  2  0  0  0  0
 19 20  1  0  0  0  0
 20 21  1  0  0  0  0
 22 23  2  0  0  0  0
 22 24  1  0  0  0  0
 24 25  1  0  0  0  0
 24 26  1  0  0  0  0
 26 27  1  0  0  0  0
 26 28  1  0  0  0  0
 26 29  1  0  0  0  0
M  END
$$$$

  -OEChem-01062216083D

 29 29  0     1  0  0  0  0  0999 V2000
   -3.2278   -2.4884    1.1960 H   0  0  0  0  0  0  0  0  0  0  0  0
   -3.1059   -1.6571    0.4958 C   0  0  0  0  0  0  0  0  0  0  0  0
   -4.0304   -1.0757    0.4704 H   0  0  0  0  0  0  0  0  0  0  0  0
   -2.9095   -2.0639   -0.4989 H   0  0  0  0  0  0  0  0  0  0  0  0
   -1.9516   -0.7765    0.9327 C   0  0  0  0  0  0  0  0  0  0  0  0
   -1.4572   -0.9197    2.0396 O   0  0  0  0  0  0  0  0  0  0  0  0
   -1.5526    0.2859    0.1482 N   0  0  0  0  0  0  0  0  0  0  0  0
   -2.0476    0.3602   -0.7385 H   0  0  0  0  0  0  0  0  0  0  0  0
   -0.1737    0.8082    0.1300 C   0  0  1  0  0  0  0  0  0  0  0  0
    0.1054    1.1458    1.1330 H   0  0  0  0  0  0  0  0  0  0  0  0
    0.8852   -0.2056   -0.3875 C   0  0  0  0  0  0  0  0  0  0  0  0
    0.6049   -0.5234   -1.3980 H   0  0  0  0  0  0  0  0  0  0  0  0
    1.8540    0.2986   -0.4657 H   0  0  0  0  0  0  0  0  0  0  0  0
    1.0681   -1.4411    0.4532 C   0  0  0  0  0  0  0  0  0  0  0  0
    1.7119   -1.5626    1.6639 N   0  0  0  0  0  0  0  0  0  0  0  0
    2.0515   -0.8005    2.2450 H   0  0  0  0  0  0  0  0  0  0  0  0
    1.6819   -2.8932    2.0385 C   0  0  0  0  0  0  0  0  0  0  0  0
    2.0817   -3.2869    2.9684 H   0  0  0  0  0  0  0  0  0  0  0  0
    1.1063   -3.6173    1.1085 N   0  0  0  0  0  0  0  0  0  0  0  0
    0.7222   -2.7238    0.1157 C   0  0  0  0  0  0  0  0  0  0  0  0
    0.2223   -3.0060   -0.8060 H   0  0  0  0  0  0  0  0  0  0  0  0
   -0.1211    1.9958   -0.8536 C   0  0  0  0  0  0  0  0  0  0  0  0
   -0.2686    1.8177   -2.0572 O   0  0  0  0  0  0  0  0  0  0  0  0
   -0.0575    3.2893   -0.3689 N   0  0  0  0  0  0  0  0  0  0  0  0
   -0.0690    3.4113    0.6401 H   0  0  0  0  0  0  0  0  0  0  0  0
   -0.1482    4.4696   -1.2206 C   0  0  0  0  0  0  0  0  0  0  0  0
   -1.1237    4.5108   -1.7166 H   0  0  0  0  0  0  0  0  0  0  0  0
   -0.0248    5.3775   -0.6224 H   0  0  0  0  0  0  0  0  0  0  0  0
    0.6356    4.4527   -1.9854 H   0  0  0  0  0  0  0  0  0  0  0  0
  1  2  1  0  0  0  0
  2  3  1  0  0  0  0
  2  4  1  0  0  0  0
  2  5  1  0  0  0  0
  5  6  2  0  0  0  0
  5  7  1  0  0  0  0
  7  8  1  0  0  0  0
  7  9  1  0  0  0  0
  9 10  1  0  0  0  0
  9 11  1  0  0  0  0
  9 22  1  0  0  0  0
 11 12  1  0  0  0  0
 11 13  1  0  0  0  0
 11 14  1  0  0  0  0
 14 15  1  0  0  0  0
 14 20  2  0  0  0  0
 15 16  1  0  0  0  0
 15 17  1  0  0  0  0
 17 18  1  0  0  0  0
 17 19  2  0  0  0  0
 19 20  1  0  0  0  0
 20 21  1  0  0  0  0
 22 23  2  0  0  0  0
 22 24  1  0  0  0  0
 24 25  1  0  0  0  0
 24 26  1  0  0  0  0
 26 27  1  0  0  0  0
 26 28  1  0  0  0  0
 26 29  1  0  0  0  0
M  END
$$$$

  -OEChem-01062216083D

 29 29  0     1  0  0  0  0  0999 V2000
   -3.2790   -2.4612    1.2051 H   0  0  0  0  0  0  0  0  0  0  0  0
   -3.1333   -1.6396    0.4983 C   0  0  0  0  0  0  0  0  0  0  0  0
   -4.0433   -1.0363    0.4638 H   0  0  0  0  0  0  0  0  0  0  0  0
   -2.9424   -2.0595   -0.4921 H   0  0  0  0  0  0  0  0  0  0  0  0
   -1.9598   -0.7833    0.9323 C   0  0  0  0  0  0  0  0  0  0  0  0
   -1.4578   -0.9448    2.0333 O   0  0  0  0  0  0  0  0  0  0  0  0
   -1.5496    0.2754    0.1491 N   0  0  0  0  0  0  0  0  0  0  0  0
   -2.0454    0.3689   -0.7359 H   0  0  0  0  0  0  0  0  0  0  0  0
   -0.1751    0.8074    0.1442 C   0  0  1  0  0  0  0  0  0  0  0  0
    0.0923    1.1473    1.1494 H   0  0  0  0  0  0  0  0  0  0  0  0
    0.8929   -0.1927   -0.3759 C   0  0  0  0  0  0  0  0  0  0  0  0
    0.6217   -0.4993   -1.3926 H   0  0  0  0  0  0  0  0  0  0  0  0
    1.8592    0.3181   -0.4404 H   0  0  0  0  0  0  0  0  0  0  0  0
    1.0783   -1.4342    0.4549 C   0  0  0  0  0  0  0  0  0  0  0  0
    1.7145   -1.5637    1.6689 N   0  0  0  0  0  0  0  0  0  0  0  0
    2.0446   -0.8054    2.2601 H   0  0  0  0  0  0  0  0  0  0  0  0
    1.6894   -2.8979    2.0309 C   0  0  0  0  0  0  0  0  0  0  0  0
    2.0852   -3.2981    2.9598 H   0  0  0  0  0  0  0  0  0  0  0  0
    1.1244   -3.6161    1.0899 N   0  0  0  0  0  0  0  0  0  0  0  0
    0.7415   -2.7155    0.1030 C   0  0  0  0  0  0  0  0  0  0  0  0
    0.2495   -2.9917   -0.8247 H   0  0  0  0  0  0  0  0  0  0  0  0
   -0.1177    1.9871   -0.8468 C   0  0  0  0  0  0  0  0  0  0  0  0
   -0.4806    1.8319   -2.0075 O   0  0  0  0  0  0  0  0  0  0  0  0
    0.2387    3.2503   -0.4117 N   0  0  0  0  0  0  0  0  0  0  0  0
    0.4216    3.3716    0.5806 H   0  0  0  0  0  0  0  0  0  0  0  0
    0.2048    4.4291   -1.2696 C   0  0  0  0  0  0  0  0  0  0  0  0
   -0.8183    4.6302   -1.6043 H   0  0  0  0  0  0  0  0  0  0  0  0
    0.5691    5.3050   -0.7243 H   0  0  0  0  0  0  0  0  0  0  0  0
    0.8409    4.2823   -2.1490 H   0  0  0  0  0  0  0  0  0  0  0  0
  1  2  1  0  0  0  0
  2  3  1  0  0  0  0
  2  4  1  0  0  0  0
  2  5  1  0  0  0  0
  5  6  2  0  0  0  0
  5  7  1  0  0  0  0
  7  8  1  0  0  0  0
  7  9  1  0  0  0  0
  9 10  1  0  0  0  0
  9 11  1  0  0  0  0
  9 22  1  0  0  0  0
 11 12  1  0  0  0  0
 11 13  1  0  0  0  0
 11 14  1  0  0  0  0
 14 15  1  0  0  0  0
 14 20  2  0  0  0  0
 15 16  1  0  0  0  0
 15 17  1  0  0  0  0
 17 18  1  0  0  0  0
 17 19  2  0  0  0  0
 19 20  1  0  0  0  0
 20 21  1  0  0  0  0
 22 23  2  0  0  0  0
 22 24  1  0  0  0  0
 24 25  1  0  0  0  0
 24 26  1  0  0  0  0
 26 27  1  0  0  0  0
 26 28  1  0  0  0  0
 26 29  1  0  0  0  0
M  END
$$$$

  -OEChem-01062216083D

 29 29  0     1  0  0  0  0  0999 V2000
   -3.3261   -2.4282    1.2355 H   0  0  0  0  0  0  0  0  0  0  0  0
   -3.1509   -1.6325    0.5060 C   0  0  0  0  0  0  0  0  0  0  0  0
   -4.0470   -1.0114    0.4366 H   0  0  0  0  0  0  0  0  0  0  0  0
   -2.9526   -2.0868   -0.4676 H   0  0  0  0  0  0  0  0  0  0  0  0
   -1.9662   -0.7879    0.9329 C   0  0  0  0  0  0  0  0  0  0  0  0
   -1.4580   -0.9568    2.0301 O   0  0  0  0  0  0  0  0  0  0  0  0
   -1.5510    0.2672    0.1477 N   0  0  0  0  0  0  0  0  0  0  0  0
   -2.0539    0.3780   -0.7319 H   0  0  0  0  0  0  0  0  0  0  0  0
   -0.1812    0.8110    0.1484 C   0  0  1  0  0  0  0  0  0  0  0  0
    0.0792    1.1562    1.1538 H   0  0  0  0  0  0  0  0  0  0  0  0
    0.8913   -0.1817   -0.3734 C   0  0  0  0  0  0  0  0  0  0  0  0
    0.6202   -0.4846   -1.3912 H   0  0  0  0  0  0  0  0  0  0  0  0
    1.8565    0.3316   -0.4372 H   0  0  0  0  0  0  0  0  0  0  0  0
    1.0812   -1.4251    0.4537 C   0  0  0  0  0  0  0  0  0  0  0  0
    1.7161   -1.5573    1.6683 N   0  0  0  0  0  0  0  0  0  0  0  0
    2.0359   -0.8003    2.2669 H   0  0  0  0  0  0  0  0  0  0  0  0
    1.6972   -2.8935    2.0233 C   0  0  0  0  0  0  0  0  0  0  0  0
    2.0923   -3.2962    2.9515 H   0  0  0  0  0  0  0  0  0  0  0  0
    1.1395   -3.6103    1.0769 N   0  0  0  0  0  0  0  0  0  0  0  0
    0.7527   -2.7067    0.0945 C   0  0  0  0  0  0  0  0  0  0  0  0
    0.2655   -2.9815   -0.8362 H   0  0  0  0  0  0  0  0  0  0  0  0
   -0.1192    1.9840   -0.8504 C   0  0  0  0  0  0  0  0  0  0  0  0
   -0.6676    1.8868   -1.9431 O   0  0  0  0  0  0  0  0  0  0  0  0
    0.5115    3.1664   -0.5086 N   0  0  0  0  0  0  0  0  0  0  0  0
    0.8845    3.2471    0.4331 H   0  0  0  0  0  0  0  0  0  0  0  0
    0.5407    4.3358   -1.3794 C   0  0  0  0  0  0  0  0  0  0  0  0
   -0.4753    4.6986   -1.5682 H   0  0  0  0  0  0  0  0  0  0  0  0
    1.1150    5.1417   -0.9124 H   0  0  0  0  0  0  0  0  0  0  0  0
    1.0104    4.0885   -2.3373 H   0  0  0  0  0  0  0  0  0  0  0  0
  1  2  1  0  0  0  0
  2  3  1  0  0  0  0
  2  4  1  0  0  0  0
  2  5  1  0  0  0  0
  5  6  2  0  0  0  0
  5  7  1  0  0  0  0
  7  8  1  0  0  0  0
  7  9  1  0  0  0  0
  9 10  1  0  0  0  0
  9 11  1  0  0  0  0
  9 22  1  0  0  0  0
 11 12  1  0  0  0  0
 11 13  1  0  0  0  0
 11 14  1  0  0  0  0
 14 15  1  0  0  0  0
 14 20  2  0  0  0  0
 15 16  1  0  0  0  0
 15 17  1  0  0  0  0
 17 18  1  0  0  0  0
 17 19  2  0  0  0  0
 19 20  1  0  0  0  0
 20 21  1  0  0  0  0
 22 23  2  0  0  0  0
 22 24  1  0  0  0  0
 24 25  1  0  0  0  0
 24 26  1  0  0  0  0
 26 27  1  0  0  0  0
 26 28  1  0  0  0  0
 26 29  1  0  0  0  0
M  END
$$$$

  -OEChem-01062216083D

 29 29  0     1  0  0  0  0  0999 V2000
   -3.3266   -2.4451    1.2148 H   0  0  0  0  0  0  0  0  0  0  0  0
   -3.1729   -1.6247    0.5082 C   0  0  0  0  0  0  0  0  0  0  0  0
   -4.0691   -1.0001    0.4895 H   0  0  0  0  0  0  0  0  0  0  0  0
   -3.0077   -2.0456   -0.4864 H   0  0  0  0  0  0  0  0  0  0  0  0
   -1.9724   -0.7977    0.9257 C   0  0  0  0  0  0  0  0  0  0  0  0
   -1.4538   -0.9818    2.0154 O   0  0  0  0  0  0  0  0  0  0  0  0
   -1.5524    0.2563    0.1415 N   0  0  0  0  0  0  0  0  0  0  0  0
   -2.0707    0.3969   -0.7251 H   0  0  0  0  0  0  0  0  0  0  0  0
   -0.1885    0.8160    0.1474 C   0  0  1  0  0  0  0  0  0  0  0  0
    0.0643    1.1675    1.1525 H   0  0  0  0  0  0  0  0  0  0  0  0
    0.8900   -0.1719   -0.3717 C   0  0  0  0  0  0  0  0  0  0  0  0
    0.6215   -0.4738   -1.3905 H   0  0  0  0  0  0  0  0  0  0  0  0
    1.8534    0.3449   -0.4325 H   0  0  0  0  0  0  0  0  0  0  0  0
    1.0877   -1.4150    0.4543 C   0  0  0  0  0  0  0  0  0  0  0  0
    1.7231   -1.5448    1.6691 N   0  0  0  0  0  0  0  0  0  0  0  0
    2.0364   -0.7867    2.2699 H   0  0  0  0  0  0  0  0  0  0  0  0
    1.7106   -2.8814    2.0230 C   0  0  0  0  0  0  0  0  0  0  0  0
    2.1079   -3.2833    2.9506 H   0  0  0  0  0  0  0  0  0  0  0  0
    1.1565   -3.6004    1.0762 N   0  0  0  0  0  0  0  0  0  0  0  0
    0.7639   -2.6980    0.0954 C   0  0  0  0  0  0  0  0  0  0  0  0
    0.2752   -2.9745   -0.8338 H   0  0  0  0  0  0  0  0  0  0  0  0
   -0.1244    1.9855   -0.8579 C   0  0  0  0  0  0  0  0  0  0  0  0
   -0.8335    1.9745   -1.8588 O   0  0  0  0  0  0  0  0  0  0  0  0
    0.7412    3.0448   -0.6513 N   0  0  0  0  0  0  0  0  0  0  0  0
    1.2789    3.0550    0.2106 H   0  0  0  0  0  0  0  0  0  0  0  0
    0.8346    4.1880   -1.5522 C   0  0  0  0  0  0  0  0  0  0  0  0
   -0.1248    4.7133   -1.6065 H   0  0  0  0  0  0  0  0  0  0  0  0
    1.5935    4.8907   -1.1947 H   0  0  0  0  0  0  0  0  0  0  0  0
    1.1150    3.8612   -2.5592 H   0  0  0  0  0  0  0  0  0  0  0  0
  1  2  1  0  0  0  0
  2  3  1  0  0  0  0
  2  4  1  0  0  0  0
  2  5  1  0  0  0  0
  5  6  2  0  0  0  0
  5  7  1  0  0  0  0
  7  8  1  0  0  0  0
  7  9  1  0  0  0  0
  9 10  1  0  0  0  0
  9 11  1  0  0  0  0
  9 22  1  0  0  0  0
 11 12  1  0  0  0  0
 11 13  1  0  0  0  0
 11 14  1  0  0  0  0
 14 15  1  0  0  0  0
 14 20  2  0  0  0  0
 15 16  1  0  0  0  0
 15 17  1  0  0  0  0
 17 18  1  0  0  0  0
 17 19  2  0  0  0  0
 19 20  1  0  0  0  0
 20 21  1  0  0  0  0
 22 23  2  0  0  0  0
 22 24  1  0  0  0  0
 24 25  1  0  0  0  0
 24 26  1  0  0  0  0
 26 27  1  0  0  0  0
 26 28  1  0  0  0  0
 26 29  1  0  0  0  0
M  END
$$$$

  -OEChem-01062216083D

 29 29  0     1  0  0  0  0  0999 V2000
   -3.3622   -2.4239    1.2160 H   0  0  0  0  0  0  0  0  0  0  0  0
   -3.1946   -1.6075    0.5078 C   0  0  0  0  0  0  0  0  0  0  0  0
   -4.0767   -0.9630    0.4945 H   0  0  0  0  0  0  0  0  0  0  0  0
   -3.0456   -2.0319   -0.4878 H   0  0  0  0  0  0  0  0  0  0  0  0
   -1.9730   -0.8069    0.9158 C   0  0  0  0  0  0  0  0  0  0  0  0
   -1.4456   -1.0088    1.9980 O   0  0  0  0  0  0  0  0  0  0  0  0
   -1.5464    0.2469    0.1349 N   0  0  0  0  0  0  0  0  0  0  0  0
   -2.0868    0.4254   -0.7112 H   0  0  0  0  0  0  0  0  0  0  0  0
   -0.1868    0.8185    0.1414 C   0  0  1  0  0  0  0  0  0  0  0  0
    0.0635    1.1746    1.1457 H   0  0  0  0  0  0  0  0  0  0  0  0
    0.8927   -0.1719   -0.3752 C   0  0  0  0  0  0  0  0  0  0  0  0
    0.6216   -0.4772   -1.3922 H   0  0  0  0  0  0  0  0  0  0  0  0
    1.8580    0.3405   -0.4397 H   0  0  0  0  0  0  0  0  0  0  0  0
    1.0945   -1.4120    0.4536 C   0  0  0  0  0  0  0  0  0  0  0  0
    1.7330   -1.5355    1.6673 N   0  0  0  0  0  0  0  0  0  0  0  0
    2.0382   -0.7741    2.2680 H   0  0  0  0  0  0  0  0  0  0  0  0
    1.7275   -2.8713    2.0249 C   0  0  0  0  0  0  0  0  0  0  0  0
    2.1266   -3.2683    2.9539 H   0  0  0  0  0  0  0  0  0  0  0  0
    1.1777   -3.5957    1.0798 N   0  0  0  0  0  0  0  0  0  0  0  0
    0.7778   -2.6977    0.0978 C   0  0  0  0  0  0  0  0  0  0  0  0
    0.2907   -2.9795   -0.8308 H   0  0  0  0  0  0  0  0  0  0  0  0
   -0.1239    1.9881   -0.8680 C   0  0  0  0  0  0  0  0  0  0  0  0
   -0.9758    2.0948   -1.7445 O   0  0  0  0  0  0  0  0  0  0  0  0
    0.9264    2.8894   -0.8399 N   0  0  0  0  0  0  0  0  0  0  0  0
    1.6024    2.8044   -0.0864 H   0  0  0  0  0  0  0  0  0  0  0  0
    1.0474    4.0070   -1.7693 C   0  0  0  0  0  0  0  0  0  0  0  0
    0.1802    4.6708   -1.6860 H   0  0  0  0  0  0  0  0  0  0  0  0
    1.9489    4.5869   -1.5488 H   0  0  0  0  0  0  0  0  0  0  0  0
    1.1153    3.6431   -2.8000 H   0  0  0  0  0  0  0  0  0  0  0  0
  1  2  1  0  0  0  0
  2  3  1  0  0  0  0
  2  4  1  0  0  0  0
  2  5  1  0  0  0  0
  5  6  2  0  0  0  0
  5  7  1  0  0  0  0
  7  8  1  0  0  0  0
  7  9  1  0  0  0  0
  9 10  1  0  0  0  0
  9 11  1  0  0  0  0
  9 22  1  0  0  0  0
 11 12  1  0  0  0  0
 11 13  1  0  0  0  0
 11 14  1  0  0  0  0
 14 15  1  0  0  0  0
 14 20  2  0  0  0  0
 15 16  1  0  0  0  0
 15 17  1  0  0  0  0
 17 18  1  0  0  0  0
 17 19  2  0  0  0  0
 19 20  1  0  0  0  0
 20 21  1  0  0  0  0
 22 23  2  0  0  0  0
 22 24  1  0  0  0  0
 24 25  1  0  0  0  0
 24 26  1  0  0  0  0
 26 27  1  0  0  0  0
 26 28  1  0  0  0  0
 26 29  1  0  0  0  0
M  END
$$$$

  -OEChem-01062216083D

 29 29  0     1  0  0  0  0  0999 V2000
   -3.3233   -2.4675    1.2209 H   0  0  0  0  0  0  0  0  0  0  0  0
   -3.2014   -1.6022    0.5635 C   0  0  0  0  0  0  0  0  0  0  0  0
   -4.0205   -0.9020    0.7439 H   0  0  0  0  0  0  0  0  0  0  0  0
   -3.2412   -1.9420   -0.4740 H   0  0  0  0  0  0  0  0  0  0  0  0
   -1.8717   -0.9257    0.8361 C   0  0  0  0  0  0  0  0  0  0  0  0
   -1.1986   -1.2722    1.7945 O   0  0  0  0  0  0  0  0  0  0  0  0
   -1.4784    0.1526    0.0698 N   0  0  0  0  0  0  0  0  0  0  0  0
   -2.1335    0.4988   -0.6299 H   0  0  0  0  0  0  0  0  0  0  0  0
   -0.1357    0.7594    0.0798 C   0  0  1  0  0  0  0  0  0  0  0  0
    0.2192    0.8739    1.1089 H   0  0  0  0  0  0  0  0  0  0  0  0
    0.8639   -0.0888   -0.7487 C   0  0  0  0  0  0  0  0  0  0  0  0
    0.4820   -0.1754   -1.7719 H   0  0  0  0  0  0  0  0  0  0  0  0
    1.8302    0.4210   -0.8052 H   0  0  0  0  0  0  0  0  0  0  0  0
    1.1130   -1.4701   -0.2047 C   0  0  0  0  0  0  0  0  0  0  0  0
    1.8641   -1.8337    0.8904 N   0  0  0  0  0  0  0  0  0  0  0  0
    2.2443   -1.2066    1.5947 H   0  0  0  0  0  0  0  0  0  0  0  0
    1.8506   -3.2129    0.9855 C   0  0  0  0  0  0  0  0  0  0  0  0
    2.3270   -3.7864    1.7752 H   0  0  0  0  0  0  0  0  0  0  0  0
    1.1844   -3.7338   -0.0171 N   0  0  0  0  0  0  0  0  0  0  0  0
    0.7181   -2.6581   -0.7632 C   0  0  0  0  0  0  0  0  0  0  0  0
    0.1286   -2.7489   -1.6705 H   0  0  0  0  0  0  0  0  0  0  0  0
   -0.1803    2.1501   -0.5991 C   0  0  0  0  0  0  0  0  0  0  0  0
   -1.2151    2.5508   -1.1219 O   0  0  0  0  0  0  0  0  0  0  0  0
    0.9620    2.9250   -0.7121 N   0  0  0  0  0  0  0  0  0  0  0  0
    1.8046    2.5938   -0.2517 H   0  0  0  0  0  0  0  0  0  0  0  0
    0.9839    4.2322   -1.3585 C   0  0  0  0  0  0  0  0  0  0  0  0
    0.3017    4.9221   -0.8509 H   0  0  0  0  0  0  0  0  0  0  0  0
    1.9926    4.6548   -1.3229 H   0  0  0  0  0  0  0  0  0  0  0  0
    0.6826    4.1466   -2.4079 H   0  0  0  0  0  0  0  0  0  0  0  0
  1  2  1  0  0  0  0
  2  3  1  0  0  0  0
  2  4  1  0  0  0  0
  2  5  1  0  0  0  0
  5  6  2  0  0  0  0
  5  7  1  0  0  0  0
  7  8  1  0  0  0  0
  7  9  1  0  0  0  0
  9 10  1  0  0  0  0
  9 11  1  0  0  0  0
  9 22  1  0  0  0  0
 11 12  1  0  0  0  0
 11 13  1  0  0  0  0
 11 14  1  0  0  0  0
 14 15  1  0  0  0  0
 14 20  2  0  0  0  0
 15 16  1  0  0  0  0
 15 17  1  0  0  0  0
 17 18  1  0  0  0  0
 17 19  2  0  0  0  0
 19 20  1  0  0  0  0
 20 21  1  0  0  0  0
 22 23  2  0  0  0  0
 22 24  1  0  0  0  0
 24 25  1  0  0  0  0
 24 26  1  0  0  0  0
 26 27  1  0  0  0  0
 26 28  1  0  0  0  0
 26 29  1  0  0  0  0
M  END
$$$$

  -OEChem-01062216083D

 29 29  0     1  0  0  0  0  0999 V2000
   -3.3758   -2.4128    1.2235 H   0  0  0  0  0  0  0  0  0  0  0  0
   -3.2245   -1.5574    0.5590 C   0  0  0  0  0  0  0  0  0  0  0  0
   -4.0121   -0.8226    0.7422 H   0  0  0  0  0  0  0  0  0  0  0  0
   -3.2878   -1.9015   -0.4761 H   0  0  0  0  0  0  0  0  0  0  0  0
   -1.8662   -0.9336    0.8135 C   0  0  0  0  0  0  0  0  0  0  0  0
   -1.1878   -1.3177    1.7532 O   0  0  0  0  0  0  0  0  0  0  0  0
   -1.4588    0.1469    0.0581 N   0  0  0  0  0  0  0  0  0  0  0  0
   -2.1387    0.5554   -0.5817 H   0  0  0  0  0  0  0  0  0  0  0  0
   -0.1149    0.7519    0.0751 C   0  0  1  0  0  0  0  0  0  0  0  0
    0.2356    0.8686    1.1056 H   0  0  0  0  0  0  0  0  0  0  0  0
    0.8870   -0.1067   -0.7441 C   0  0  0  0  0  0  0  0  0  0  0  0
    0.5128   -0.1933   -1.7703 H   0  0  0  0  0  0  0  0  0  0  0  0
    1.8582    0.3936   -0.7914 H   0  0  0  0  0  0  0  0  0  0  0  0
    1.1321   -1.4875   -0.1980 C   0  0  0  0  0  0  0  0  0  0  0  0
    1.8787   -1.8515    0.9002 N   0  0  0  0  0  0  0  0  0  0  0  0
    2.2538   -1.2249    1.6079 H   0  0  0  0  0  0  0  0  0  0  0  0
    1.8657   -3.2310    0.9934 C   0  0  0  0  0  0  0  0  0  0  0  0
    2.3390   -3.8053    1.7844 H   0  0  0  0  0  0  0  0  0  0  0  0
    1.2050   -3.7514   -0.0132 N   0  0  0  0  0  0  0  0  0  0  0  0
    0.7396   -2.6750   -0.7589 C   0  0  0  0  0  0  0  0  0  0  0  0
    0.1534   -2.7650   -1.6684 H   0  0  0  0  0  0  0  0  0  0  0  0
   -0.1721    2.1476   -0.6018 C   0  0  0  0  0  0  0  0  0  0  0  0
   -1.2559    2.6452   -0.8897 O   0  0  0  0  0  0  0  0  0  0  0  0
    0.9747    2.8160   -1.0003 N   0  0  0  0  0  0  0  0  0  0  0  0
    1.8708    2.4110   -0.7470 H   0  0  0  0  0  0  0  0  0  0  0  0
    0.9569    4.1017   -1.6892 C   0  0  0  0  0  0  0  0  0  0  0  0
    0.4601    4.8595   -1.0742 H   0  0  0  0  0  0  0  0  0  0  0  0
    1.9786    4.4369   -1.8919 H   0  0  0  0  0  0  0  0  0  0  0  0
    0.4257    4.0178   -2.6431 H   0  0  0  0  0  0  0  0  0  0  0  0
  1  2  1  0  0  0  0
  2  3  1  0  0  0  0
  2  4  1  0  0  0  0
  2  5  1  0  0  0  0
  5  6  2  0  0  0  0
  5  7  1  0  0  0  0
  7  8  1  0  0  0  0
  7  9  1  0  0  0  0
  9 10  1  0  0  0  0
  9 11  1  0  0  0  0
  9 22  1  0  0  0  0
 11 12  1  0  0  0  0
 11 13  1  0  0  0  0
 11 14  1  0  0  0  0
 14 15  1  0  0  0  0
 14 20  2  0  0  0  0
 15 16  1  0  0  0  0
 15 17  1  0  0  0  0
 17 18  1  0  0  0  0
 17 19  2  0  0  0  0
 19 20  1  0  0  0  0
 20 21  1  0  0  0  0
 22 23  2  0  0  0  0
 22 24  1  0  0  0  0
 24 25  1  0  0  0  0
 24 26  1  0  0  0  0
 26 27  1  0  0  0  0
 26 28  1  0  0  0  0
 26 29  1  0  0  0  0
M  END
$$$$

  -OEChem-01062216083D

 29 29  0     1  0  0  0  0  0999 V2000
   -3.3988   -2.3891    1.2018 H   0  0  0  0  0  0  0  0  0  0  0  0
   -3.2473   -1.5171    0.5594 C   0  0  0  0  0  0  0  0  0  0  0  0
   -4.0087   -0.7690    0.7924 H   0  0  0  0  0  0  0  0  0  0  0  0
   -3.3555   -1.8266   -0.4828 H   0  0  0  0  0  0  0  0  0  0  0  0
   -1.8648   -0.9361    0.7865 C   0  0  0  0  0  0  0  0  0  0  0  0
   -1.1813   -1.3466    1.7108 O   0  0  0  0  0  0  0  0  0  0  0  0
   -1.4470    0.1435    0.0346 N   0  0  0  0  0  0  0  0  0  0  0  0
   -2.1435    0.5966   -0.5549 H   0  0  0  0  0  0  0  0  0  0  0  0
   -0.0981    0.7397    0.0525 C   0  0  1  0  0  0  0  0  0  0  0  0
    0.2481    0.8617    1.0838 H   0  0  0  0  0  0  0  0  0  0  0  0
    0.9106   -0.1295   -0.7489 C   0  0  0  0  0  0  0  0  0  0  0  0
    0.5482   -0.2243   -1.7785 H   0  0  0  0  0  0  0  0  0  0  0  0
    1.8836    0.3679   -0.7846 H   0  0  0  0  0  0  0  0  0  0  0  0
    1.1518   -1.5059   -0.1909 C   0  0  0  0  0  0  0  0  0  0  0  0
    1.8895   -1.8624    0.9159 N   0  0  0  0  0  0  0  0  0  0  0  0
    2.2528   -1.2312    1.6258 H   0  0  0  0  0  0  0  0  0  0  0  0
    1.8768   -3.2412    1.0177 C   0  0  0  0  0  0  0  0  0  0  0  0
    2.3410   -3.8103    1.8180 H   0  0  0  0  0  0  0  0  0  0  0  0
    1.2285   -3.7688    0.0068 N   0  0  0  0  0  0  0  0  0  0  0  0
    0.7684   -2.6977   -0.7495 C   0  0  0  0  0  0  0  0  0  0  0  0
    0.1933   -2.7946   -1.6655 H   0  0  0  0  0  0  0  0  0  0  0  0
   -0.1637    2.1376   -0.6245 C   0  0  0  0  0  0  0  0  0  0  0  0
   -1.2316    2.7393   -0.6622 O   0  0  0  0  0  0  0  0  0  0  0  0
    0.9084    2.6954   -1.3046 N   0  0  0  0  0  0  0  0  0  0  0  0
    1.7953    2.2022   -1.2783 H   0  0  0  0  0  0  0  0  0  0  0  0
    0.8440    3.9795   -1.9945 C   0  0  0  0  0  0  0  0  0  0  0  0
    0.5983    4.7816   -1.2905 H   0  0  0  0  0  0  0  0  0  0  0  0
    1.8088    4.2092   -2.4568 H   0  0  0  0  0  0  0  0  0  0  0  0
    0.0821    3.9548   -2.7809 H   0  0  0  0  0  0  0  0  0  0  0  0
  1  2  1  0  0  0  0
  2  3  1  0  0  0  0
  2  4  1  0  0  0  0
  2  5  1  0  0  0  0
  5  6  2  0  0  0  0
  5  7  1  0  0  0  0
  7  8  1  0  0  0  0
  7  9  1  0  0  0  0
  9 10  1  0  0  0  0
  9 11  1  0  0  0  0
  9 22  1  0  0  0  0
 11 12  1  0  0  0  0
 11 13  1  0  0  0  0
 11 14  1  0  0  0  0
 14 15  1  0  0  0  0
 14 20  2  0  0  0  0
 15 16  1  0  0  0  0
 15 17  1  0  0  0  0
 17 18  1  0  0  0  0
 17 19  2  0  0  0  0
 19 20  1  0  0  0  0
 20 21  1  0  0  0  0
 22 23  2  0  0  0  0
 22 24  1  0  0  0  0
 24 25  1  0  0  0  0
 24 26  1  0  0  0  0
 26 27  1  0  0  0  0
 26 28  1  0  0  0  0
 26 29  1  0  0  0  0
M  END
$$$$

  -OEChem-01062216083D

 29 29  0     1  0  0  0  0  0999 V2000
   -3.4095   -2.3793    1.1786 H   0  0  0  0  0  0  0  0  0  0  0  0
   -3.2603   -1.4940    0.5542 C   0  0  0  0  0  0  0  0  0  0  0  0
   -4.0089   -0.7437    0.8196 H   0  0  0  0  0  0  0  0  0  0  0  0
   -3.3915   -1.7775   -0.4927 H   0  0  0  0  0  0  0  0  0  0  0  0
   -1.8674   -0.9338    0.7697 C   0  0  0  0  0  0  0  0  0  0  0  0
   -1.1798   -1.3618    1.6824 O   0  0  0  0  0  0  0  0  0  0  0  0
   -1.4454    0.1460    0.0199 N   0  0  0  0  0  0  0  0  0  0  0  0
   -2.1486    0.6143   -0.5479 H   0  0  0  0  0  0  0  0  0  0  0  0
   -0.0912    0.7310    0.0307 C   0  0  1  0  0  0  0  0  0  0  0  0
    0.2538    0.8567    1.0622 H   0  0  0  0  0  0  0  0  0  0  0  0
    0.9228   -0.1439   -0.7573 C   0  0  0  0  0  0  0  0  0  0  0  0
    0.5671   -0.2510   -1.7880 H   0  0  0  0  0  0  0  0  0  0  0  0
    1.8936    0.3597   -0.7886 H   0  0  0  0  0  0  0  0  0  0  0  0
    1.1650   -1.5153   -0.1881 C   0  0  0  0  0  0  0  0  0  0  0  0
    1.8992   -1.8596    0.9248 N   0  0  0  0  0  0  0  0  0  0  0  0
    2.2636   -1.2206    1.6270 H   0  0  0  0  0  0  0  0  0  0  0  0
    1.8892   -3.2375    1.0397 C   0  0  0  0  0  0  0  0  0  0  0  0
    2.3541   -3.7981    1.8456 H   0  0  0  0  0  0  0  0  0  0  0  0
    1.2439   -3.7761    0.0325 N   0  0  0  0  0  0  0  0  0  0  0  0
    0.7826   -2.7131   -0.7342 C   0  0  0  0  0  0  0  0  0  0  0  0
    0.2073   -2.8196   -1.6489 H   0  0  0  0  0  0  0  0  0  0  0  0
   -0.1597    2.1307   -0.6406 C   0  0  0  0  0  0  0  0  0  0  0  0
   -1.1360    2.8412   -0.4332 O   0  0  0  0  0  0  0  0  0  0  0  0
    0.7657    2.5746   -1.5738 N   0  0  0  0  0  0  0  0  0  0  0  0
    1.5600    1.9760   -1.7768 H   0  0  0  0  0  0  0  0  0  0  0  0
    0.6639    3.8570   -2.2625 C   0  0  0  0  0  0  0  0  0  0  0  0
    0.6923    4.6820   -1.5429 H   0  0  0  0  0  0  0  0  0  0  0  0
    1.4977    3.9782   -2.9606 H   0  0  0  0  0  0  0  0  0  0  0  0
   -0.2713    3.9160   -2.8294 H   0  0  0  0  0  0  0  0  0  0  0  0
  1  2  1  0  0  0  0
  2  3  1  0  0  0  0
  2  4  1  0  0  0  0
  2  5  1  0  0  0  0
  5  6  2  0  0  0  0
  5  7  1  0  0  0  0
  7  8  1  0  0  0  0
  7  9  1  0  0  0  0
  9 10  1  0  0  0  0
  9 11  1  0  0  0  0
  9 22  1  0  0  0  0
 11 12  1  0  0  0  0
 11 13  1  0  0  0  0
 11 14  1  0  0  0  0
 14 15  1  0  0  0  0
 14 20  2  0  0  0  0
 15 16  1  0  0  0  0
 15 17  1  0  0  0  0
 17 18  1  0  0  0  0
 17 19  2  0  0  0  0
 19 20  1  0  0  0  0
 20 21  1  0  0  0  0
 22 23  2  0  0  0  0
 22 24  1  0  0  0  0
 24 25  1  0  0  0  0
 24 26  1  0  0  0  0
 26 27  1  0  0  0  0
 26 28  1  0  0  0  0
 26 29  1  0  0  0  0
M  END
$$$$

  -OEChem-01062216083D

 29 29  0     1  0  0  0  0  0999 V2000
   -3.4157   -2.3642    1.2016 H   0  0  0  0  0  0  0  0  0  0  0  0
   -3.2646   -1.4905    0.5612 C   0  0  0  0  0  0  0  0  0  0  0  0
   -4.0127   -0.7346    0.8118 H   0  0  0  0  0  0  0  0  0  0  0  0
   -3.3945   -1.7929   -0.4804 H   0  0  0  0  0  0  0  0  0  0  0  0
   -1.8712   -0.9282    0.7681 C   0  0  0  0  0  0  0  0  0  0  0  0
   -1.1783   -1.3573    1.6759 O   0  0  0  0  0  0  0  0  0  0  0  0
   -1.4540    0.1509    0.0142 N   0  0  0  0  0  0  0  0  0  0  0  0
   -2.1576    0.6036   -0.5641 H   0  0  0  0  0  0  0  0  0  0  0  0
   -0.0965    0.7286    0.0129 C   0  0  1  0  0  0  0  0  0  0  0  0
    0.2527    0.8560    1.0429 H   0  0  0  0  0  0  0  0  0  0  0  0
    0.9182   -0.1490   -0.7695 C   0  0  0  0  0  0  0  0  0  0  0  0
    0.5586   -0.2708   -1.7968 H   0  0  0  0  0  0  0  0  0  0  0  0
    1.8842    0.3647   -0.8099 H   0  0  0  0  0  0  0  0  0  0  0  0
    1.1652   -1.5158   -0.1923 C   0  0  0  0  0  0  0  0  0  0  0  0
    1.9023   -1.8485    0.9221 N   0  0  0  0  0  0  0  0  0  0  0  0
    2.2624   -1.2023    1.6203 H   0  0  0  0  0  0  0  0  0  0  0  0
    1.9000   -3.2256    1.0462 C   0  0  0  0  0  0  0  0  0  0  0  0
    2.3696   -3.7775    1.8551 H   0  0  0  0  0  0  0  0  0  0  0  0
    1.2558   -3.7745    0.0437 N   0  0  0  0  0  0  0  0  0  0  0  0
    0.7883   -2.7191   -0.7298 C   0  0  0  0  0  0  0  0  0  0  0  0
    0.2133   -2.8346   -1.6436 H   0  0  0  0  0  0  0  0  0  0  0  0
   -0.1595    2.1282   -0.6541 C   0  0  0  0  0  0  0  0  0  0  0  0
   -0.9733    2.9426   -0.2390 O   0  0  0  0  0  0  0  0  0  0  0  0
    0.5582    2.4622   -1.7934 N   0  0  0  0  0  0  0  0  0  0  0  0
    1.2001    1.7712   -2.1692 H   0  0  0  0  0  0  0  0  0  0  0  0
    0.4320    3.7443   -2.4782 C   0  0  0  0  0  0  0  0  0  0  0  0
    0.7159    4.5649   -1.8112 H   0  0  0  0  0  0  0  0  0  0  0  0
    1.0858    3.7699   -3.3553 H   0  0  0  0  0  0  0  0  0  0  0  0
   -0.5992    3.9018   -2.8117 H   0  0  0  0  0  0  0  0  0  0  0  0
  1  2  1  0  0  0  0
  2  3  1  0  0  0  0
  2  4  1  0  0  0  0
  2  5  1  0  0  0  0
  5  6  2  0  0  0  0
  5  7  1  0  0  0  0
  7  8  1  0  0  0  0
  7  9  1  0  0  0  0
  9 10  1  0  0  0  0
  9 11  1  0  0  0  0
  9 22  1  0  0  0  0
 11 12  1  0  0  0  0
 11 13  1  0  0  0  0
 11 14  1  0  0  0  0
 14 15  1  0  0  0  0
 14 20  2  0  0  0  0
 15 16  1  0  0  0  0
 15 17  1  0  0  0  0
 17 18  1  0  0  0  0
 17 19  2  0  0  0  0
 19 20  1  0  0  0  0
 20 21  1  0  0  0  0
 22 23  2  0  0  0  0
 22 24  1  0  0  0  0
 24 25  1  0  0  0  0
 24 26  1  0  0  0  0
 26 27  1  0  0  0  0
 26 28  1  0  0  0  0
 26 29  1  0  0  0  0
M  END
$$$$

  -OEChem-01062216083D

 29 29  0     1  0  0  0  0  0999 V2000
   -3.3999   -2.3724    1.2352 H   0  0  0  0  0  0  0  0  0  0  0  0
   -3.2557   -1.5135    0.5735 C   0  0  0  0  0  0  0  0  0  0  0  0
   -4.0197   -0.7648    0.7959 H   0  0  0  0  0  0  0  0  0  0  0  0
   -3.3680   -1.8457   -0.4611 H   0  0  0  0  0  0  0  0  0  0  0  0
   -1.8743   -0.9223    0.7819 C   0  0  0  0  0  0  0  0  0  0  0  0
   -1.1773   -1.3303    1.6960 O   0  0  0  0  0  0  0  0  0  0  0  0
   -1.4716    0.1554    0.0172 N   0  0  0  0  0  0  0  0  0  0  0  0
   -2.1673    0.5568   -0.6056 H   0  0  0  0  0  0  0  0  0  0  0  0
   -0.1127    0.7304   -0.0048 C   0  0  1  0  0  0  0  0  0  0  0  0
    0.2465    0.8598    1.0219 H   0  0  0  0  0  0  0  0  0  0  0  0
    0.8977   -0.1492   -0.7896 C   0  0  0  0  0  0  0  0  0  0  0  0
    0.5274   -0.2885   -1.8104 H   0  0  0  0  0  0  0  0  0  0  0  0
    1.8581    0.3734   -0.8496 H   0  0  0  0  0  0  0  0  0  0  0  0
    1.1524   -1.5100   -0.2018 C   0  0  0  0  0  0  0  0  0  0  0  0
    1.8998   -1.8280    0.9095 N   0  0  0  0  0  0  0  0  0  0  0  0
    2.2671   -1.1723    1.5951 H   0  0  0  0  0  0  0  0  0  0  0  0
    1.9025   -3.2034    1.0500 C   0  0  0  0  0  0  0  0  0  0  0  0
    2.3805   -3.7445    1.8613 H   0  0  0  0  0  0  0  0  0  0  0  0
    1.2514   -3.7656    0.0593 N   0  0  0  0  0  0  0  0  0  0  0  0
    0.7753   -2.7205   -0.7225 C   0  0  0  0  0  0  0  0  0  0  0  0
    0.1941   -2.8483   -1.6306 H   0  0  0  0  0  0  0  0  0  0  0  0
   -0.1690    2.1280   -0.6707 C   0  0  0  0  0  0  0  0  0  0  0  0
   -0.7441    3.0369   -0.0891 O   0  0  0  0  0  0  0  0  0  0  0  0
    0.2843    2.3691   -1.9591 N   0  0  0  0  0  0  0  0  0  0  0  0
    0.7330    1.6052   -2.4550 H   0  0  0  0  0  0  0  0  0  0  0  0
    0.1655    3.6620   -2.6245 C   0  0  0  0  0  0  0  0  0  0  0  0
    0.7040    4.4334   -2.0638 H   0  0  0  0  0  0  0  0  0  0  0  0
    0.5884    3.6088   -3.6323 H   0  0  0  0  0  0  0  0  0  0  0  0
   -0.8862    3.9563   -2.7067 H   0  0  0  0  0  0  0  0  0  0  0  0
  1  2  1  0  0  0  0
  2  3  1  0  0  0  0
  2  4  1  0  0  0  0
  2  5  1  0  0  0  0
  5  6  2  0  0  0  0
  5  7  1  0  0  0  0
  7  8  1  0  0  0  0
  7  9  1  0  0  0  0
  9 10  1  0  0  0  0
  9 11  1  0  0  0  0
  9 22  1  0  0  0  0
 11 12  1  0  0  0  0
 11 13  1  0  0  0  0
 11 14  1  0  0  0  0
 14 15  1  0  0  0  0
 14 20  2  0  0  0  0
 15 16  1  0  0  0  0
 15 17  1  0  0  0  0
 17 18  1  0  0  0  0
 17 19  2  0  0  0  0
 19 20  1  0  0  0  0
 20 21  1  0  0  0  0
 22 23  2  0  0  0  0
 22 24  1  0  0  0  0
 24 25  1  0  0  0  0
 24 26  1  0  0  0  0
 26 27  1  0  0  0  0
 26 28  1  0  0  0  0
 26 29  1  0  0  0  0
M  END
$$$$

  -OEChem-01062216083D

 29 29  0     1  0  0  0  0  0999 V2000
   -3.3635   -2.4113    1.2593 H   0  0  0  0  0  0  0  0  0  0  0  0
   -3.2393   -1.5557    0.5893 C   0  0  0  0  0  0  0  0  0  0  0  0
   -4.0285   -0.8287    0.7952 H   0  0  0  0  0  0  0  0  0  0  0  0
   -3.3304   -1.9029   -0.4423 H   0  0  0  0  0  0  0  0  0  0  0  0
   -1.8792   -0.9197    0.8050 C   0  0  0  0  0  0  0  0  0  0  0  0
   -1.1783   -1.2972    1.7289 O   0  0  0  0  0  0  0  0  0  0  0  0
   -1.4981    0.1575    0.0281 N   0  0  0  0  0  0  0  0  0  0  0  0
   -2.1835    0.4993   -0.6392 H   0  0  0  0  0  0  0  0  0  0  0  0
   -0.1398    0.7337   -0.0155 C   0  0  1  0  0  0  0  0  0  0  0  0
    0.2311    0.8630    1.0073 H   0  0  0  0  0  0  0  0  0  0  0  0
    0.8673   -0.1401   -0.8094 C   0  0  0  0  0  0  0  0  0  0  0  0
    0.4896   -0.2887   -1.8256 H   0  0  0  0  0  0  0  0  0  0  0  0
    1.8227    0.3904   -0.8838 H   0  0  0  0  0  0  0  0  0  0  0  0
    1.1325   -1.4964   -0.2152 C   0  0  0  0  0  0  0  0  0  0  0  0
    1.8919   -1.7998    0.8920 N   0  0  0  0  0  0  0  0  0  0  0  0
    2.2661   -1.1348    1.5651 H   0  0  0  0  0  0  0  0  0  0  0  0
    1.9011   -3.1735    1.0473 C   0  0  0  0  0  0  0  0  0  0  0  0
    2.3892   -3.7040    1.8598 H   0  0  0  0  0  0  0  0  0  0  0  0
    1.2419   -3.7485    0.0690 N   0  0  0  0  0  0  0  0  0  0  0  0
    0.7560   -2.7136   -0.7203 C   0  0  0  0  0  0  0  0  0  0  0  0
    0.1667   -2.8537   -1.6214 H   0  0  0  0  0  0  0  0  0  0  0  0
   -0.1926    2.1285   -0.6809 C   0  0  0  0  0  0  0  0  0  0  0  0
   -0.4494    3.1081    0.0034 O   0  0  0  0  0  0  0  0  0  0  0  0
   -0.0430    2.3051   -2.0479 N   0  0  0  0  0  0  0  0  0  0  0  0
    0.1545    1.4857   -2.6137 H   0  0  0  0  0  0  0  0  0  0  0  0
   -0.1174    3.6075   -2.7010 C   0  0  0  0  0  0  0  0  0  0  0  0
    0.6488    4.2807   -2.3021 H   0  0  0  0  0  0  0  0  0  0  0  0
    0.0440    3.5008   -3.7781 H   0  0  0  0  0  0  0  0  0  0  0  0
   -1.1015    4.0610   -2.5421 H   0  0  0  0  0  0  0  0  0  0  0  0
  1  2  1  0  0  0  0
  2  3  1  0  0  0  0
  2  4  1  0  0  0  0
  2  5  1  0  0  0  0
  5  6  2  0  0  0  0
  5  7  1  0  0  0  0
  7  8  1  0  0  0  0
  7  9  1  0  0  0  0
  9 10  1  0  0  0  0
  9 11  1  0  0  0  0
  9 22  1  0  0  0  0
 11 12  1  0  0  0  0
 11 13  1  0  0  0  0
 11 14  1  0  0  0  0
 14 15  1  0  0  0  0
 14 20  2  0  0  0  0
 15 16  1  0  0  0  0
 15 17  1  0  0  0  0
 17 18  1  0  0  0  0
 17 19  2  0  0  0  0
 19 20  1  0  0  0  0
 20 21  1  0  0  0  0
 22 23  2  0  0  0  0
 22 24  1  0  0  0  0
 24 25  1  0  0  0  0
 24 26  1  0  0  0  0
 26 27  1  0  0  0  0
 26 28  1  0  0  0  0
 26 29  1  0  0  0  0
M  END
$$$$

  -OEChem-01062216083D

 29 29  0     1  0  0  0  0  0999 V2000
   -3.3314   -2.4562    1.2738 H   0  0  0  0  0  0  0  0  0  0  0  0
   -3.2300   -1.5934    0.6093 C   0  0  0  0  0  0  0  0  0  0  0  0
   -4.0373   -0.8883    0.8209 H   0  0  0  0  0  0  0  0  0  0  0  0
   -3.3132   -1.9367   -0.4245 H   0  0  0  0  0  0  0  0  0  0  0  0
   -1.8868   -0.9240    0.8285 C   0  0  0  0  0  0  0  0  0  0  0  0
   -1.1818   -1.2798    1.7577 O   0  0  0  0  0  0  0  0  0  0  0  0
   -1.5235    0.1546    0.0440 N   0  0  0  0  0  0  0  0  0  0  0  0
   -2.2043    0.4619   -0.6440 H   0  0  0  0  0  0  0  0  0  0  0  0
   -0.1687    0.7398   -0.0056 C   0  0  1  0  0  0  0  0  0  0  0  0
    0.2075    0.8676    1.0157 H   0  0  0  0  0  0  0  0  0  0  0  0
    0.8410   -0.1160   -0.8125 C   0  0  0  0  0  0  0  0  0  0  0  0
    0.4646   -0.2562   -1.8303 H   0  0  0  0  0  0  0  0  0  0  0  0
    1.7913    0.4240   -0.8842 H   0  0  0  0  0  0  0  0  0  0  0  0
    1.1171   -1.4736   -0.2267 C   0  0  0  0  0  0  0  0  0  0  0  0
    1.8827   -1.7775    0.8760 N   0  0  0  0  0  0  0  0  0  0  0  0
    2.2577   -1.1131    1.5495 H   0  0  0  0  0  0  0  0  0  0  0  0
    1.9004   -3.1518    1.0248 C   0  0  0  0  0  0  0  0  0  0  0  0
    2.3958   -3.6831    1.8322 H   0  0  0  0  0  0  0  0  0  0  0  0
    1.2383   -3.7259    0.0479 N   0  0  0  0  0  0  0  0  0  0  0  0
    0.7447   -2.6905   -0.7355 C   0  0  0  0  0  0  0  0  0  0  0  0
    0.1516   -2.8295   -1.6343 H   0  0  0  0  0  0  0  0  0  0  0  0
   -0.2233    2.1309   -0.6724 C   0  0  0  0  0  0  0  0  0  0  0  0
   -0.1476    3.1377    0.0158 O   0  0  0  0  0  0  0  0  0  0  0  0
   -0.3816    2.2715   -2.0422 N   0  0  0  0  0  0  0  0  0  0  0  0
   -0.4216    1.4267   -2.6038 H   0  0  0  0  0  0  0  0  0  0  0  0
   -0.4168    3.5655   -2.7145 C   0  0  0  0  0  0  0  0  0  0  0  0
    0.5129    4.1158   -2.5352 H   0  0  0  0  0  0  0  0  0  0  0  0
   -0.5343    3.4289   -3.7938 H   0  0  0  0  0  0  0  0  0  0  0  0
   -1.2569    4.1652   -2.3486 H   0  0  0  0  0  0  0  0  0  0  0  0
  1  2  1  0  0  0  0
  2  3  1  0  0  0  0
  2  4  1  0  0  0  0
  2  5  1  0  0  0  0
  5  6  2  0  0  0  0
  5  7  1  0  0  0  0
  7  8  1  0  0  0  0
  7  9  1  0  0  0  0
  9 10  1  0  0  0  0
  9 11  1  0  0  0  0
  9 22  1  0  0  0  0
 11 12  1  0  0  0  0
 11 13  1  0  0  0  0
 11 14  1  0  0  0  0
 14 15  1  0  0  0  0
 14 20  2  0  0  0  0
 15 16  1  0  0  0  0
 15 17  1  0  0  0  0
 17 18  1  0  0  0  0
 17 19  2  0  0  0  0
 19 20  1  0  0  0  0
 20 21  1  0  0  0  0
 22 23  2  0  0  0  0
 22 24  1  0  0  0  0
 24 25  1  0  0  0  0
 24 26  1  0  0  0  0
 26 27  1  0  0  0  0
 26 28  1  0  0  0  0
 26 29  1  0  0  0  0
M  END
$$$$

  -OEChem-01062216083D

 29 29  0     1  0  0  0  0  0999 V2000
   -3.3222   -2.4791    1.3129 H   0  0  0  0  0  0  0  0  0  0  0  0
   -3.2250   -1.6289    0.6317 C   0  0  0  0  0  0  0  0  0  0  0  0
   -4.0441   -0.9308    0.8199 H   0  0  0  0  0  0  0  0  0  0  0  0
   -3.2918   -1.9943   -0.3955 H   0  0  0  0  0  0  0  0  0  0  0  0
   -1.8930   -0.9374    0.8512 C   0  0  0  0  0  0  0  0  0  0  0  0
   -1.1825   -1.2809    1.7807 O   0  0  0  0  0  0  0  0  0  0  0  0
   -1.5455    0.1445    0.0638 N   0  0  0  0  0  0  0  0  0  0  0  0
   -2.2297    0.4395   -0.6257 H   0  0  0  0  0  0  0  0  0  0  0  0
   -0.1970    0.7457    0.0178 C   0  0  1  0  0  0  0  0  0  0  0  0
    0.1814    0.8700    1.0387 H   0  0  0  0  0  0  0  0  0  0  0  0
    0.8148   -0.0874   -0.8069 C   0  0  0  0  0  0  0  0  0  0  0  0
    0.4358   -0.2113   -1.8259 H   0  0  0  0  0  0  0  0  0  0  0  0
    1.7609    0.4610   -0.8744 H   0  0  0  0  0  0  0  0  0  0  0  0
    1.1019   -1.4499   -0.2387 C   0  0  0  0  0  0  0  0  0  0  0  0
    1.8737   -1.7591    0.8577 N   0  0  0  0  0  0  0  0  0  0  0  0
    2.2485   -1.0976    1.5342 H   0  0  0  0  0  0  0  0  0  0  0  0
    1.8995   -3.1344    0.9947 C   0  0  0  0  0  0  0  0  0  0  0  0
    2.4001   -3.6699    1.7962 H   0  0  0  0  0  0  0  0  0  0  0  0
    1.2369   -3.7036    0.0151 N   0  0  0  0  0  0  0  0  0  0  0  0
    0.7351   -2.6638   -0.7577 C   0  0  0  0  0  0  0  0  0  0  0  0
    0.1397   -2.7983   -1.6555 H   0  0  0  0  0  0  0  0  0  0  0  0
   -0.2537    2.1341   -0.6494 C   0  0  0  0  0  0  0  0  0  0  0  0
    0.1236    3.1230   -0.0388 O   0  0  0  0  0  0  0  0  0  0  0  0
   -0.7054    2.2786   -1.9516 N   0  0  0  0  0  0  0  0  0  0  0  0
   -0.9249    1.4345   -2.4708 H   0  0  0  0  0  0  0  0  0  0  0  0
   -0.7117    3.5569   -2.6540 C   0  0  0  0  0  0  0  0  0  0  0  0
    0.3056    3.9542   -2.7359 H   0  0  0  0  0  0  0  0  0  0  0  0
   -1.1173    3.4334   -3.6627 H   0  0  0  0  0  0  0  0  0  0  0  0
   -1.3318    4.2850   -2.1201 H   0  0  0  0  0  0  0  0  0  0  0  0
  1  2  1  0  0  0  0
  2  3  1  0  0  0  0
  2  4  1  0  0  0  0
  2  5  1  0  0  0  0
  5  6  2  0  0  0  0
  5  7  1  0  0  0  0
  7  8  1  0  0  0  0
  7  9  1  0  0  0  0
  9 10  1  0  0  0  0
  9 11  1  0  0  0  0
  9 22  1  0  0  0  0
 11 12  1  0  0  0  0
 11 13  1  0  0  0  0
 11 14  1  0  0  0  0
 14 15  1  0  0  0  0
 14 20  2  0  0  0  0
 15 16  1  0  0  0  0
 15 17  1  0  0  0  0
 17 18  1  0  0  0  0
 17 19  2  0  0  0  0
 19 20  1  0  0  0  0
 20 21  1  0  0  0  0
 22 23  2  0  0  0  0
 22 24  1  0  0  0  0
 24 25  1  0  0  0  0
 24 26  1  0  0  0  0
 26 27  1  0  0  0  0
 26 28  1  0  0  0  0
 26 29  1  0  0  0  0
M  END
$$$$

  -OEChem-01062216083D

 29 29  0     1  0  0  0  0  0999 V2000
   -3.2987   -2.5177    1.3399 H   0  0  0  0  0  0  0  0  0  0  0  0
   -3.2141   -1.6705    0.6533 C   0  0  0  0  0  0  0  0  0  0  0  0
   -4.0484   -0.9882    0.8319 H   0  0  0  0  0  0  0  0  0  0  0  0
   -3.2676   -2.0447   -0.3716 H   0  0  0  0  0  0  0  0  0  0  0  0
   -1.8974   -0.9512    0.8760 C   0  0  0  0  0  0  0  0  0  0  0  0
   -1.1867   -1.2723    1.8134 O   0  0  0  0  0  0  0  0  0  0  0  0
   -1.5657    0.1324    0.0839 N   0  0  0  0  0  0  0  0  0  0  0  0
   -2.2502    0.4075   -0.6122 H   0  0  0  0  0  0  0  0  0  0  0  0
   -0.2234    0.7507    0.0411 C   0  0  1  0  0  0  0  0  0  0  0  0
    0.1565    0.8724    1.0618 H   0  0  0  0  0  0  0  0  0  0  0  0
    0.7876   -0.0680   -0.7968 C   0  0  0  0  0  0  0  0  0  0  0  0
    0.4033   -0.1790   -1.8158 H   0  0  0  0  0  0  0  0  0  0  0  0
    1.7312    0.4849   -0.8630 H   0  0  0  0  0  0  0  0  0  0  0  0
    1.0851   -1.4340   -0.2418 C   0  0  0  0  0  0  0  0  0  0  0  0
    1.8644   -1.7492    0.8477 N   0  0  0  0  0  0  0  0  0  0  0  0
    2.2438   -1.0914    1.5254 H   0  0  0  0  0  0  0  0  0  0  0  0
    1.8982   -3.1255    0.9717 C   0  0  0  0  0  0  0  0  0  0  0  0
    2.4058   -3.6660    1.7654 H   0  0  0  0  0  0  0  0  0  0  0  0
    1.2325   -3.6891   -0.0092 N   0  0  0  0  0  0  0  0  0  0  0  0
    0.7225   -2.6449   -0.7707 C   0  0  0  0  0  0  0  0  0  0  0  0
    0.1240   -2.7738   -1.6674 H   0  0  0  0  0  0  0  0  0  0  0  0
   -0.2719    2.1382   -0.6282 C   0  0  0  0  0  0  0  0  0  0  0  0
    0.3617    3.0678   -0.1507 O   0  0  0  0  0  0  0  0  0  0  0  0
   -0.9832    2.3380   -1.8010 N   0  0  0  0  0  0  0  0  0  0  0  0
   -1.3766    1.5208   -2.2557 H   0  0  0  0  0  0  0  0  0  0  0  0
   -0.9821    3.6063   -2.5221 C   0  0  0  0  0  0  0  0  0  0  0  0
    0.0296    3.8545   -2.8603 H   0  0  0  0  0  0  0  0  0  0  0  0
   -1.6354    3.5447   -3.3977 H   0  0  0  0  0  0  0  0  0  0  0  0
   -1.3456    4.4142   -1.8781 H   0  0  0  0  0  0  0  0  0  0  0  0
  1  2  1  0  0  0  0
  2  3  1  0  0  0  0
  2  4  1  0  0  0  0
  2  5  1  0  0  0  0
  5  6  2  0  0  0  0
  5  7  1  0  0  0  0
  7  8  1  0  0  0  0
  7  9  1  0  0  0  0
  9 10  1  0  0  0  0
  9 11  1  0  0  0  0
  9 22  1  0  0  0  0
 11 12  1  0  0  0  0
 11 13  1  0  0  0  0
 11 14  1  0  0  0  0
 14 15  1  0  0  0  0
 14 20  2  0  0  0  0
 15 16  1  0  0  0  0
 15 17  1  0  0  0  0
 17 18  1  0  0  0  0
 17 19  2  0  0  0  0
 19 20  1  0  0  0  0
 20 21  1  0  0  0  0
 22 23  2  0  0  0  0
 22 24  1  0  0  0  0
 24 25  1  0  0  0  0
 24 26  1  0  0  0  0
 26 27  1  0  0  0  0
 26 28  1  0  0  0  0
 26 29  1  0  0  0  0
M  END
$$$$

  -OEChem-01062216083D

 29 29  0     1  0  0  0  0  0999 V2000
   -3.1001   -2.6208    1.3628 H   0  0  0  0  0  0  0  0  0  0  0  0
   -3.0538   -1.8059    0.6346 C   0  0  0  0  0  0  0  0  0  0  0  0
   -3.9820   -1.2321    0.6886 H   0  0  0  0  0  0  0  0  0  0  0  0
   -2.9531   -2.2366   -0.3645 H   0  0  0  0  0  0  0  0  0  0  0  0
   -1.8684   -0.9088    0.9356 C   0  0  0  0  0  0  0  0  0  0  0  0
   -1.2069   -1.0974    1.9432 O   0  0  0  0  0  0  0  0  0  0  0  0
   -1.5906    0.1655    0.1097 N   0  0  0  0  0  0  0  0  0  0  0  0
   -2.1681    0.2113   -0.7211 H   0  0  0  0  0  0  0  0  0  0  0  0
   -0.2440    0.7772    0.0390 C   0  0  1  0  0  0  0  0  0  0  0  0
    0.1580    0.9030    1.0506 H   0  0  0  0  0  0  0  0  0  0  0  0
    0.7308   -0.0749   -0.8099 C   0  0  0  0  0  0  0  0  0  0  0  0
    0.3209   -0.1907   -1.8185 H   0  0  0  0  0  0  0  0  0  0  0  0
    1.6855    0.4544   -0.9068 H   0  0  0  0  0  0  0  0  0  0  0  0
    1.0110   -1.4372   -0.2349 C   0  0  0  0  0  0  0  0  0  0  0  0
    1.8069   -1.7523    0.8425 N   0  0  0  0  0  0  0  0  0  0  0  0
    2.2290   -1.0917    1.4919 H   0  0  0  0  0  0  0  0  0  0  0  0
    1.8075   -3.1264    0.9934 C   0  0  0  0  0  0  0  0  0  0  0  0
    2.3221   -3.6658    1.7833 H   0  0  0  0  0  0  0  0  0  0  0  0
    1.0988   -3.6897    0.0427 N   0  0  0  0  0  0  0  0  0  0  0  0
    0.6047   -2.6475   -0.7313 C   0  0  0  0  0  0  0  0  0  0  0  0
   -0.0180   -2.7766   -1.6111 H   0  0  0  0  0  0  0  0  0  0  0  0
   -0.2591    2.1637   -0.6398 C   0  0  0  0  0  0  0  0  0  0  0  0
    0.6334    2.9627   -0.3930 O   0  0  0  0  0  0  0  0  0  0  0  0
   -1.1880    2.4864   -1.6165 N   0  0  0  0  0  0  0  0  0  0  0  0
   -1.9376    1.8292   -1.7952 H   0  0  0  0  0  0  0  0  0  0  0  0
   -1.2010    3.7688   -2.3114 C   0  0  0  0  0  0  0  0  0  0  0  0
   -0.2681    3.9131   -2.8667 H   0  0  0  0  0  0  0  0  0  0  0  0
   -2.0339    3.8070   -3.0201 H   0  0  0  0  0  0  0  0  0  0  0  0
   -1.3165    4.5913   -1.5974 H   0  0  0  0  0  0  0  0  0  0  0  0
  1  2  1  0  0  0  0
  2  3  1  0  0  0  0
  2  4  1  0  0  0  0
  2  5  1  0  0  0  0
  5  6  2  0  0  0  0
  5  7  1  0  0  0  0
  7  8  1  0  0  0  0
  7  9  1  0  0  0  0
  9 10  1  0  0  0  0
  9 11  1  0  0  0  0
  9 22  1  0  0  0  0
 11 12  1  0  0  0  0
 11 13  1  0  0  0  0
 11 14  1  0  0  0  0
 14 15  1  0  0  0  0
 14 20  2  0  0  0  0
 15 16  1  0  0  0  0
 15 17  1  0  0  0  0
 17 18  1  0  0  0  0
 17 19  2  0  0  0  0
 19 20  1  0  0  0  0
 20 21  1  0  0  0  0
 22 23  2  0  0  0  0
 22 24  1  0  0  0  0
 24 25  1  0  0  0  0
 24 26  1  0  0  0  0
 26 27  1  0  0  0  0
 26 28  1  0  0  0  0
 26 29  1  0  0  0  0
M  END
$$$$

  -OEChem-01062216083D

 29 29  0     1  0  0  0  0  0999 V2000
   -3.0097   -2.6592    1.3412 H   0  0  0  0  0  0  0  0  0  0  0  0
   -2.9832   -1.8462    0.6099 C   0  0  0  0  0  0  0  0  0  0  0  0
   -3.9374   -1.3149    0.6380 H   0  0  0  0  0  0  0  0  0  0  0  0
   -2.8390   -2.2767   -0.3838 H   0  0  0  0  0  0  0  0  0  0  0  0
   -1.8478   -0.8945    0.9345 C   0  0  0  0  0  0  0  0  0  0  0  0
   -1.2156   -1.0357    1.9685 O   0  0  0  0  0  0  0  0  0  0  0  0
   -1.5834    0.1774    0.1005 N   0  0  0  0  0  0  0  0  0  0  0  0
   -2.1115    0.1537   -0.7652 H   0  0  0  0  0  0  0  0  0  0  0  0
   -0.2333    0.7823    0.0258 C   0  0  1  0  0  0  0  0  0  0  0  0
    0.1740    0.9126    1.0345 H   0  0  0  0  0  0  0  0  0  0  0  0
    0.7290   -0.0881   -0.8221 C   0  0  0  0  0  0  0  0  0  0  0  0
    0.3132   -0.2048   -1.8282 H   0  0  0  0  0  0  0  0  0  0  0  0
    1.6918    0.4245   -0.9264 H   0  0  0  0  0  0  0  0  0  0  0  0
    0.9927   -1.4483   -0.2341 C   0  0  0  0  0  0  0  0  0  0  0  0
    1.7877   -1.7622    0.8441 N   0  0  0  0  0  0  0  0  0  0  0  0
    2.2301   -1.1001    1.4781 H   0  0  0  0  0  0  0  0  0  0  0  0
    1.7621   -3.1334    1.0167 C   0  0  0  0  0  0  0  0  0  0  0  0
    2.2666   -3.6696    1.8154 H   0  0  0  0  0  0  0  0  0  0  0  0
    1.0412   -3.6977    0.0758 N   0  0  0  0  0  0  0  0  0  0  0  0
    0.5665   -2.6585   -0.7143 C   0  0  0  0  0  0  0  0  0  0  0  0
   -0.0603   -2.7898   -1.5911 H   0  0  0  0  0  0  0  0  0  0  0  0
   -0.2549    2.1690   -0.6563 C   0  0  0  0  0  0  0  0  0  0  0  0
    0.7519    2.8643   -0.6513 O   0  0  0  0  0  0  0  0  0  0  0  0
   -1.3531    2.5940   -1.3867 N   0  0  0  0  0  0  0  0  0  0  0  0
   -2.2234    2.0998   -1.2232 H   0  0  0  0  0  0  0  0  0  0  0  0
   -1.4142    3.9043   -2.0252 C   0  0  0  0  0  0  0  0  0  0  0  0
   -0.5973    4.0188   -2.7456 H   0  0  0  0  0  0  0  0  0  0  0  0
   -2.3615    4.0211   -2.5601 H   0  0  0  0  0  0  0  0  0  0  0  0
   -1.3373    4.6993   -1.2760 H   0  0  0  0  0  0  0  0  0  0  0  0
  1  2  1  0  0  0  0
  2  3  1  0  0  0  0
  2  4  1  0  0  0  0
  2  5  1  0  0  0  0
  5  6  2  0  0  0  0
  5  7  1  0  0  0  0
  7  8  1  0  0  0  0
  7  9  1  0  0  0  0
  9 10  1  0  0  0  0
  9 11  1  0  0  0  0
  9 22  1  0  0  0  0
 11 12  1  0  0  0  0
 11 13  1  0  0  0  0
 11 14  1  0  0  0  0
 14 15  1  0  0  0  0
 14 20  2  0  0  0  0
 15 16  1  0  0  0  0
 15 17  1  0  0  0  0
 17 18  1  0  0  0  0
 17 19  2  0  0  0  0
 19 20  1  0  0  0  0
 20 21  1  0  0  0  0
 22 23  2  0  0  0  0
 22 24  1  0  0  0  0
 24 25  1  0  0  0  0
 24 26  1  0  0  0  0
 26 27  1  0  0  0  0
 26 28  1  0  0  0  0
 26 29  1  0  0  0  0
M  END
$$$$

  -OEChem-01062216083D

 29 29  0     1  0  0  0  0  0999 V2000
   -2.9510   -2.7105    1.2494 H   0  0  0  0  0  0  0  0  0  0  0  0
   -2.9855   -1.8353    0.5939 C   0  0  0  0  0  0  0  0  0  0  0  0
   -3.9420   -1.3261    0.7329 H   0  0  0  0  0  0  0  0  0  0  0  0
   -2.9039   -2.1733   -0.4417 H   0  0  0  0  0  0  0  0  0  0  0  0
   -1.8437   -0.8939    0.9262 C   0  0  0  0  0  0  0  0  0  0  0  0
   -1.2206   -1.0388    1.9650 O   0  0  0  0  0  0  0  0  0  0  0  0
   -1.5689    0.1811    0.1001 N   0  0  0  0  0  0  0  0  0  0  0  0
   -2.0956    0.1725   -0.7680 H   0  0  0  0  0  0  0  0  0  0  0  0
   -0.2175    0.7840    0.0320 C   0  0  1  0  0  0  0  0  0  0  0  0
    0.1890    0.9138    1.0408 H   0  0  0  0  0  0  0  0  0  0  0  0
    0.7418   -0.0943   -0.8142 C   0  0  0  0  0  0  0  0  0  0  0  0
    0.3282   -0.2060   -1.8219 H   0  0  0  0  0  0  0  0  0  0  0  0
    1.7097    0.4088   -0.9160 H   0  0  0  0  0  0  0  0  0  0  0  0
    0.9981   -1.4569   -0.2273 C   0  0  0  0  0  0  0  0  0  0  0  0
    1.7903   -1.7771    0.8512 N   0  0  0  0  0  0  0  0  0  0  0  0
    2.2333   -1.1187    1.4886 H   0  0  0  0  0  0  0  0  0  0  0  0
    1.7652   -3.1495    1.0152 C   0  0  0  0  0  0  0  0  0  0  0  0
    2.2712   -3.6916    1.8091 H   0  0  0  0  0  0  0  0  0  0  0  0
    1.0430   -3.7076    0.0718 N   0  0  0  0  0  0  0  0  0  0  0  0
    0.5691   -2.6639   -0.7128 C   0  0  0  0  0  0  0  0  0  0  0  0
   -0.0576   -2.7898   -1.5903 H   0  0  0  0  0  0  0  0  0  0  0  0
   -0.2556    2.1738   -0.6475 C   0  0  0  0  0  0  0  0  0  0  0  0
    0.7795    2.7897   -0.8639 O   0  0  0  0  0  0  0  0  0  0  0  0
   -1.4513    2.7056   -1.1013 N   0  0  0  0  0  0  0  0  0  0  0  0
   -2.2966    2.2805   -0.7331 H   0  0  0  0  0  0  0  0  0  0  0  0
   -1.5496    4.0261   -1.7134 C   0  0  0  0  0  0  0  0  0  0  0  0
   -0.9011    4.0905   -2.5936 H   0  0  0  0  0  0  0  0  0  0  0  0
   -2.5785    4.2199   -2.0313 H   0  0  0  0  0  0  0  0  0  0  0  0
   -1.2530    4.8027   -1.0004 H   0  0  0  0  0  0  0  0  0  0  0  0
  1  2  1  0  0  0  0
  2  3  1  0  0  0  0
  2  4  1  0  0  0  0
  2  5  1  0  0  0  0
  5  6  2  0  0  0  0
  5  7  1  0  0  0  0
  7  8  1  0  0  0  0
  7  9  1  0  0  0  0
  9 10  1  0  0  0  0
  9 11  1  0  0  0  0
  9 22  1  0  0  0  0
 11 12  1  0  0  0  0
 11 13  1  0  0  0  0
 11 14  1  0  0  0  0
 14 15  1  0  0  0  0
 14 20  2  0  0  0  0
 15 16  1  0  0  0  0
 15 17  1  0  0  0  0
 17 18  1  0  0  0  0
 17 19  2  0  0  0  0
 19 20  1  0  0  0  0
 20 21  1  0  0  0  0
 22 23  2  0  0  0  0
 22 24  1  0  0  0  0
 24 25  1  0  0  0  0
 24 26  1  0  0  0  0
 26 27  1  0  0  0  0
 26 28  1  0  0  0  0
 26 29  1  0  0  0  0
M  END
$$$$

  -OEChem-01062216083D

 29 29  0     1  0  0  0  0  0999 V2000
   -3.0361   -2.6377    1.2983 H   0  0  0  0  0  0  0  0  0  0  0  0
   -2.9914   -1.8188    0.5747 C   0  0  0  0  0  0  0  0  0  0  0  0
   -3.9343   -1.2678    0.6065 H   0  0  0  0  0  0  0  0  0  0  0  0
   -2.8548   -2.2426   -0.4231 H   0  0  0  0  0  0  0  0  0  0  0  0
   -1.8364   -0.8946    0.9088 C   0  0  0  0  0  0  0  0  0  0  0  0
   -1.2130   -1.0489    1.9463 O   0  0  0  0  0  0  0  0  0  0  0  0
   -1.5534    0.1834    0.0905 N   0  0  0  0  0  0  0  0  0  0  0  0
   -2.0955    0.2040   -0.7686 H   0  0  0  0  0  0  0  0  0  0  0  0
   -0.1994    0.7788    0.0160 C   0  0  1  0  0  0  0  0  0  0  0  0
    0.2094    0.9094    1.0236 H   0  0  0  0  0  0  0  0  0  0  0  0
    0.7569   -0.1095   -0.8256 C   0  0  0  0  0  0  0  0  0  0  0  0
    0.3421   -0.2268   -1.8323 H   0  0  0  0  0  0  0  0  0  0  0  0
    1.7272    0.3877   -0.9312 H   0  0  0  0  0  0  0  0  0  0  0  0
    1.0090   -1.4690   -0.2298 C   0  0  0  0  0  0  0  0  0  0  0  0
    1.8011   -1.7847    0.8502 N   0  0  0  0  0  0  0  0  0  0  0  0
    2.2496   -1.1239    1.4809 H   0  0  0  0  0  0  0  0  0  0  0  0
    1.7686   -3.1553    1.0259 C   0  0  0  0  0  0  0  0  0  0  0  0
    2.2721   -3.6922    1.8245 H   0  0  0  0  0  0  0  0  0  0  0  0
    1.0432   -3.7176    0.0876 N   0  0  0  0  0  0  0  0  0  0  0  0
    0.5741   -2.6778   -0.7055 C   0  0  0  0  0  0  0  0  0  0  0  0
   -0.0540   -2.8079   -1.5816 H   0  0  0  0  0  0  0  0  0  0  0  0
   -0.2568    2.1725   -0.6577 C   0  0  0  0  0  0  0  0  0  0  0  0
    0.7498    2.7096   -1.1011 O   0  0  0  0  0  0  0  0  0  0  0  0
   -1.4717    2.8202   -0.8058 N   0  0  0  0  0  0  0  0  0  0  0  0
   -2.2514    2.4320   -0.2822 H   0  0  0  0  0  0  0  0  0  0  0  0
   -1.5959    4.1689   -1.3467 C   0  0  0  0  0  0  0  0  0  0  0  0
   -1.1834    4.2153   -2.3601 H   0  0  0  0  0  0  0  0  0  0  0  0
   -2.6488    4.4632   -1.3913 H   0  0  0  0  0  0  0  0  0  0  0  0
   -1.0608    4.8861   -0.7151 H   0  0  0  0  0  0  0  0  0  0  0  0
  1  2  1  0  0  0  0
  2  3  1  0  0  0  0
  2  4  1  0  0  0  0
  2  5  1  0  0  0  0
  5  6  2  0  0  0  0
  5  7  1  0  0  0  0
  7  8  1  0  0  0  0
  7  9  1  0  0  0  0
  9 10  1  0  0  0  0
  9 11  1  0  0  0  0
  9 22  1  0  0  0  0
 11 12  1  0  0  0  0
 11 13  1  0  0  0  0
 11 14  1  0  0  0  0
 14 15  1  0  0  0  0
 14 20  2  0  0  0  0
 15 16  1  0  0  0  0
 15 17  1  0  0  0  0
 17 18  1  0  0  0  0
 17 19  2  0  0  0  0
 19 20  1  0  0  0  0
 20 21  1  0  0  0  0
 22 23  2  0  0  0  0
 22 24  1  0  0  0  0
 24 25  1  0  0  0  0
 24 26  1  0  0  0  0
 26 27  1  0  0  0  0
 26 28  1  0  0  0  0
 26 29  1  0  0  0  0
M  END
$$$$

  -OEChem-01062216083D

 29 29  0     1  0  0  0  0  0999 V2000
   -3.0650   -2.6138    1.2869 H   0  0  0  0  0  0  0  0  0  0  0  0
   -2.9979   -1.8017    0.5572 C   0  0  0  0  0  0  0  0  0  0  0  0
   -3.9326   -1.2363    0.5708 H   0  0  0  0  0  0  0  0  0  0  0  0
   -2.8539   -2.2358   -0.4351 H   0  0  0  0  0  0  0  0  0  0  0  0
   -1.8336   -0.8917    0.8986 C   0  0  0  0  0  0  0  0  0  0  0  0
   -1.2108   -1.0584    1.9347 O   0  0  0  0  0  0  0  0  0  0  0  0
   -1.5414    0.1915    0.0912 N   0  0  0  0  0  0  0  0  0  0  0  0
   -2.0945    0.2400   -0.7601 H   0  0  0  0  0  0  0  0  0  0  0  0
   -0.1848    0.7789    0.0172 C   0  0  1  0  0  0  0  0  0  0  0  0
    0.2251    0.9056    1.0248 H   0  0  0  0  0  0  0  0  0  0  0  0
    0.7695   -0.1137   -0.8226 C   0  0  0  0  0  0  0  0  0  0  0  0
    0.3550   -0.2291   -1.8296 H   0  0  0  0  0  0  0  0  0  0  0  0
    1.7417    0.3804   -0.9265 H   0  0  0  0  0  0  0  0  0  0  0  0
    1.0164   -1.4746   -0.2271 C   0  0  0  0  0  0  0  0  0  0  0  0
    1.8061   -1.7942    0.8535 N   0  0  0  0  0  0  0  0  0  0  0  0
    2.2576   -1.1360    1.4847 H   0  0  0  0  0  0  0  0  0  0  0  0
    1.7706   -3.1652    1.0256 C   0  0  0  0  0  0  0  0  0  0  0  0
    2.2737   -3.7054    1.8225 H   0  0  0  0  0  0  0  0  0  0  0  0
    1.0438   -3.7239    0.0863 N   0  0  0  0  0  0  0  0  0  0  0  0
    0.5776   -2.6813   -0.7048 C   0  0  0  0  0  0  0  0  0  0  0  0
   -0.0504   -2.8079   -1.5811 H   0  0  0  0  0  0  0  0  0  0  0  0
   -0.2566    2.1772   -0.6460 C   0  0  0  0  0  0  0  0  0  0  0  0
    0.6594    2.6264   -1.3229 O   0  0  0  0  0  0  0  0  0  0  0  0
   -1.4021    2.9395   -0.4984 N   0  0  0  0  0  0  0  0  0  0  0  0
   -2.0963    2.5904    0.1574 H   0  0  0  0  0  0  0  0  0  0  0  0
   -1.5380    4.2966   -1.0145 C   0  0  0  0  0  0  0  0  0  0  0  0
   -1.3975    4.3100   -2.1005 H   0  0  0  0  0  0  0  0  0  0  0  0
   -2.5354    4.6877   -0.7924 H   0  0  0  0  0  0  0  0  0  0  0  0
   -0.7953    4.9573   -0.5550 H   0  0  0  0  0  0  0  0  0  0  0  0
  1  2  1  0  0  0  0
  2  3  1  0  0  0  0
  2  4  1  0  0  0  0
  2  5  1  0  0  0  0
  5  6  2  0  0  0  0
  5  7  1  0  0  0  0
  7  8  1  0  0  0  0
  7  9  1  0  0  0  0
  9 10  1  0  0  0  0
  9 11  1  0  0  0  0
  9 22  1  0  0  0  0
 11 12  1  0  0  0  0
 11 13  1  0  0  0  0
 11 14  1  0  0  0  0
 14 15  1  0  0  0  0
 14 20  2  0  0  0  0
 15 16  1  0  0  0  0
 15 17  1  0  0  0  0
 17 18  1  0  0  0  0
 17 19  2  0  0  0  0
 19 20  1  0  0  0  0
 20 21  1  0  0  0  0
 22 23  2  0  0  0  0
 22 24  1  0  0  0  0
 24 25  1  0  0  0  0
 24 26  1  0  0  0  0
 26 27  1  0  0  0  0
 26 28  1  0  0  0  0
 26 29  1  0  0  0  0
M  END
$$$$

  -OEChem-01062216083D

 29 29  0     1  0  0  0  0  0999 V2000
   -3.0606   -2.6120    1.2623 H   0  0  0  0  0  0  0  0  0  0  0  0
   -2.9995   -1.7861    0.5479 C   0  0  0  0  0  0  0  0  0  0  0  0
   -3.9327   -1.2191    0.5816 H   0  0  0  0  0  0  0  0  0  0  0  0
   -2.8661   -2.2011   -0.4540 H   0  0  0  0  0  0  0  0  0  0  0  0
   -1.8303   -0.8849    0.8958 C   0  0  0  0  0  0  0  0  0  0  0  0
   -1.2102   -1.0615    1.9321 O   0  0  0  0  0  0  0  0  0  0  0  0
   -1.5303    0.2029    0.0978 N   0  0  0  0  0  0  0  0  0  0  0  0
   -2.0873    0.2705   -0.7497 H   0  0  0  0  0  0  0  0  0  0  0  0
   -0.1710    0.7813    0.0311 C   0  0  1  0  0  0  0  0  0  0  0  0
    0.2380    0.9003    1.0398 H   0  0  0  0  0  0  0  0  0  0  0  0
    0.7836   -0.1095   -0.8099 C   0  0  0  0  0  0  0  0  0  0  0  0
    0.3728   -0.2171   -1.8194 H   0  0  0  0  0  0  0  0  0  0  0  0
    1.7559    0.3854   -0.9066 H   0  0  0  0  0  0  0  0  0  0  0  0
    1.0234   -1.4753   -0.2235 C   0  0  0  0  0  0  0  0  0  0  0  0
    1.8063   -1.8099    0.8575 N   0  0  0  0  0  0  0  0  0  0  0  0
    2.2574   -1.1609    1.4981 H   0  0  0  0  0  0  0  0  0  0  0  0
    1.7616   -3.1823    1.0160 C   0  0  0  0  0  0  0  0  0  0  0  0
    2.2559   -3.7336    1.8106 H   0  0  0  0  0  0  0  0  0  0  0  0
    1.0375   -3.7276    0.0670 N   0  0  0  0  0  0  0  0  0  0  0  0
    0.5813   -2.6748   -0.7162 C   0  0  0  0  0  0  0  0  0  0  0  0
   -0.0421   -2.7884   -1.5978 H   0  0  0  0  0  0  0  0  0  0  0  0
   -0.2477    2.1835   -0.6218 C   0  0  0  0  0  0  0  0  0  0  0  0
    0.5202    2.5441   -1.5051 O   0  0  0  0  0  0  0  0  0  0  0  0
   -1.2412    3.0555   -0.2151 N   0  0  0  0  0  0  0  0  0  0  0  0
   -1.8409    2.7456    0.5456 H   0  0  0  0  0  0  0  0  0  0  0  0
   -1.3908    4.4106   -0.7326 C   0  0  0  0  0  0  0  0  0  0  0  0
   -1.5554    4.3922   -1.8151 H   0  0  0  0  0  0  0  0  0  0  0  0
   -2.2472    4.9029   -0.2621 H   0  0  0  0  0  0  0  0  0  0  0  0
   -0.4932    5.0018   -0.5231 H   0  0  0  0  0  0  0  0  0  0  0  0
  1  2  1  0  0  0  0
  2  3  1  0  0  0  0
  2  4  1  0  0  0  0
  2  5  1  0  0  0  0
  5  6  2  0  0  0  0
  5  7  1  0  0  0  0
  7  8  1  0  0  0  0
  7  9  1  0  0  0  0
  9 10  1  0  0  0  0
  9 11  1  0  0  0  0
  9 22  1  0  0  0  0
 11 12  1  0  0  0  0
 11 13  1  0  0  0  0
 11 14  1  0  0  0  0
 14 15  1  0  0  0  0
 14 20  2  0  0  0  0
 15 16  1  0  0  0  0
 15 17  1  0  0  0  0
 17 18  1  0  0  0  0
 17 19  2  0  0  0  0
 19 20  1  0  0  0  0
 20 21  1  0  0  0  0
 22 23  2  0  0  0  0
 22 24  1  0  0  0  0
 24 25  1  0  0  0  0
 24 26  1  0  0  0  0
 26 27  1  0  0  0  0
 26 28  1  0  0  0  0
 26 29  1  0  0  0  0
M  END
$$$$

  -OEChem-01062216083D

 29 29  0     1  0  0  0  0  0999 V2000
   -3.1046   -2.5825    1.2497 H   0  0  0  0  0  0  0  0  0  0  0  0
   -3.0182   -1.7610    0.5330 C   0  0  0  0  0  0  0  0  0  0  0  0
   -3.9403   -1.1753    0.5538 H   0  0  0  0  0  0  0  0  0  0  0  0
   -2.8819   -2.1824   -0.4659 H   0  0  0  0  0  0  0  0  0  0  0  0
   -1.8350   -0.8818    0.8895 C   0  0  0  0  0  0  0  0  0  0  0  0
   -1.2147   -1.0783    1.9224 O   0  0  0  0  0  0  0  0  0  0  0  0
   -1.5223    0.2100    0.1028 N   0  0  0  0  0  0  0  0  0  0  0  0
   -2.0830    0.2992   -0.7405 H   0  0  0  0  0  0  0  0  0  0  0  0
   -0.1611    0.7792    0.0411 C   0  0  1  0  0  0  0  0  0  0  0  0
    0.2466    0.8888    1.0513 H   0  0  0  0  0  0  0  0  0  0  0  0
    0.7959   -0.1089   -0.7996 C   0  0  0  0  0  0  0  0  0  0  0  0
    0.3867   -0.2166   -1.8101 H   0  0  0  0  0  0  0  0  0  0  0  0
    1.7658    0.3911   -0.8949 H   0  0  0  0  0  0  0  0  0  0  0  0
    1.0330   -1.4786   -0.2202 C   0  0  0  0  0  0  0  0  0  0  0  0
    1.8121   -1.8194    0.8620 N   0  0  0  0  0  0  0  0  0  0  0  0
    2.2621   -1.1746    1.5073 H   0  0  0  0  0  0  0  0  0  0  0  0
    1.7712   -3.1932    1.0100 C   0  0  0  0  0  0  0  0  0  0  0  0
    2.2668   -3.7491    1.8007 H   0  0  0  0  0  0  0  0  0  0  0  0
    1.0498   -3.7333    0.0562 N   0  0  0  0  0  0  0  0  0  0  0  0
    0.5922   -2.6758   -0.7205 C   0  0  0  0  0  0  0  0  0  0  0  0
   -0.0292   -2.7856   -1.6041 H   0  0  0  0  0  0  0  0  0  0  0  0
   -0.2348    2.1849   -0.6000 C   0  0  0  0  0  0  0  0  0  0  0  0
    0.3241    2.4609   -1.6543 O   0  0  0  0  0  0  0  0  0  0  0  0
   -1.0027    3.1549    0.0173 N   0  0  0  0  0  0  0  0  0  0  0  0
   -1.4775    2.8915    0.8773 H   0  0  0  0  0  0  0  0  0  0  0  0
   -1.1641    4.5094   -0.4979 C   0  0  0  0  0  0  0  0  0  0  0  0
   -1.6340    4.4901   -1.4869 H   0  0  0  0  0  0  0  0  0  0  0  0
   -1.7966    5.0971    0.1744 H   0  0  0  0  0  0  0  0  0  0  0  0
   -0.1918    5.0068   -0.5792 H   0  0  0  0  0  0  0  0  0  0  0  0
  1  2  1  0  0  0  0
  2  3  1  0  0  0  0
  2  4  1  0  0  0  0
  2  5  1  0  0  0  0
  5  6  2  0  0  0  0
  5  7  1  0  0  0  0
  7  8  1  0  0  0  0
  7  9  1  0  0  0  0
  9 10  1  0  0  0  0
  9 11  1  0  0  0  0
  9 22  1  0  0  0  0
 11 12  1  0  0  0  0
 11 13  1  0  0  0  0
 11 14  1  0  0  0  0
 14 15  1  0  0  0  0
 14 20  2  0  0  0  0
 15 16  1  0  0  0  0
 15 17  1  0  0  0  0
 17 18  1  0  0  0  0
 17 19  2  0  0  0  0
 19 20  1  0  0  0  0
 20 21  1  0  0  0  0
 22 23  2  0  0  0  0
 22 24  1  0  0  0  0
 24 25  1  0  0  0  0
 24 26  1  0  0  0  0
 26 27  1  0  0  0  0
 26 28  1  0  0  0  0
 26 29  1  0  0  0  0
M  END
$$$$

  -OEChem-01062216083D

 29 29  0     1  0  0  0  0  0999 V2000
   -3.1089   -2.5835    1.2220 H   0  0  0  0  0  0  0  0  0  0  0  0
   -3.0329   -1.7415    0.5280 C   0  0  0  0  0  0  0  0  0  0  0  0
   -3.9502   -1.1509    0.5859 H   0  0  0  0  0  0  0  0  0  0  0  0
   -2.9210   -2.1340   -0.4856 H   0  0  0  0  0  0  0  0  0  0  0  0
   -1.8367   -0.8804    0.8849 C   0  0  0  0  0  0  0  0  0  0  0  0
   -1.2147   -1.0930    1.9139 O   0  0  0  0  0  0  0  0  0  0  0  0
   -1.5126    0.2133    0.1057 N   0  0  0  0  0  0  0  0  0  0  0  0
   -2.0715    0.3191   -0.7372 H   0  0  0  0  0  0  0  0  0  0  0  0
   -0.1504    0.7771    0.0561 C   0  0  1  0  0  0  0  0  0  0  0  0
    0.2527    0.8765    1.0691 H   0  0  0  0  0  0  0  0  0  0  0  0
    0.8110   -0.1038   -0.7855 C   0  0  0  0  0  0  0  0  0  0  0  0
    0.4057   -0.2076   -1.7981 H   0  0  0  0  0  0  0  0  0  0  0  0
    1.7793    0.4001   -0.8740 H   0  0  0  0  0  0  0  0  0  0  0  0
    1.0426   -1.4785   -0.2167 C   0  0  0  0  0  0  0  0  0  0  0  0
    1.8133   -1.8316    0.8675 N   0  0  0  0  0  0  0  0  0  0  0  0
    2.2550   -1.1942    1.5258 H   0  0  0  0  0  0  0  0  0  0  0  0
    1.7669   -3.2065    1.0026 C   0  0  0  0  0  0  0  0  0  0  0  0
    2.2539   -3.7711    1.7925 H   0  0  0  0  0  0  0  0  0  0  0  0
    1.0522   -3.7357    0.0377 N   0  0  0  0  0  0  0  0  0  0  0  0
    0.6025   -2.6695   -0.7316 C   0  0  0  0  0  0  0  0  0  0  0  0
   -0.0136   -2.7685   -1.6202 H   0  0  0  0  0  0  0  0  0  0  0  0
   -0.2139    2.1843   -0.5793 C   0  0  0  0  0  0  0  0  0  0  0  0
    0.0969    2.3897   -1.7463 O   0  0  0  0  0  0  0  0  0  0  0  0
   -0.7080    3.2337    0.1731 N   0  0  0  0  0  0  0  0  0  0  0  0
   -1.0329    3.0189    1.1125 H   0  0  0  0  0  0  0  0  0  0  0  0
   -0.8783    4.5868   -0.3430 C   0  0  0  0  0  0  0  0  0  0  0  0
   -1.5938    4.5941   -1.1719 H   0  0  0  0  0  0  0  0  0  0  0  0
   -1.2536    5.2471    0.4447 H   0  0  0  0  0  0  0  0  0  0  0  0
    0.0780    4.9844   -0.6993 H   0  0  0  0  0  0  0  0  0  0  0  0
  1  2  1  0  0  0  0
  2  3  1  0  0  0  0
  2  4  1  0  0  0  0
  2  5  1  0  0  0  0
  5  6  2  0  0  0  0
  5  7  1  0  0  0  0
  7  8  1  0  0  0  0
  7  9  1  0  0  0  0
  9 10  1  0  0  0  0
  9 11  1  0  0  0  0
  9 22  1  0  0  0  0
 11 12  1  0  0  0  0
 11 13  1  0  0  0  0
 11 14  1  0  0  0  0
 14 15  1  0  0  0  0
 14 20  2  0  0  0  0
 15 16  1  0  0  0  0
 15 17  1  0  0  0  0
 17 18  1  0  0  0  0
 17 19  2  0  0  0  0
 19 20  1  0  0  0  0
 20 21  1  0  0  0  0
 22 23  2  0  0  0  0
 22 24  1  0  0  0  0
 24 25  1  0  0  0  0
 24 26  1  0  0  0  0
 26 27  1  0  0  0  0
 26 28  1  0  0  0  0
 26 29  1  0  0  0  0
M  END
$$$$

  -OEChem-01062216083D

 29 29  0     1  0  0  0  0  0999 V2000
   -3.1393   -2.5615    1.2269 H   0  0  0  0  0  0  0  0  0  0  0  0
   -3.0455   -1.7266    0.5266 C   0  0  0  0  0  0  0  0  0  0  0  0
   -3.9549   -1.1229    0.5719 H   0  0  0  0  0  0  0  0  0  0  0  0
   -2.9306   -2.1288   -0.4828 H   0  0  0  0  0  0  0  0  0  0  0  0
   -1.8403   -0.8790    0.8863 C   0  0  0  0  0  0  0  0  0  0  0  0
   -1.2168   -1.1056    1.9118 O   0  0  0  0  0  0  0  0  0  0  0  0
   -1.5047    0.2134    0.1106 N   0  0  0  0  0  0  0  0  0  0  0  0
   -2.0615    0.3343   -0.7321 H   0  0  0  0  0  0  0  0  0  0  0  0
   -0.1425    0.7745    0.0733 C   0  0  1  0  0  0  0  0  0  0  0  0
    0.2548    0.8667    1.0893 H   0  0  0  0  0  0  0  0  0  0  0  0
    0.8239   -0.0965   -0.7707 C   0  0  0  0  0  0  0  0  0  0  0  0
    0.4251   -0.1928   -1.7867 H   0  0  0  0  0  0  0  0  0  0  0  0
    1.7918    0.4093   -0.8494 H   0  0  0  0  0  0  0  0  0  0  0  0
    1.0512   -1.4768   -0.2136 C   0  0  0  0  0  0  0  0  0  0  0  0
    1.8133   -1.8448    0.8719 N   0  0  0  0  0  0  0  0  0  0  0  0
    2.2483   -1.2170    1.5435 H   0  0  0  0  0  0  0  0  0  0  0  0
    1.7621   -3.2213    0.9899 C   0  0  0  0  0  0  0  0  0  0  0  0
    2.2412   -3.7969    1.7767 H   0  0  0  0  0  0  0  0  0  0  0  0
    1.0537   -3.7369    0.0133 N   0  0  0  0  0  0  0  0  0  0  0  0
    0.6114   -2.6603   -0.7457 C   0  0  0  0  0  0  0  0  0  0  0  0
    0.0007   -2.7467   -1.6392 H   0  0  0  0  0  0  0  0  0  0  0  0
   -0.1945    2.1800   -0.5626 C   0  0  0  0  0  0  0  0  0  0  0  0
   -0.1546    2.3337   -1.7775 O   0  0  0  0  0  0  0  0  0  0  0  0
   -0.3872    3.2846    0.2464 N   0  0  0  0  0  0  0  0  0  0  0  0
   -0.5307    3.1154    1.2386 H   0  0  0  0  0  0  0  0  0  0  0  0
   -0.5517    4.6387   -0.2693 C   0  0  0  0  0  0  0  0  0  0  0  0
   -1.4546    4.7075   -0.8850 H   0  0  0  0  0  0  0  0  0  0  0  0
   -0.6403    5.3501    0.5574 H   0  0  0  0  0  0  0  0  0  0  0  0
    0.3126    4.9245   -0.8781 H   0  0  0  0  0  0  0  0  0  0  0  0
  1  2  1  0  0  0  0
  2  3  1  0  0  0  0
  2  4  1  0  0  0  0
  2  5  1  0  0  0  0
  5  6  2  0  0  0  0
  5  7  1  0  0  0  0
  7  8  1  0  0  0  0
  7  9  1  0  0  0  0
  9 10  1  0  0  0  0
  9 11  1  0  0  0  0
  9 22  1  0  0  0  0
 11 12  1  0  0  0  0
 11 13  1  0  0  0  0
 11 14  1  0  0  0  0
 14 15  1  0  0  0  0
 14 20  2  0  0  0  0
 15 16  1  0  0  0  0
 15 17  1  0  0  0  0
 17 18  1  0  0  0  0
 17 19  2  0  0  0  0
 19 20  1  0  0  0  0
 20 21  1  0  0  0  0
 22 23  2  0  0  0  0
 22 24  1  0  0  0  0
 24 25  1  0  0  0  0
 24 26  1  0  0  0  0
 26 27  1  0  0  0  0
 26 28  1  0  0  0  0
 26 29  1  0  0  0  0
M  END
$$$$

  -OEChem-01062216083D

 29 29  0     1  0  0  0  0  0999 V2000
   -3.1194   -2.5870    1.1742 H   0  0  0  0  0  0  0  0  0  0  0  0
   -3.0599   -1.7086    0.5253 C   0  0  0  0  0  0  0  0  0  0  0  0
   -3.9680   -1.1141    0.6491 H   0  0  0  0  0  0  0  0  0  0  0  0
   -2.9891   -2.0452   -0.5118 H   0  0  0  0  0  0  0  0  0  0  0  0
   -1.8431   -0.8782    0.8849 C   0  0  0  0  0  0  0  0  0  0  0  0
   -1.2178   -1.1194    1.9062 O   0  0  0  0  0  0  0  0  0  0  0  0
   -1.4936    0.2100    0.1100 N   0  0  0  0  0  0  0  0  0  0  0  0
   -2.0520    0.3516   -0.7290 H   0  0  0  0  0  0  0  0  0  0  0  0
   -0.1317    0.7699    0.0830 C   0  0  1  0  0  0  0  0  0  0  0  0
    0.2586    0.8593    1.1020 H   0  0  0  0  0  0  0  0  0  0  0  0
    0.8384   -0.0922   -0.7630 C   0  0  0  0  0  0  0  0  0  0  0  0
    0.4448   -0.1798   -1.7819 H   0  0  0  0  0  0  0  0  0  0  0  0
    1.8071    0.4134   -0.8325 H   0  0  0  0  0  0  0  0  0  0  0  0
    1.0592   -1.4758   -0.2116 C   0  0  0  0  0  0  0  0  0  0  0  0
    1.8133   -1.8512    0.8772 N   0  0  0  0  0  0  0  0  0  0  0  0
    2.2451   -1.2280    1.5551 H   0  0  0  0  0  0  0  0  0  0  0  0
    1.7527   -3.2276    0.9913 C   0  0  0  0  0  0  0  0  0  0  0  0
    2.2226   -3.8079    1.7801 H   0  0  0  0  0  0  0  0  0  0  0  0
    1.0481   -3.7365    0.0084 N   0  0  0  0  0  0  0  0  0  0  0  0
    0.6158   -2.6554   -0.7498 C   0  0  0  0  0  0  0  0  0  0  0  0
    0.0090   -2.7361   -1.6464 H   0  0  0  0  0  0  0  0  0  0  0  0
   -0.1754    2.1707   -0.5593 C   0  0  0  0  0  0  0  0  0  0  0  0
   -0.4048    2.3010   -1.7560 O   0  0  0  0  0  0  0  0  0  0  0  0
   -0.0608    3.2980    0.2332 N   0  0  0  0  0  0  0  0  0  0  0  0
    0.0123    3.1581    1.2373 H   0  0  0  0  0  0  0  0  0  0  0  0
   -0.2109    4.6549   -0.2790 C   0  0  0  0  0  0  0  0  0  0  0  0
   -1.2169    4.8017   -0.6860 H   0  0  0  0  0  0  0  0  0  0  0  0
   -0.0521    5.3818    0.5233 H   0  0  0  0  0  0  0  0  0  0  0  0
    0.5212    4.8492   -1.0698 H   0  0  0  0  0  0  0  0  0  0  0  0
  1  2  1  0  0  0  0
  2  3  1  0  0  0  0
  2  4  1  0  0  0  0
  2  5  1  0  0  0  0
  5  6  2  0  0  0  0
  5  7  1  0  0  0  0
  7  8  1  0  0  0  0
  7  9  1  0  0  0  0
  9 10  1  0  0  0  0
  9 11  1  0  0  0  0
  9 22  1  0  0  0  0
 11 12  1  0  0  0  0
 11 13  1  0  0  0  0
 11 14  1  0  0  0  0
 14 15  1  0  0  0  0
 14 20  2  0  0  0  0
 15 16  1  0  0  0  0
 15 17  1  0  0  0  0
 17 18  1  0  0  0  0
 17 19  2  0  0  0  0
 19 20  1  0  0  0  0
 20 21  1  0  0  0  0
 22 23  2  0  0  0  0
 22 24  1  0  0  0  0
 24 25  1  0  0  0  0
 24 26  1  0  0  0  0
 26 27  1  0  0  0  0
 26 28  1  0  0  0  0
 26 29  1  0  0  0  0
M  END
$$$$

  -OEChem-01062216083D

 29 29  0     1  0  0  0  0  0999 V2000
   -3.1562   -2.5684    1.1896 H   0  0  0  0  0  0  0  0  0  0  0  0
   -3.0805   -1.6984    0.5312 C   0  0  0  0  0  0  0  0  0  0  0  0
   -3.9787   -1.0874    0.6460 H   0  0  0  0  0  0  0  0  0  0  0  0
   -3.0119   -2.0470   -0.5021 H   0  0  0  0  0  0  0  0  0  0  0  0
   -1.8514   -0.8842    0.8852 C   0  0  0  0  0  0  0  0  0  0  0  0
   -1.2206   -1.1386    1.9000 O   0  0  0  0  0  0  0  0  0  0  0  0
   -1.4930    0.2002    0.1094 N   0  0  0  0  0  0  0  0  0  0  0  0
   -2.0576    0.3639   -0.7219 H   0  0  0  0  0  0  0  0  0  0  0  0
   -0.1342    0.7668    0.0926 C   0  0  1  0  0  0  0  0  0  0  0  0
    0.2466    0.8573    1.1149 H   0  0  0  0  0  0  0  0  0  0  0  0
    0.8423   -0.0844   -0.7541 C   0  0  0  0  0  0  0  0  0  0  0  0
    0.4517   -0.1650   -1.7748 H   0  0  0  0  0  0  0  0  0  0  0  0
    1.8099    0.4243   -0.8164 H   0  0  0  0  0  0  0  0  0  0  0  0
    1.0665   -1.4705   -0.2110 C   0  0  0  0  0  0  0  0  0  0  0  0
    1.8171   -1.8508    0.8784 N   0  0  0  0  0  0  0  0  0  0  0  0
    2.2443   -1.2311    1.5622 H   0  0  0  0  0  0  0  0  0  0  0  0
    1.7592   -3.2280    0.9841 C   0  0  0  0  0  0  0  0  0  0  0  0
    2.2264   -3.8119    1.7718 H   0  0  0  0  0  0  0  0  0  0  0  0
    1.0611   -3.7328   -0.0054 N   0  0  0  0  0  0  0  0  0  0  0  0
    0.6278   -2.6480   -0.7579 C   0  0  0  0  0  0  0  0  0  0  0  0
    0.0236   -2.7248   -1.6567 H   0  0  0  0  0  0  0  0  0  0  0  0
   -0.1723    2.1625   -0.5586 C   0  0  0  0  0  0  0  0  0  0  0  0
   -0.6196    2.2991   -1.6916 O   0  0  0  0  0  0  0  0  0  0  0  0
    0.2331    3.2778    0.1517 N   0  0  0  0  0  0  0  0  0  0  0  0
    0.5015    3.1442    1.1227 H   0  0  0  0  0  0  0  0  0  0  0  0
    0.1380    4.6358   -0.3709 C   0  0  0  0  0  0  0  0  0  0  0  0
   -0.9073    4.9009   -0.5614 H   0  0  0  0  0  0  0  0  0  0  0  0
    0.5506    5.3482    0.3499 H   0  0  0  0  0  0  0  0  0  0  0  0
    0.7009    4.7274   -1.3058 H   0  0  0  0  0  0  0  0  0  0  0  0
  1  2  1  0  0  0  0
  2  3  1  0  0  0  0
  2  4  1  0  0  0  0
  2  5  1  0  0  0  0
  5  6  2  0  0  0  0
  5  7  1  0  0  0  0
  7  8  1  0  0  0  0
  7  9  1  0  0  0  0
  9 10  1  0  0  0  0
  9 11  1  0  0  0  0
  9 22  1  0  0  0  0
 11 12  1  0  0  0  0
 11 13  1  0  0  0  0
 11 14  1  0  0  0  0
 14 15  1  0  0  0  0
 14 20  2  0  0  0  0
 15 16  1  0  0  0  0
 15 17  1  0  0  0  0
 17 18  1  0  0  0  0
 17 19  2  0  0  0  0
 19 20  1  0  0  0  0
 20 21  1  0  0  0  0
 22 23  2  0  0  0  0
 22 24  1  0  0  0  0
 24 25  1  0  0  0  0
 24 26  1  0  0  0  0
 26 27  1  0  0  0  0
 26 28  1  0  0  0  0
 26 29  1  0  0  0  0
M  END
$$$$

  -OEChem-01062216083D

 29 29  0     1  0  0  0  0  0999 V2000
   -3.2324   -2.5123    1.2474 H   0  0  0  0  0  0  0  0  0  0  0  0
   -3.1127   -1.6820    0.5459 C   0  0  0  0  0  0  0  0  0  0  0  0
   -3.9905   -1.0349    0.6097 H   0  0  0  0  0  0  0  0  0  0  0  0
   -3.0375   -2.0868   -0.4661 H   0  0  0  0  0  0  0  0  0  0  0  0
   -1.8614   -0.8941    0.8819 C   0  0  0  0  0  0  0  0  0  0  0  0
   -1.2191   -1.1662    1.8850 O   0  0  0  0  0  0  0  0  0  0  0  0
   -1.4949    0.1869    0.1055 N   0  0  0  0  0  0  0  0  0  0  0  0
   -2.0727    0.3807   -0.7106 H   0  0  0  0  0  0  0  0  0  0  0  0
   -0.1406    0.7641    0.0976 C   0  0  1  0  0  0  0  0  0  0  0  0
    0.2315    0.8591    1.1226 H   0  0  0  0  0  0  0  0  0  0  0  0
    0.8438   -0.0765   -0.7483 C   0  0  0  0  0  0  0  0  0  0  0  0
    0.4567   -0.1523   -1.7707 H   0  0  0  0  0  0  0  0  0  0  0  0
    1.8089    0.4377   -0.8042 H   0  0  0  0  0  0  0  0  0  0  0  0
    1.0757   -1.4637   -0.2117 C   0  0  0  0  0  0  0  0  0  0  0  0
    1.8250   -1.8450    0.8785 N   0  0  0  0  0  0  0  0  0  0  0  0
    2.2384   -1.2267    1.5719 H   0  0  0  0  0  0  0  0  0  0  0  0
    1.7796   -3.2235    0.9733 C   0  0  0  0  0  0  0  0  0  0  0  0
    2.2482   -3.8088    1.7591 H   0  0  0  0  0  0  0  0  0  0  0  0
    1.0918   -3.7274   -0.0237 N   0  0  0  0  0  0  0  0  0  0  0  0
    0.6508   -2.6411   -0.7697 C   0  0  0  0  0  0  0  0  0  0  0  0
    0.0527   -2.7172   -1.6729 H   0  0  0  0  0  0  0  0  0  0  0  0
   -0.1749    2.1557   -0.5630 C   0  0  0  0  0  0  0  0  0  0  0  0
   -0.8088    2.3254   -1.5987 O   0  0  0  0  0  0  0  0  0  0  0  0
    0.4934    3.2228    0.0096 N   0  0  0  0  0  0  0  0  0  0  0  0
    0.9491    3.0685    0.9045 H   0  0  0  0  0  0  0  0  0  0  0  0
    0.4561    4.5744   -0.5364 C   0  0  0  0  0  0  0  0  0  0  0  0
   -0.5693    4.9588   -0.5369 H   0  0  0  0  0  0  0  0  0  0  0  0
    1.0765    5.2439    0.0672 H   0  0  0  0  0  0  0  0  0  0  0  0
    0.8370    4.5845   -1.5631 H   0  0  0  0  0  0  0  0  0  0  0  0
  1  2  1  0  0  0  0
  2  3  1  0  0  0  0
  2  4  1  0  0  0  0
  2  5  1  0  0  0  0
  5  6  2  0  0  0  0
  5  7  1  0  0  0  0
  7  8  1  0  0  0  0
  7  9  1  0  0  0  0
  9 10  1  0  0  0  0
  9 11  1  0  0  0  0
  9 22  1  0  0  0  0
 11 12  1  0  0  0  0
 11 13  1  0  0  0  0
 11 14  1  0  0  0  0
 14 15  1  0  0  0  0
 14 20  2  0  0  0  0
 15 16  1  0  0  0  0
 15 17  1  0  0  0  0
 17 18  1  0  0  0  0
 17 19  2  0  0  0  0
 19 20  1  0  0  0  0
 20 21  1  0  0  0  0
 22 23  2  0  0  0  0
 22 24  1  0  0  0  0
 24 25  1  0  0  0  0
 24 26  1  0  0  0  0
 26 27  1  0  0  0  0
 26 28  1  0  0  0  0
 26 29  1  0  0  0  0
M  END
$$$$

  -OEChem-01062216083D

 29 29  0     1  0  0  0  0  0999 V2000
   -3.2454   -2.5323    1.2049 H   0  0  0  0  0  0  0  0  0  0  0  0
   -3.1501   -1.6599    0.5524 C   0  0  0  0  0  0  0  0  0  0  0  0
   -4.0140   -1.0084    0.7030 H   0  0  0  0  0  0  0  0  0  0  0  0
   -3.1333   -1.9995   -0.4858 H   0  0  0  0  0  0  0  0  0  0  0  0
   -1.8727   -0.9081    0.8720 C   0  0  0  0  0  0  0  0  0  0  0  0
   -1.2206   -1.2048    1.8615 O   0  0  0  0  0  0  0  0  0  0  0  0
   -1.4966    0.1712    0.0982 N   0  0  0  0  0  0  0  0  0  0  0  0
   -2.0981    0.4106   -0.6885 H   0  0  0  0  0  0  0  0  0  0  0  0
   -0.1483    0.7629    0.0988 C   0  0  1  0  0  0  0  0  0  0  0  0
    0.2145    0.8657    1.1265 H   0  0  0  0  0  0  0  0  0  0  0  0
    0.8464   -0.0707   -0.7416 C   0  0  0  0  0  0  0  0  0  0  0  0
    0.4634   -0.1487   -1.7655 H   0  0  0  0  0  0  0  0  0  0  0  0
    1.8082    0.4497   -0.7939 H   0  0  0  0  0  0  0  0  0  0  0  0
    1.0895   -1.4563   -0.2058 C   0  0  0  0  0  0  0  0  0  0  0  0
    1.8380   -1.8343    0.8863 N   0  0  0  0  0  0  0  0  0  0  0  0
    2.2354   -1.2152    1.5883 H   0  0  0  0  0  0  0  0  0  0  0  0
    1.8088   -3.2139    0.9736 C   0  0  0  0  0  0  0  0  0  0  0  0
    2.2813   -3.7977    1.7582 H   0  0  0  0  0  0  0  0  0  0  0  0
    1.1320   -3.7209   -0.0291 N   0  0  0  0  0  0  0  0  0  0  0  0
    0.6801   -2.6359   -0.7704 C   0  0  0  0  0  0  0  0  0  0  0  0
    0.0876   -2.7137   -1.6769 H   0  0  0  0  0  0  0  0  0  0  0  0
   -0.1839    2.1517   -0.5705 C   0  0  0  0  0  0  0  0  0  0  0  0
   -0.9799    2.3774   -1.4758 O   0  0  0  0  0  0  0  0  0  0  0  0
    0.7033    3.1403   -0.1839 N   0  0  0  0  0  0  0  0  0  0  0  0
    1.3205    2.9419    0.5983 H   0  0  0  0  0  0  0  0  0  0  0  0
    0.7229    4.4731   -0.7751 C   0  0  0  0  0  0  0  0  0  0  0  0
   -0.2260    4.9877   -0.5909 H   0  0  0  0  0  0  0  0  0  0  0  0
    1.5305    5.0689   -0.3391 H   0  0  0  0  0  0  0  0  0  0  0  0
    0.8865    4.4111   -1.8563 H   0  0  0  0  0  0  0  0  0  0  0  0
  1  2  1  0  0  0  0
  2  3  1  0  0  0  0
  2  4  1  0  0  0  0
  2  5  1  0  0  0  0
  5  6  2  0  0  0  0
  5  7  1  0  0  0  0
  7  8  1  0  0  0  0
  7  9  1  0  0  0  0
  9 10  1  0  0  0  0
  9 11  1  0  0  0  0
  9 22  1  0  0  0  0
 11 12  1  0  0  0  0
 11 13  1  0  0  0  0
 11 14  1  0  0  0  0
 14 15  1  0  0  0  0
 14 20  2  0  0  0  0
 15 16  1  0  0  0  0
 15 17  1  0  0  0  0
 17 18  1  0  0  0  0
 17 19  2  0  0  0  0
 19 20  1  0  0  0  0
 20 21  1  0  0  0  0
 22 23  2  0  0  0  0
 22 24  1  0  0  0  0
 24 25  1  0  0  0  0
 24 26  1  0  0  0  0
 26 27  1  0  0  0  0
 26 28  1  0  0  0  0
 26 29  1  0  0  0  0
M  END
$$$$

  -OEChem-01062216083D

 29 29  0     1  0  0  0  0  0999 V2000
   -3.3036   -2.4753    1.2530 H   0  0  0  0  0  0  0  0  0  0  0  0
   -3.1729   -1.6368    0.5633 C   0  0  0  0  0  0  0  0  0  0  0  0
   -4.0130   -0.9484    0.6799 H   0  0  0  0  0  0  0  0  0  0  0  0
   -3.1636   -2.0222   -0.4588 H   0  0  0  0  0  0  0  0  0  0  0  0
   -1.8698   -0.9189    0.8574 C   0  0  0  0  0  0  0  0  0  0  0  0
   -1.2052   -1.2368    1.8318 O   0  0  0  0  0  0  0  0  0  0  0  0
   -1.4877    0.1598    0.0856 N   0  0  0  0  0  0  0  0  0  0  0  0
   -2.1147    0.4469   -0.6648 H   0  0  0  0  0  0  0  0  0  0  0  0
   -0.1438    0.7626    0.0910 C   0  0  1  0  0  0  0  0  0  0  0  0
    0.2158    0.8715    1.1191 H   0  0  0  0  0  0  0  0  0  0  0  0
    0.8532   -0.0735   -0.7475 C   0  0  0  0  0  0  0  0  0  0  0  0
    0.4683   -0.1539   -1.7705 H   0  0  0  0  0  0  0  0  0  0  0  0
    1.8156    0.4449   -0.8031 H   0  0  0  0  0  0  0  0  0  0  0  0
    1.1011   -1.4578   -0.2100 C   0  0  0  0  0  0  0  0  0  0  0  0
    1.8522   -1.8311    0.8820 N   0  0  0  0  0  0  0  0  0  0  0  0
    2.2455   -1.2093    1.5838 H   0  0  0  0  0  0  0  0  0  0  0  0
    1.8246   -3.2104    0.9742 C   0  0  0  0  0  0  0  0  0  0  0  0
    2.2972   -3.7907    1.7614 H   0  0  0  0  0  0  0  0  0  0  0  0
    1.1498   -3.7223   -0.0273 N   0  0  0  0  0  0  0  0  0  0  0  0
    0.6941   -2.6403   -0.7708 C   0  0  0  0  0  0  0  0  0  0  0  0
    0.1000   -2.7228   -1.6760 H   0  0  0  0  0  0  0  0  0  0  0  0
   -0.1834    2.1512   -0.5844 C   0  0  0  0  0  0  0  0  0  0  0  0
   -1.1161    2.4554   -1.3207 O   0  0  0  0  0  0  0  0  0  0  0  0
    0.8681    3.0377   -0.4288 N   0  0  0  0  0  0  0  0  0  0  0  0
    1.6112    2.7809    0.2145 H   0  0  0  0  0  0  0  0  0  0  0  0
    0.8999    4.3578   -1.0479 C   0  0  0  0  0  0  0  0  0  0  0  0
    0.0519    4.9615   -0.7075 H   0  0  0  0  0  0  0  0  0  0  0  0
    1.8245    4.8787   -0.7808 H   0  0  0  0  0  0  0  0  0  0  0  0
    0.8558    4.2710   -2.1388 H   0  0  0  0  0  0  0  0  0  0  0  0
  1  2  1  0  0  0  0
  2  3  1  0  0  0  0
  2  4  1  0  0  0  0
  2  5  1  0  0  0  0
  5  6  2  0  0  0  0
  5  7  1  0  0  0  0
  7  8  1  0  0  0  0
  7  9  1  0  0  0  0
  9 10  1  0  0  0  0
  9 11  1  0  0  0  0
  9 22  1  0  0  0  0
 11 12  1  0  0  0  0
 11 13  1  0  0  0  0
 11 14  1  0  0  0  0
 14 15  1  0  0  0  0
 14 20  2  0  0  0  0
 15 16  1  0  0  0  0
 15 17  1  0  0  0  0
 17 18  1  0  0  0  0
 17 19  2  0  0  0  0
 19 20  1  0  0  0  0
 20 21  1  0  0  0  0
 22 23  2  0  0  0  0
 22 24  1  0  0  0  0
 24 25  1  0  0  0  0
 24 26  1  0  0  0  0
 26 27  1  0  0  0  0
 26 28  1  0  0  0  0
 26 29  1  0  0  0  0
M  END
$$$$

  -OEChem-01062216083D

 29 29  0     1  0  0  0  0  0999 V2000
   -3.2854   -2.4970    1.2052 H   0  0  0  0  0  0  0  0  0  0  0  0
   -3.1894   -1.5954    0.5936 C   0  0  0  0  0  0  0  0  0  0  0  0
   -3.9315   -0.8639    0.9223 H   0  0  0  0  0  0  0  0  0  0  0  0
   -3.3812   -1.8570   -0.4497 H   0  0  0  0  0  0  0  0  0  0  0  0
   -1.7945   -1.0167    0.7322 C   0  0  0  0  0  0  0  0  0  0  0  0
   -1.0188   -1.4894    1.5495 O   0  0  0  0  0  0  0  0  0  0  0  0
   -1.4342    0.0859   -0.0163 N   0  0  0  0  0  0  0  0  0  0  0  0
   -2.1663    0.5629   -0.5405 H   0  0  0  0  0  0  0  0  0  0  0  0
   -0.1042    0.7164    0.0107 C   0  0  1  0  0  0  0  0  0  0  0  0
    0.3588    0.5912    0.9947 H   0  0  0  0  0  0  0  0  0  0  0  0
    0.7915    0.0913   -1.0824 C   0  0  0  0  0  0  0  0  0  0  0  0
    0.3047    0.2199   -2.0554 H   0  0  0  0  0  0  0  0  0  0  0  0
    1.7527    0.6118   -1.1264 H   0  0  0  0  0  0  0  0  0  0  0  0
    1.0634   -1.3720   -0.8532 C   0  0  0  0  0  0  0  0  0  0  0  0
    1.9094   -1.9512    0.0660 N   0  0  0  0  0  0  0  0  0  0  0  0
    2.3810   -1.4783    0.8328 H   0  0  0  0  0  0  0  0  0  0  0  0
    1.8629   -3.3221   -0.1074 C   0  0  0  0  0  0  0  0  0  0  0  0
    2.4006   -4.0446    0.5000 H   0  0  0  0  0  0  0  0  0  0  0  0
    1.0789   -3.6287   -1.1133 N   0  0  0  0  0  0  0  0  0  0  0  0
    0.5728   -2.4227   -1.5834 C   0  0  0  0  0  0  0  0  0  0  0  0
   -0.1140   -2.3272   -2.4189 H   0  0  0  0  0  0  0  0  0  0  0  0
   -0.2184    2.2308   -0.2813 C   0  0  0  0  0  0  0  0  0  0  0  0
   -1.3031    2.7252   -0.5701 O   0  0  0  0  0  0  0  0  0  0  0  0
    0.9072    3.0366   -0.3064 N   0  0  0  0  0  0  0  0  0  0  0  0
    1.7917    2.6212   -0.0295 H   0  0  0  0  0  0  0  0  0  0  0  0
    0.8617    4.4668   -0.5890 C   0  0  0  0  0  0  0  0  0  0  0  0
    0.2756    4.9892    0.1744 H   0  0  0  0  0  0  0  0  0  0  0  0
    1.8733    4.8838   -0.5952 H   0  0  0  0  0  0  0  0  0  0  0  0
    0.4083    4.6513   -1.5688 H   0  0  0  0  0  0  0  0  0  0  0  0
  1  2  1  0  0  0  0
  2  3  1  0  0  0  0
  2  4  1  0  0  0  0
  2  5  1  0  0  0  0
  5  6  2  0  0  0  0
  5  7  1  0  0  0  0
  7  8  1  0  0  0  0
  7  9  1  0  0  0  0
  9 10  1  0  0  0  0
  9 11  1  0  0  0  0
  9 22  1  0  0  0  0
 11 12  1  0  0  0  0
 11 13  1  0  0  0  0
 11 14  1  0  0  0  0
 14 15  1  0  0  0  0
 14 20  2  0  0  0  0
 15 16  1  0  0  0  0
 15 17  1  0  0  0  0
 17 18  1  0  0  0  0
 17 19  2  0  0  0  0
 19 20  1  0  0  0  0
 20 21  1  0  0  0  0
 22 23  2  0  0  0  0
 22 24  1  0  0  0  0
 24 25  1  0  0  0  0
 24 26  1  0  0  0  0
 26 27  1  0  0  0  0
 26 28  1  0  0  0  0
 26 29  1  0  0  0  0
M  END
$$$$

  -OEChem-01062216083D

 29 29  0     1  0  0  0  0  0999 V2000
   -3.3015   -2.4661    1.2168 H   0  0  0  0  0  0  0  0  0  0  0  0
   -3.1984   -1.5674    0.6021 C   0  0  0  0  0  0  0  0  0  0  0  0
   -3.9167   -0.8193    0.9457 H   0  0  0  0  0  0  0  0  0  0  0  0
   -3.4181   -1.8256   -0.4365 H   0  0  0  0  0  0  0  0  0  0  0  0
   -1.7881   -1.0202    0.7108 C   0  0  0  0  0  0  0  0  0  0  0  0
   -1.0055   -1.5145    1.5082 O   0  0  0  0  0  0  0  0  0  0  0  0
   -1.4252    0.0840   -0.0348 N   0  0  0  0  0  0  0  0  0  0  0  0
   -2.1710    0.6002   -0.4989 H   0  0  0  0  0  0  0  0  0  0  0  0
   -0.0934    0.7126   -0.0002 C   0  0  1  0  0  0  0  0  0  0  0  0
    0.3651    0.5899    0.9863 H   0  0  0  0  0  0  0  0  0  0  0  0
    0.8071    0.0765   -1.0866 C   0  0  0  0  0  0  0  0  0  0  0  0
    0.3287    0.2051   -2.0638 H   0  0  0  0  0  0  0  0  0  0  0  0
    1.7737    0.5866   -1.1249 H   0  0  0  0  0  0  0  0  0  0  0  0
    1.0749   -1.3866   -0.8532 C   0  0  0  0  0  0  0  0  0  0  0  0
    1.9156   -1.9655    0.0710 N   0  0  0  0  0  0  0  0  0  0  0  0
    2.3811   -1.4922    0.8416 H   0  0  0  0  0  0  0  0  0  0  0  0
    1.8665   -3.3366   -0.1001 C   0  0  0  0  0  0  0  0  0  0  0  0
    2.3985   -4.0594    0.5117 H   0  0  0  0  0  0  0  0  0  0  0  0
    1.0882   -3.6436   -1.1104 N   0  0  0  0  0  0  0  0  0  0  0  0
    0.5859   -2.4376   -1.5840 C   0  0  0  0  0  0  0  0  0  0  0  0
   -0.0968   -2.3425   -2.4228 H   0  0  0  0  0  0  0  0  0  0  0  0
   -0.2169    2.2299   -0.2903 C   0  0  0  0  0  0  0  0  0  0  0  0
   -1.3228    2.7591   -0.3277 O   0  0  0  0  0  0  0  0  0  0  0  0
    0.8877    3.0000   -0.6162 N   0  0  0  0  0  0  0  0  0  0  0  0
    1.8025    2.5626   -0.5594 H   0  0  0  0  0  0  0  0  0  0  0  0
    0.8094    4.4218   -0.9329 C   0  0  0  0  0  0  0  0  0  0  0  0
    0.4423    4.9869   -0.0696 H   0  0  0  0  0  0  0  0  0  0  0  0
    1.7985    4.8046   -1.2027 H   0  0  0  0  0  0  0  0  0  0  0  0
    0.1333    4.5906   -1.7779 H   0  0  0  0  0  0  0  0  0  0  0  0
  1  2  1  0  0  0  0
  2  3  1  0  0  0  0
  2  4  1  0  0  0  0
  2  5  1  0  0  0  0
  5  6  2  0  0  0  0
  5  7  1  0  0  0  0
  7  8  1  0  0  0  0
  7  9  1  0  0  0  0
  9 10  1  0  0  0  0
  9 11  1  0  0  0  0
  9 22  1  0  0  0  0
 11 12  1  0  0  0  0
 11 13  1  0  0  0  0
 11 14  1  0  0  0  0
 14 15  1  0  0  0  0
 14 20  2  0  0  0  0
 15 16  1  0  0  0  0
 15 17  1  0  0  0  0
 17 18  1  0  0  0  0
 17 19  2  0  0  0  0
 19 20  1  0  0  0  0
 20 21  1  0  0  0  0
 22 23  2  0  0  0  0
 22 24  1  0  0  0  0
 24 25  1  0  0  0  0
 24 26  1  0  0  0  0
 26 27  1  0  0  0  0
 26 28  1  0  0  0  0
 26 29  1  0  0  0  0
M  END
$$$$

  -OEChem-01062216083D

 29 29  0     1  0  0  0  0  0999 V2000
   -3.3172   -2.4315    1.2316 H   0  0  0  0  0  0  0  0  0  0  0  0
   -3.2071   -1.5379    0.6108 C   0  0  0  0  0  0  0  0  0  0  0  0
   -3.9029   -0.7734    0.9645 H   0  0  0  0  0  0  0  0  0  0  0  0
   -3.4519   -1.7959   -0.4223 H   0  0  0  0  0  0  0  0  0  0  0  0
   -1.7841   -1.0195    0.6908 C   0  0  0  0  0  0  0  0  0  0  0  0
   -0.9958   -1.5341    1.4692 O   0  0  0  0  0  0  0  0  0  0  0  0
   -1.4197    0.0860   -0.0526 N   0  0  0  0  0  0  0  0  0  0  0  0
   -2.1739    0.6283   -0.4701 H   0  0  0  0  0  0  0  0  0  0  0  0
   -0.0844    0.7081   -0.0181 C   0  0  1  0  0  0  0  0  0  0  0  0
    0.3703    0.5891    0.9708 H   0  0  0  0  0  0  0  0  0  0  0  0
    0.8212    0.0594   -1.0940 C   0  0  0  0  0  0  0  0  0  0  0  0
    0.3500    0.1836   -2.0751 H   0  0  0  0  0  0  0  0  0  0  0  0
    1.7910    0.5635   -1.1253 H   0  0  0  0  0  0  0  0  0  0  0  0
    1.0862   -1.4025   -0.8523 C   0  0  0  0  0  0  0  0  0  0  0  0
    1.9215   -1.9780    0.0790 N   0  0  0  0  0  0  0  0  0  0  0  0
    2.3830   -1.5019    0.8503 H   0  0  0  0  0  0  0  0  0  0  0  0
    1.8731   -3.3498   -0.0870 C   0  0  0  0  0  0  0  0  0  0  0  0
    2.4013   -4.0704    0.5309 H   0  0  0  0  0  0  0  0  0  0  0  0
    1.1016   -3.6608   -1.1014 N   0  0  0  0  0  0  0  0  0  0  0  0
    0.6020   -2.4564   -1.5821 C   0  0  0  0  0  0  0  0  0  0  0  0
   -0.0749   -2.3640   -2.4261 H   0  0  0  0  0  0  0  0  0  0  0  0
   -0.2151    2.2274   -0.3038 C   0  0  0  0  0  0  0  0  0  0  0  0
   -1.2785    2.7950   -0.0802 O   0  0  0  0  0  0  0  0  0  0  0  0
    0.7897    2.9571   -0.9197 N   0  0  0  0  0  0  0  0  0  0  0  0
    1.6706    2.4879   -1.1053 H   0  0  0  0  0  0  0  0  0  0  0  0
    0.6687    4.3730   -1.2495 C   0  0  0  0  0  0  0  0  0  0  0  0
    0.5355    4.9685   -0.3402 H   0  0  0  0  0  0  0  0  0  0  0  0
    1.5710    4.7207   -1.7618 H   0  0  0  0  0  0  0  0  0  0  0  0
   -0.1886    4.5413   -1.9100 H   0  0  0  0  0  0  0  0  0  0  0  0
  1  2  1  0  0  0  0
  2  3  1  0  0  0  0
  2  4  1  0  0  0  0
  2  5  1  0  0  0  0
  5  6  2  0  0  0  0
  5  7  1  0  0  0  0
  7  8  1  0  0  0  0
  7  9  1  0  0  0  0
  9 10  1  0  0  0  0
  9 11  1  0  0  0  0
  9 22  1  0  0  0  0
 11 12  1  0  0  0  0
 11 13  1  0  0  0  0
 11 14  1  0  0  0  0
 14 15  1  0  0  0  0
 14 20  2  0  0  0  0
 15 16  1  0  0  0  0
 15 17  1  0  0  0  0
 17 18  1  0  0  0  0
 17 19  2  0  0  0  0
 19 20  1  0  0  0  0
 20 21  1  0  0  0  0
 22 23  2  0  0  0  0
 22 24  1  0  0  0  0
 24 25  1  0  0  0  0
 24 26  1  0  0  0  0
 26 27  1  0  0  0  0
 26 28  1  0  0  0  0
 26 29  1  0  0  0  0
M  END
$$$$

  -OEChem-01062216083D

 29 29  0     1  0  0  0  0  0999 V2000
   -3.3270   -2.4088    1.2436 H   0  0  0  0  0  0  0  0  0  0  0  0
   -3.2143   -1.5186    0.6184 C   0  0  0  0  0  0  0  0  0  0  0  0
   -3.8990   -0.7461    0.9763 H   0  0  0  0  0  0  0  0  0  0  0  0
   -3.4717   -1.7782   -0.4112 H   0  0  0  0  0  0  0  0  0  0  0  0
   -1.7856   -1.0135    0.6824 C   0  0  0  0  0  0  0  0  0  0  0  0
   -0.9934   -1.5392    1.4489 O   0  0  0  0  0  0  0  0  0  0  0  0
   -1.4221    0.0921   -0.0620 N   0  0  0  0  0  0  0  0  0  0  0  0
   -2.1803    0.6410   -0.4614 H   0  0  0  0  0  0  0  0  0  0  0  0
   -0.0819    0.7050   -0.0366 C   0  0  1  0  0  0  0  0  0  0  0  0
    0.3730    0.5888    0.9527 H   0  0  0  0  0  0  0  0  0  0  0  0
    0.8278    0.0475   -1.1036 C   0  0  0  0  0  0  0  0  0  0  0  0
    0.3619    0.1631   -2.0882 H   0  0  0  0  0  0  0  0  0  0  0  0
    1.7972    0.5538   -1.1296 H   0  0  0  0  0  0  0  0  0  0  0  0
    1.0930   -1.4129   -0.8530 C   0  0  0  0  0  0  0  0  0  0  0  0
    1.9256   -1.9804    0.0853 N   0  0  0  0  0  0  0  0  0  0  0  0
    2.3776   -1.4984    0.8587 H   0  0  0  0  0  0  0  0  0  0  0  0
    1.8839   -3.3532   -0.0738 C   0  0  0  0  0  0  0  0  0  0  0  0
    2.4112   -4.0683    0.5510 H   0  0  0  0  0  0  0  0  0  0  0  0
    1.1200   -3.6723   -1.0915 N   0  0  0  0  0  0  0  0  0  0  0  0
    0.6177   -2.4726   -1.5805 C   0  0  0  0  0  0  0  0  0  0  0  0
   -0.0536   -2.3875   -2.4294 H   0  0  0  0  0  0  0  0  0  0  0  0
   -0.2138    2.2249   -0.3174 C   0  0  0  0  0  0  0  0  0  0  0  0
   -1.1650    2.8371    0.1528 O   0  0  0  0  0  0  0  0  0  0  0  0
    0.6198    2.9051   -1.1922 N   0  0  0  0  0  0  0  0  0  0  0  0
    1.3934    2.3940   -1.6057 H   0  0  0  0  0  0  0  0  0  0  0  0
    0.4593    4.3173   -1.5220 C   0  0  0  0  0  0  0  0  0  0  0  0
    0.5731    4.9353   -0.6251 H   0  0  0  0  0  0  0  0  0  0  0  0
    1.2150    4.6242   -2.2514 H   0  0  0  0  0  0  0  0  0  0  0  0
   -0.5304    4.5006   -1.9535 H   0  0  0  0  0  0  0  0  0  0  0  0
  1  2  1  0  0  0  0
  2  3  1  0  0  0  0
  2  4  1  0  0  0  0
  2  5  1  0  0  0  0
  5  6  2  0  0  0  0
  5  7  1  0  0  0  0
  7  8  1  0  0  0  0
  7  9  1  0  0  0  0
  9 10  1  0  0  0  0
  9 11  1  0  0  0  0
  9 22  1  0  0  0  0
 11 12  1  0  0  0  0
 11 13  1  0  0  0  0
 11 14  1  0  0  0  0
 14 15  1  0  0  0  0
 14 20  2  0  0  0  0
 15 16  1  0  0  0  0
 15 17  1  0  0  0  0
 17 18  1  0  0  0  0
 17 19  2  0  0  0  0
 19 20  1  0  0  0  0
 20 21  1  0  0  0  0
 22 23  2  0  0  0  0
 22 24  1  0  0  0  0
 24 25  1  0  0  0  0
 24 26  1  0  0  0  0
 26 27  1  0  0  0  0
 26 28  1  0  0  0  0
 26 29  1  0  0  0  0
M  END
$$$$

  -OEChem-01062216083D

 29 29  0     1  0  0  0  0  0999 V2000
   -3.3220   -2.4125    1.2537 H   0  0  0  0  0  0  0  0  0  0  0  0
   -3.2144   -1.5254    0.6233 C   0  0  0  0  0  0  0  0  0  0  0  0
   -3.9059   -0.7562    0.9752 H   0  0  0  0  0  0  0  0  0  0  0  0
   -3.4676   -1.7928   -0.4052 H   0  0  0  0  0  0  0  0  0  0  0  0
   -1.7895   -1.0096    0.6875 C   0  0  0  0  0  0  0  0  0  0  0  0
   -0.9935   -1.5305    1.4529 O   0  0  0  0  0  0  0  0  0  0  0  0
   -1.4332    0.0961   -0.0608 N   0  0  0  0  0  0  0  0  0  0  0  0
   -2.1920    0.6218   -0.4871 H   0  0  0  0  0  0  0  0  0  0  0  0
   -0.0919    0.7072   -0.0511 C   0  0  1  0  0  0  0  0  0  0  0  0
    0.3687    0.5928    0.9362 H   0  0  0  0  0  0  0  0  0  0  0  0
    0.8173    0.0468   -1.1160 C   0  0  0  0  0  0  0  0  0  0  0  0
    0.3464    0.1483   -2.0997 H   0  0  0  0  0  0  0  0  0  0  0  0
    1.7814    0.5643   -1.1485 H   0  0  0  0  0  0  0  0  0  0  0  0
    1.0891   -1.4104   -0.8570 C   0  0  0  0  0  0  0  0  0  0  0  0
    1.9277   -1.9642    0.0839 N   0  0  0  0  0  0  0  0  0  0  0  0
    2.3782   -1.4719    0.8518 H   0  0  0  0  0  0  0  0  0  0  0  0
    1.8939   -3.3385   -0.0625 C   0  0  0  0  0  0  0  0  0  0  0  0
    2.4276   -4.0443    0.5673 H   0  0  0  0  0  0  0  0  0  0  0  0
    1.1289   -3.6715   -1.0751 N   0  0  0  0  0  0  0  0  0  0  0  0
    0.6183   -2.4793   -1.5739 C   0  0  0  0  0  0  0  0  0  0  0  0
   -0.0561   -2.4065   -2.4218 H   0  0  0  0  0  0  0  0  0  0  0  0
   -0.2185    2.2264   -0.3288 C   0  0  0  0  0  0  0  0  0  0  0  0
   -0.9865    2.8917    0.3532 O   0  0  0  0  0  0  0  0  0  0  0  0
    0.3862    2.8462   -1.4121 N   0  0  0  0  0  0  0  0  0  0  0  0
    0.9942    2.2856   -2.0011 H   0  0  0  0  0  0  0  0  0  0  0  0
    0.2093    4.2584   -1.7324 C   0  0  0  0  0  0  0  0  0  0  0  0
    0.5784    4.8863   -0.9145 H   0  0  0  0  0  0  0  0  0  0  0  0
    0.7640    4.5127   -2.6407 H   0  0  0  0  0  0  0  0  0  0  0  0
   -0.8491    4.4846   -1.9004 H   0  0  0  0  0  0  0  0  0  0  0  0
  1  2  1  0  0  0  0
  2  3  1  0  0  0  0
  2  4  1  0  0  0  0
  2  5  1  0  0  0  0
  5  6  2  0  0  0  0
  5  7  1  0  0  0  0
  7  8  1  0  0  0  0
  7  9  1  0  0  0  0
  9 10  1  0  0  0  0
  9 11  1  0  0  0  0
  9 22  1  0  0  0  0
 11 12  1  0  0  0  0
 11 13  1  0  0  0  0
 11 14  1  0  0  0  0
 14 15  1  0  0  0  0
 14 20  2  0  0  0  0
 15 16  1  0  0  0  0
 15 17  1  0  0  0  0
 17 18  1  0  0  0  0
 17 19  2  0  0  0  0
 19 20  1  0  0  0  0
 20 21  1  0  0  0  0
 22 23  2  0  0  0  0
 22 24  1  0  0  0  0
 24 25  1  0  0  0  0
 24 26  1  0  0  0  0
 26 27  1  0  0  0  0
 26 28  1  0  0  0  0
 26 29  1  0  0  0  0
M  END
$$$$

  -OEChem-01062216083D

 29 29  0     1  0  0  0  0  0999 V2000
   -3.2940   -2.4468    1.2552 H   0  0  0  0  0  0  0  0  0  0  0  0
   -3.2010   -1.5594    0.6229 C   0  0  0  0  0  0  0  0  0  0  0  0
   -3.9173   -0.8076    0.9628 H   0  0  0  0  0  0  0  0  0  0  0  0
   -3.4328   -1.8374   -0.4079 H   0  0  0  0  0  0  0  0  0  0  0  0
   -1.7913   -1.0060    0.7049 C   0  0  0  0  0  0  0  0  0  0  0  0
   -0.9922   -1.5049    1.4813 O   0  0  0  0  0  0  0  0  0  0  0  0
   -1.4497    0.1001   -0.0504 N   0  0  0  0  0  0  0  0  0  0  0  0
   -2.2042    0.5738   -0.5388 H   0  0  0  0  0  0  0  0  0  0  0  0
   -0.1096    0.7144   -0.0640 C   0  0  1  0  0  0  0  0  0  0  0  0
    0.3628    0.6021    0.9181 H   0  0  0  0  0  0  0  0  0  0  0  0
    0.7919    0.0518   -1.1327 C   0  0  0  0  0  0  0  0  0  0  0  0
    0.3104    0.1359   -2.1125 H   0  0  0  0  0  0  0  0  0  0  0  0
    1.7495    0.5803   -1.1822 H   0  0  0  0  0  0  0  0  0  0  0  0
    1.0720   -1.4012   -0.8606 C   0  0  0  0  0  0  0  0  0  0  0  0
    1.9223   -1.9380    0.0793 N   0  0  0  0  0  0  0  0  0  0  0  0
    2.3815   -1.4324    0.8336 H   0  0  0  0  0  0  0  0  0  0  0  0
    1.8945   -3.3142   -0.0487 C   0  0  0  0  0  0  0  0  0  0  0  0
    2.4391   -4.0086    0.5845 H   0  0  0  0  0  0  0  0  0  0  0  0
    1.1203   -3.6645   -1.0487 N   0  0  0  0  0  0  0  0  0  0  0  0
    0.5995   -2.4816   -1.5585 C   0  0  0  0  0  0  0  0  0  0  0  0
   -0.0829   -2.4233   -2.4009 H   0  0  0  0  0  0  0  0  0  0  0  0
   -0.2293    2.2321   -0.3400 C   0  0  0  0  0  0  0  0  0  0  0  0
   -0.7351    2.9538    0.5076 O   0  0  0  0  0  0  0  0  0  0  0  0
    0.0934    2.7946   -1.5657 N   0  0  0  0  0  0  0  0  0  0  0  0
    0.4886    2.1873   -2.2769 H   0  0  0  0  0  0  0  0  0  0  0  0
   -0.0702    4.2126   -1.8669 C   0  0  0  0  0  0  0  0  0  0  0  0
    0.5393    4.8211   -1.1903 H   0  0  0  0  0  0  0  0  0  0  0  0
    0.2429    4.4198   -2.8947 H   0  0  0  0  0  0  0  0  0  0  0  0
   -1.1188    4.5095   -1.7591 H   0  0  0  0  0  0  0  0  0  0  0  0
  1  2  1  0  0  0  0
  2  3  1  0  0  0  0
  2  4  1  0  0  0  0
  2  5  1  0  0  0  0
  5  6  2  0  0  0  0
  5  7  1  0  0  0  0
  7  8  1  0  0  0  0
  7  9  1  0  0  0  0
  9 10  1  0  0  0  0
  9 11  1  0  0  0  0
  9 22  1  0  0  0  0
 11 12  1  0  0  0  0
 11 13  1  0  0  0  0
 11 14  1  0  0  0  0
 14 15  1  0  0  0  0
 14 20  2  0  0  0  0
 15 16  1  0  0  0  0
 15 17  1  0  0  0  0
 17 18  1  0  0  0  0
 17 19  2  0  0  0  0
 19 20  1  0  0  0  0
 20 21  1  0  0  0  0
 22 23  2  0  0  0  0
 22 24  1  0  0  0  0
 24 25  1  0  0  0  0
 24 26  1  0  0  0  0
 26 27  1  0  0  0  0
 26 28  1  0  0  0  0
 26 29  1  0  0  0  0
M  END
$$$$

  -OEChem-01062216083D

 29 29  0     1  0  0  0  0  0999 V2000
   -3.2579   -2.4947    1.2500 H   0  0  0  0  0  0  0  0  0  0  0  0
   -3.1850   -1.6011    0.6233 C   0  0  0  0  0  0  0  0  0  0  0  0
   -3.9291   -0.8742    0.9573 H   0  0  0  0  0  0  0  0  0  0  0  0
   -3.3942   -1.8807   -0.4118 H   0  0  0  0  0  0  0  0  0  0  0  0
   -1.7946   -1.0043    0.7278 C   0  0  0  0  0  0  0  0  0  0  0  0
   -0.9947   -1.4762    1.5196 O   0  0  0  0  0  0  0  0  0  0  0  0
   -1.4682    0.1023   -0.0342 N   0  0  0  0  0  0  0  0  0  0  0  0
   -2.2130    0.5200   -0.5839 H   0  0  0  0  0  0  0  0  0  0  0  0
   -0.1301    0.7215   -0.0638 C   0  0  1  0  0  0  0  0  0  0  0  0
    0.3520    0.6100    0.9139 H   0  0  0  0  0  0  0  0  0  0  0  0
    0.7680    0.0672   -1.1392 C   0  0  0  0  0  0  0  0  0  0  0  0
    0.2815    0.1441   -2.1165 H   0  0  0  0  0  0  0  0  0  0  0  0
    1.7199    0.6056   -1.1967 H   0  0  0  0  0  0  0  0  0  0  0  0
    1.0565   -1.3835   -0.8635 C   0  0  0  0  0  0  0  0  0  0  0  0
    1.9148   -1.9129    0.0733 N   0  0  0  0  0  0  0  0  0  0  0  0
    2.3797   -1.4012    0.8201 H   0  0  0  0  0  0  0  0  0  0  0  0
    1.8894   -3.2900   -0.0464 C   0  0  0  0  0  0  0  0  0  0  0  0
    2.4398   -3.9798    0.5869 H   0  0  0  0  0  0  0  0  0  0  0  0
    1.1082   -3.6476   -1.0383 N   0  0  0  0  0  0  0  0  0  0  0  0
    0.5819   -2.4690   -1.5521 C   0  0  0  0  0  0  0  0  0  0  0  0
   -0.1075   -2.4170   -2.3892 H   0  0  0  0  0  0  0  0  0  0  0  0
   -0.2482    2.2369   -0.3400 C   0  0  0  0  0  0  0  0  0  0  0  0
   -0.4359    3.0077    0.5897 O   0  0  0  0  0  0  0  0  0  0  0  0
   -0.2348    2.7486   -1.6281 N   0  0  0  0  0  0  0  0  0  0  0  0
   -0.0899    2.0990   -2.3946 H   0  0  0  0  0  0  0  0  0  0  0  0
   -0.3737    4.1692   -1.9289 C   0  0  0  0  0  0  0  0  0  0  0  0
    0.4337    4.7415   -1.4599 H   0  0  0  0  0  0  0  0  0  0  0  0
   -0.3296    4.3328   -3.0099 H   0  0  0  0  0  0  0  0  0  0  0  0
   -1.3335    4.5475   -1.5613 H   0  0  0  0  0  0  0  0  0  0  0  0
  1  2  1  0  0  0  0
  2  3  1  0  0  0  0
  2  4  1  0  0  0  0
  2  5  1  0  0  0  0
  5  6  2  0  0  0  0
  5  7  1  0  0  0  0
  7  8  1  0  0  0  0
  7  9  1  0  0  0  0
  9 10  1  0  0  0  0
  9 11  1  0  0  0  0
  9 22  1  0  0  0  0
 11 12  1  0  0  0  0
 11 13  1  0  0  0  0
 11 14  1  0  0  0  0
 14 15  1  0  0  0  0
 14 20  2  0  0  0  0
 15 16  1  0  0  0  0
 15 17  1  0  0  0  0
 17 18  1  0  0  0  0
 17 19  2  0  0  0  0
 19 20  1  0  0  0  0
 20 21  1  0  0  0  0
 22 23  2  0  0  0  0
 22 24  1  0  0  0  0
 24 25  1  0  0  0  0
 24 26  1  0  0  0  0
 26 27  1  0  0  0  0
 26 28  1  0  0  0  0
 26 29  1  0  0  0  0
M  END
$$$$

  -OEChem-01062216083D

 29 29  0     1  0  0  0  0  0999 V2000
   -3.2345   -2.5349    1.2482 H   0  0  0  0  0  0  0  0  0  0  0  0
   -3.1770   -1.6348    0.6295 C   0  0  0  0  0  0  0  0  0  0  0  0
   -3.9394   -0.9277    0.9647 H   0  0  0  0  0  0  0  0  0  0  0  0
   -3.3734   -1.9113   -0.4090 H   0  0  0  0  0  0  0  0  0  0  0  0
   -1.8002   -1.0092    0.7481 C   0  0  0  0  0  0  0  0  0  0  0  0
   -1.0006   -1.4622    1.5509 O   0  0  0  0  0  0  0  0  0  0  0  0
   -1.4844    0.0982   -0.0176 N   0  0  0  0  0  0  0  0  0  0  0  0
   -2.2242    0.4868   -0.5941 H   0  0  0  0  0  0  0  0  0  0  0  0
   -0.1493    0.7248   -0.0503 C   0  0  1  0  0  0  0  0  0  0  0  0
    0.3368    0.6123    0.9255 H   0  0  0  0  0  0  0  0  0  0  0  0
    0.7511    0.0894   -1.1328 C   0  0  0  0  0  0  0  0  0  0  0  0
    0.2664    0.1735   -2.1102 H   0  0  0  0  0  0  0  0  0  0  0  0
    1.6990    0.6360   -1.1842 H   0  0  0  0  0  0  0  0  0  0  0  0
    1.0483   -1.3614   -0.8654 C   0  0  0  0  0  0  0  0  0  0  0  0
    1.9097   -1.8947    0.0666 N   0  0  0  0  0  0  0  0  0  0  0  0
    2.3759   -1.3861    0.8148 H   0  0  0  0  0  0  0  0  0  0  0  0
    1.8861   -3.2712   -0.0607 C   0  0  0  0  0  0  0  0  0  0  0  0
    2.4387   -3.9639    0.5673 H   0  0  0  0  0  0  0  0  0  0  0  0
    1.1021   -3.6245   -1.0520 N   0  0  0  0  0  0  0  0  0  0  0  0
    0.5737   -2.4438   -1.5582 C   0  0  0  0  0  0  0  0  0  0  0  0
   -0.1199   -2.3879   -2.3914 H   0  0  0  0  0  0  0  0  0  0  0  0
   -0.2709    2.2373   -0.3285 C   0  0  0  0  0  0  0  0  0  0  0  0
   -0.1324    3.0409    0.5817 O   0  0  0  0  0  0  0  0  0  0  0  0
   -0.5669    2.7097   -1.5972 N   0  0  0  0  0  0  0  0  0  0  0  0
   -0.6569    2.0300   -2.3458 H   0  0  0  0  0  0  0  0  0  0  0  0
   -0.6895    4.1277   -1.9161 C   0  0  0  0  0  0  0  0  0  0  0  0
    0.2459    4.6530   -1.6961 H   0  0  0  0  0  0  0  0  0  0  0  0
   -0.9172    4.2584   -2.9784 H   0  0  0  0  0  0  0  0  0  0  0  0
   -1.4953    4.5840   -1.3314 H   0  0  0  0  0  0  0  0  0  0  0  0
  1  2  1  0  0  0  0
  2  3  1  0  0  0  0
  2  4  1  0  0  0  0
  2  5  1  0  0  0  0
  5  6  2  0  0  0  0
  5  7  1  0  0  0  0
  7  8  1  0  0  0  0
  7  9  1  0  0  0  0
  9 10  1  0  0  0  0
  9 11  1  0  0  0  0
  9 22  1  0  0  0  0
 11 12  1  0  0  0  0
 11 13  1  0  0  0  0
 11 14  1  0  0  0  0
 14 15  1  0  0  0  0
 14 20  2  0  0  0  0
 15 16  1  0  0  0  0
 15 17  1  0  0  0  0
 17 18  1  0  0  0  0
 17 19  2  0  0  0  0
 19 20  1  0  0  0  0
 20 21  1  0  0  0  0
 22 23  2  0  0  0  0
 22 24  1  0  0  0  0
 24 25  1  0  0  0  0
 24 26  1  0  0  0  0
 26 27  1  0  0  0  0
 26 28  1  0  0  0  0
 26 29  1  0  0  0  0
M  END
$$$$

  -OEChem-01062216083D

 29 29  0     1  0  0  0  0  0999 V2000
   -3.2264   -2.5661    1.2658 H   0  0  0  0  0  0  0  0  0  0  0  0
   -3.1751   -1.6698    0.6412 C   0  0  0  0  0  0  0  0  0  0  0  0
   -3.9497   -0.9703    0.9642 H   0  0  0  0  0  0  0  0  0  0  0  0
   -3.3579   -1.9565   -0.3970 H   0  0  0  0  0  0  0  0  0  0  0  0
   -1.8078   -1.0254    0.7684 C   0  0  0  0  0  0  0  0  0  0  0  0
   -1.0073   -1.4653    1.5773 O   0  0  0  0  0  0  0  0  0  0  0  0
   -1.5026    0.0848    0.0022 N   0  0  0  0  0  0  0  0  0  0  0  0
   -2.2419    0.4555   -0.5857 H   0  0  0  0  0  0  0  0  0  0  0  0
   -0.1725    0.7242   -0.0271 C   0  0  1  0  0  0  0  0  0  0  0  0
    0.3173    0.6086    0.9466 H   0  0  0  0  0  0  0  0  0  0  0  0
    0.7272    0.1121   -1.1209 C   0  0  0  0  0  0  0  0  0  0  0  0
    0.2388    0.2094   -2.0954 H   0  0  0  0  0  0  0  0  0  0  0  0
    1.6713    0.6656   -1.1686 H   0  0  0  0  0  0  0  0  0  0  0  0
    1.0340   -1.3393   -0.8692 C   0  0  0  0  0  0  0  0  0  0  0  0
    1.9023   -1.8727    0.0557 N   0  0  0  0  0  0  0  0  0  0  0  0
    2.3700   -1.3649    0.8036 H   0  0  0  0  0  0  0  0  0  0  0  0
    1.8899   -3.2482   -0.0824 C   0  0  0  0  0  0  0  0  0  0  0  0
    2.4520   -3.9409    0.5373 H   0  0  0  0  0  0  0  0  0  0  0  0
    1.1041   -3.6002   -1.0730 N   0  0  0  0  0  0  0  0  0  0  0  0
    0.5662   -2.4196   -1.5697 C   0  0  0  0  0  0  0  0  0  0  0  0
   -0.1287   -2.3629   -2.4019 H   0  0  0  0  0  0  0  0  0  0  0  0
   -0.2960    2.2346   -0.3056 C   0  0  0  0  0  0  0  0  0  0  0  0
    0.1408    3.0468    0.4962 O   0  0  0  0  0  0  0  0  0  0  0  0
   -0.8817    2.6905   -1.4758 N   0  0  0  0  0  0  0  0  0  0  0  0
   -1.1621    1.9986   -2.1633 H   0  0  0  0  0  0  0  0  0  0  0  0
   -0.9796    4.1042   -1.8210 C   0  0  0  0  0  0  0  0  0  0  0  0
    0.0165    4.5566   -1.8729 H   0  0  0  0  0  0  0  0  0  0  0  0
   -1.4649    4.2237   -2.7945 H   0  0  0  0  0  0  0  0  0  0  0  0
   -1.5713    4.6411   -1.0721 H   0  0  0  0  0  0  0  0  0  0  0  0
  1  2  1  0  0  0  0
  2  3  1  0  0  0  0
  2  4  1  0  0  0  0
  2  5  1  0  0  0  0
  5  6  2  0  0  0  0
  5  7  1  0  0  0  0
  7  8  1  0  0  0  0
  7  9  1  0  0  0  0
  9 10  1  0  0  0  0
  9 11  1  0  0  0  0
  9 22  1  0  0  0  0
 11 12  1  0  0  0  0
 11 13  1  0  0  0  0
 11 14  1  0  0  0  0
 14 15  1  0  0  0  0
 14 20  2  0  0  0  0
 15 16  1  0  0  0  0
 15 17  1  0  0  0  0
 17 18  1  0  0  0  0
 17 19  2  0  0  0  0
 19 20  1  0  0  0  0
 20 21  1  0  0  0  0
 22 23  2  0  0  0  0
 22 24  1  0  0  0  0
 24 25  1  0  0  0  0
 24 26  1  0  0  0  0
 26 27  1  0  0  0  0
 26 28  1  0  0  0  0
 26 29  1  0  0  0  0
M  END
$$$$

  -OEChem-01062216083D

 29 29  0     1  0  0  0  0  0999 V2000
   -3.1846   -2.6135    1.3075 H   0  0  0  0  0  0  0  0  0  0  0  0
   -3.1319   -1.7572    0.6289 C   0  0  0  0  0  0  0  0  0  0  0  0
   -3.9607   -1.0809    0.8512 H   0  0  0  0  0  0  0  0  0  0  0  0
   -3.2262   -2.1184   -0.3979 H   0  0  0  0  0  0  0  0  0  0  0  0
   -1.8095   -1.0350    0.8046 C   0  0  0  0  0  0  0  0  0  0  0  0
   -1.0205   -1.4209    1.6514 O   0  0  0  0  0  0  0  0  0  0  0  0
   -1.5303    0.0789    0.0332 N   0  0  0  0  0  0  0  0  0  0  0  0
   -2.2374    0.3539   -0.6393 H   0  0  0  0  0  0  0  0  0  0  0  0
   -0.2048    0.7320   -0.0044 C   0  0  1  0  0  0  0  0  0  0  0  0
    0.2960    0.6137    0.9633 H   0  0  0  0  0  0  0  0  0  0  0  0
    0.6828    0.1302   -1.1122 C   0  0  0  0  0  0  0  0  0  0  0  0
    0.1813    0.2333   -2.0798 H   0  0  0  0  0  0  0  0  0  0  0  0
    1.6245    0.6871   -1.1690 H   0  0  0  0  0  0  0  0  0  0  0  0
    0.9978   -1.3206   -0.8670 C   0  0  0  0  0  0  0  0  0  0  0  0
    1.8802   -1.8496    0.0468 N   0  0  0  0  0  0  0  0  0  0  0  0
    2.3647   -1.3371    0.7810 H   0  0  0  0  0  0  0  0  0  0  0  0
    1.8689   -3.2253   -0.0873 C   0  0  0  0  0  0  0  0  0  0  0  0
    2.4400   -3.9150    0.5274 H   0  0  0  0  0  0  0  0  0  0  0  0
    1.0705   -3.5812   -1.0667 N   0  0  0  0  0  0  0  0  0  0  0  0
    0.5253   -2.4028   -1.5609 C   0  0  0  0  0  0  0  0  0  0  0  0
   -0.1800   -2.3490   -2.3847 H   0  0  0  0  0  0  0  0  0  0  0  0
   -0.3125    2.2443   -0.2794 C   0  0  0  0  0  0  0  0  0  0  0  0
    0.4044    3.0271    0.3269 O   0  0  0  0  0  0  0  0  0  0  0  0
   -1.1509    2.7302   -1.2701 N   0  0  0  0  0  0  0  0  0  0  0  0
   -1.6443    2.0551   -1.8435 H   0  0  0  0  0  0  0  0  0  0  0  0
   -1.2115    4.1402   -1.6393 C   0  0  0  0  0  0  0  0  0  0  0  0
   -0.2440    4.4766   -2.0268 H   0  0  0  0  0  0  0  0  0  0  0  0
   -1.9688    4.2972   -2.4133 H   0  0  0  0  0  0  0  0  0  0  0  0
   -1.4750    4.7533   -0.7708 H   0  0  0  0  0  0  0  0  0  0  0  0
  1  2  1  0  0  0  0
  2  3  1  0  0  0  0
  2  4  1  0  0  0  0
  2  5  1  0  0  0  0
  5  6  2  0  0  0  0
  5  7  1  0  0  0  0
  7  8  1  0  0  0  0
  7  9  1  0  0  0  0
  9 10  1  0  0  0  0
  9 11  1  0  0  0  0
  9 22  1  0  0  0  0
 11 12  1  0  0  0  0
 11 13  1  0  0  0  0
 11 14  1  0  0  0  0
 14 15  1  0  0  0  0
 14 20  2  0  0  0  0
 15 16  1  0  0  0  0
 15 17  1  0  0  0  0
 17 18  1  0  0  0  0
 17 19  2  0  0  0  0
 19 20  1  0  0  0  0
 20 21  1  0  0  0  0
 22 23  2  0  0  0  0
 22 24  1  0  0  0  0
 24 25  1  0  0  0  0
 24 26  1  0  0  0  0
 26 27  1  0  0  0  0
 26 28  1  0  0  0  0
 26 29  1  0  0  0  0
M  END
$$$$

  -OEChem-01062216083D

 29 29  0     1  0  0  0  0  0999 V2000
   -3.0078   -2.7088    1.2626 H   0  0  0  0  0  0  0  0  0  0  0  0
   -2.9834   -1.8718    0.5588 C   0  0  0  0  0  0  0  0  0  0  0  0
   -3.9078   -1.2985    0.6612 H   0  0  0  0  0  0  0  0  0  0  0  0
   -2.9167   -2.2713   -0.4559 H   0  0  0  0  0  0  0  0  0  0  0  0
   -1.7863   -0.9857    0.8464 C   0  0  0  0  0  0  0  0  0  0  0  0
   -1.0578   -1.2438    1.7907 O   0  0  0  0  0  0  0  0  0  0  0  0
   -1.5454    0.1189    0.0479 N   0  0  0  0  0  0  0  0  0  0  0  0
   -2.1285    0.1727   -0.7797 H   0  0  0  0  0  0  0  0  0  0  0  0
   -0.2132    0.7596   -0.0156 C   0  0  1  0  0  0  0  0  0  0  0  0
    0.3052    0.6471    0.9432 H   0  0  0  0  0  0  0  0  0  0  0  0
    0.6404    0.1225   -1.1306 C   0  0  0  0  0  0  0  0  0  0  0  0
    0.1206    0.2197   -2.0891 H   0  0  0  0  0  0  0  0  0  0  0  0
    1.5919    0.6586   -1.2185 H   0  0  0  0  0  0  0  0  0  0  0  0
    0.9303   -1.3292   -0.8566 C   0  0  0  0  0  0  0  0  0  0  0  0
    1.8195   -1.8535    0.0533 N   0  0  0  0  0  0  0  0  0  0  0  0
    2.3400   -1.3315    0.7558 H   0  0  0  0  0  0  0  0  0  0  0  0
    1.7767   -3.2317   -0.0443 C   0  0  0  0  0  0  0  0  0  0  0  0
    2.3476   -3.9180    0.5745 H   0  0  0  0  0  0  0  0  0  0  0  0
    0.9462   -3.5947   -0.9941 N   0  0  0  0  0  0  0  0  0  0  0  0
    0.4209   -2.4181   -1.5128 C   0  0  0  0  0  0  0  0  0  0  0  0
   -0.2993   -2.3704   -2.3238 H   0  0  0  0  0  0  0  0  0  0  0  0
   -0.2893    2.2733   -0.3013 C   0  0  0  0  0  0  0  0  0  0  0  0
    0.6537    2.9910    0.0010 O   0  0  0  0  0  0  0  0  0  0  0  0
   -1.3253    2.8121   -1.0463 N   0  0  0  0  0  0  0  0  0  0  0  0
   -2.1410    2.2286   -1.1922 H   0  0  0  0  0  0  0  0  0  0  0  0
   -1.4200    4.2334   -1.3601 C   0  0  0  0  0  0  0  0  0  0  0  0
   -0.5401    4.5613   -1.9237 H   0  0  0  0  0  0  0  0  0  0  0  0
   -2.3092    4.4288   -1.9670 H   0  0  0  0  0  0  0  0  0  0  0  0
   -1.4901    4.8251   -0.4412 H   0  0  0  0  0  0  0  0  0  0  0  0
  1  2  1  0  0  0  0
  2  3  1  0  0  0  0
  2  4  1  0  0  0  0
  2  5  1  0  0  0  0
  5  6  2  0  0  0  0
  5  7  1  0  0  0  0
  7  8  1  0  0  0  0
  7  9  1  0  0  0  0
  9 10  1  0  0  0  0
  9 11  1  0  0  0  0
  9 22  1  0  0  0  0
 11 12  1  0  0  0  0
 11 13  1  0  0  0  0
 11 14  1  0  0  0  0
 14 15  1  0  0  0  0
 14 20  2  0  0  0  0
 15 16  1  0  0  0  0
 15 17  1  0  0  0  0
 17 18  1  0  0  0  0
 17 19  2  0  0  0  0
 19 20  1  0  0  0  0
 20 21  1  0  0  0  0
 22 23  2  0  0  0  0
 22 24  1  0  0  0  0
 24 25  1  0  0  0  0
 24 26  1  0  0  0  0
 26 27  1  0  0  0  0
 26 28  1  0  0  0  0
 26 29  1  0  0  0  0
M  END
$$$$

  -OEChem-01062216083D

 29 29  0     1  0  0  0  0  0999 V2000
   -3.0057   -2.6980    1.2759 H   0  0  0  0  0  0  0  0  0  0  0  0
   -2.9535   -1.8937    0.5366 C   0  0  0  0  0  0  0  0  0  0  0  0
   -3.8870   -1.3271    0.5667 H   0  0  0  0  0  0  0  0  0  0  0  0
   -2.8329   -2.3379   -0.4543 H   0  0  0  0  0  0  0  0  0  0  0  0
   -1.7792   -0.9832    0.8418 C   0  0  0  0  0  0  0  0  0  0  0  0
   -1.0669   -1.2183    1.8044 O   0  0  0  0  0  0  0  0  0  0  0  0
   -1.5419    0.1226    0.0438 N   0  0  0  0  0  0  0  0  0  0  0  0
   -2.1042    0.1560   -0.8005 H   0  0  0  0  0  0  0  0  0  0  0  0
   -0.2087    0.7631   -0.0178 C   0  0  1  0  0  0  0  0  0  0  0  0
    0.3115    0.6511    0.9398 H   0  0  0  0  0  0  0  0  0  0  0  0
    0.6390    0.1192   -1.1352 C   0  0  0  0  0  0  0  0  0  0  0  0
    0.1172    0.2186   -2.0926 H   0  0  0  0  0  0  0  0  0  0  0  0
    1.5946    0.6471   -1.2280 H   0  0  0  0  0  0  0  0  0  0  0  0
    0.9224   -1.3332   -0.8586 C   0  0  0  0  0  0  0  0  0  0  0  0
    1.8119   -1.8590    0.0499 N   0  0  0  0  0  0  0  0  0  0  0  0
    2.3447   -1.3361    0.7424 H   0  0  0  0  0  0  0  0  0  0  0  0
    1.7605   -3.2373   -0.0409 C   0  0  0  0  0  0  0  0  0  0  0  0
    2.3306   -3.9241    0.5783 H   0  0  0  0  0  0  0  0  0  0  0  0
    0.9231   -3.5993   -0.9850 N   0  0  0  0  0  0  0  0  0  0  0  0
    0.4045   -2.4217   -1.5085 C   0  0  0  0  0  0  0  0  0  0  0  0
   -0.3178   -2.3730   -2.3175 H   0  0  0  0  0  0  0  0  0  0  0  0
   -0.2914    2.2779   -0.3009 C   0  0  0  0  0  0  0  0  0  0  0  0
    0.7195    2.9640   -0.2364 O   0  0  0  0  0  0  0  0  0  0  0  0
   -1.4615    2.8529   -0.7671 N   0  0  0  0  0  0  0  0  0  0  0  0
   -2.3077    2.3047   -0.6545 H   0  0  0  0  0  0  0  0  0  0  0  0
   -1.5890    4.2822   -1.0289 C   0  0  0  0  0  0  0  0  0  0  0  0
   -0.8630    4.5999   -1.7847 H   0  0  0  0  0  0  0  0  0  0  0  0
   -2.5927    4.5111   -1.3995 H   0  0  0  0  0  0  0  0  0  0  0  0
   -1.4173    4.8571   -0.1127 H   0  0  0  0  0  0  0  0  0  0  0  0
  1  2  1  0  0  0  0
  2  3  1  0  0  0  0
  2  4  1  0  0  0  0
  2  5  1  0  0  0  0
  5  6  2  0  0  0  0
  5  7  1  0  0  0  0
  7  8  1  0  0  0  0
  7  9  1  0  0  0  0
  9 10  1  0  0  0  0
  9 11  1  0  0  0  0
  9 22  1  0  0  0  0
 11 12  1  0  0  0  0
 11 13  1  0  0  0  0
 11 14  1  0  0  0  0
 14 15  1  0  0  0  0
 14 20  2  0  0  0  0
 15 16  1  0  0  0  0
 15 17  1  0  0  0  0
 17 18  1  0  0  0  0
 17 19  2  0  0  0  0
 19 20  1  0  0  0  0
 20 21  1  0  0  0  0
 22 23  2  0  0  0  0
 22 24  1  0  0  0  0
 24 25  1  0  0  0  0
 24 26  1  0  0  0  0
 26 27  1  0  0  0  0
 26 28  1  0  0  0  0
 26 29  1  0  0  0  0
M  END
$$$$

  -OEChem-01062216083D

 29 29  0     1  0  0  0  0  0999 V2000
   -2.9947   -2.7100    1.2424 H   0  0  0  0  0  0  0  0  0  0  0  0
   -2.9539   -1.8869    0.5232 C   0  0  0  0  0  0  0  0  0  0  0  0
   -3.8854   -1.3194    0.5837 H   0  0  0  0  0  0  0  0  0  0  0  0
   -2.8509   -2.3055   -0.4808 H   0  0  0  0  0  0  0  0  0  0  0  0
   -1.7740   -0.9855    0.8319 C   0  0  0  0  0  0  0  0  0  0  0  0
   -1.0649   -1.2252    1.7956 O   0  0  0  0  0  0  0  0  0  0  0  0
   -1.5318    0.1239    0.0410 N   0  0  0  0  0  0  0  0  0  0  0  0
   -2.1016    0.1778   -0.7980 H   0  0  0  0  0  0  0  0  0  0  0  0
   -0.1984    0.7639   -0.0178 C   0  0  1  0  0  0  0  0  0  0  0  0
    0.3213    0.6510    0.9397 H   0  0  0  0  0  0  0  0  0  0  0  0
    0.6463    0.1128   -1.1358 C   0  0  0  0  0  0  0  0  0  0  0  0
    0.1238    0.2139   -2.0924 H   0  0  0  0  0  0  0  0  0  0  0  0
    1.6053    0.6337   -1.2314 H   0  0  0  0  0  0  0  0  0  0  0  0
    0.9260   -1.3405   -0.8586 C   0  0  0  0  0  0  0  0  0  0  0  0
    1.8156   -1.8684    0.0486 N   0  0  0  0  0  0  0  0  0  0  0  0
    2.3521   -1.3473    0.7393 H   0  0  0  0  0  0  0  0  0  0  0  0
    1.7620   -3.2463   -0.0435 C   0  0  0  0  0  0  0  0  0  0  0  0
    2.3318   -3.9342    0.5747 H   0  0  0  0  0  0  0  0  0  0  0  0
    0.9229   -3.6066   -0.9867 N   0  0  0  0  0  0  0  0  0  0  0  0
    0.4058   -2.4278   -1.5090 C   0  0  0  0  0  0  0  0  0  0  0  0
   -0.3166   -2.3778   -2.3179 H   0  0  0  0  0  0  0  0  0  0  0  0
   -0.2934    2.2813   -0.2946 C   0  0  0  0  0  0  0  0  0  0  0  0
    0.7213    2.9442   -0.4634 O   0  0  0  0  0  0  0  0  0  0  0  0
   -1.5244    2.8941   -0.4549 N   0  0  0  0  0  0  0  0  0  0  0  0
   -2.3323    2.3608   -0.1478 H   0  0  0  0  0  0  0  0  0  0  0  0
   -1.6755    4.3285   -0.6720 C   0  0  0  0  0  0  0  0  0  0  0  0
   -1.1372    4.6395   -1.5735 H   0  0  0  0  0  0  0  0  0  0  0  0
   -2.7321    4.5827   -0.7989 H   0  0  0  0  0  0  0  0  0  0  0  0
   -1.2828    4.8888    0.1830 H   0  0  0  0  0  0  0  0  0  0  0  0
  1  2  1  0  0  0  0
  2  3  1  0  0  0  0
  2  4  1  0  0  0  0
  2  5  1  0  0  0  0
  5  6  2  0  0  0  0
  5  7  1  0  0  0  0
  7  8  1  0  0  0  0
  7  9  1  0  0  0  0
  9 10  1  0  0  0  0
  9 11  1  0  0  0  0
  9 22  1  0  0  0  0
 11 12  1  0  0  0  0
 11 13  1  0  0  0  0
 11 14  1  0  0  0  0
 14 15  1  0  0  0  0
 14 20  2  0  0  0  0
 15 16  1  0  0  0  0
 15 17  1  0  0  0  0
 17 18  1  0  0  0  0
 17 19  2  0  0  0  0
 19 20  1  0  0  0  0
 20 21  1  0  0  0  0
 22 23  2  0  0  0  0
 22 24  1  0  0  0  0
 24 25  1  0  0  0  0
 24 26  1  0  0  0  0
 26 27  1  0  0  0  0
 26 28  1  0  0  0  0
 26 29  1  0  0  0  0
M  END
$$$$

  -OEChem-01062216083D

 29 29  0     1  0  0  0  0  0999 V2000
   -3.0175   -2.6821    1.2400 H   0  0  0  0  0  0  0  0  0  0  0  0
   -2.9637   -1.8646    0.5153 C   0  0  0  0  0  0  0  0  0  0  0  0
   -3.8858   -1.2815    0.5730 H   0  0  0  0  0  0  0  0  0  0  0  0
   -2.8695   -2.2918   -0.4860 H   0  0  0  0  0  0  0  0  0  0  0  0
   -1.7677   -0.9814    0.8166 C   0  0  0  0  0  0  0  0  0  0  0  0
   -1.0580   -1.2287    1.7781 O   0  0  0  0  0  0  0  0  0  0  0  0
   -1.5167    0.1304    0.0322 N   0  0  0  0  0  0  0  0  0  0  0  0
   -2.0990    0.2119   -0.7963 H   0  0  0  0  0  0  0  0  0  0  0  0
   -0.1813    0.7655   -0.0255 C   0  0  1  0  0  0  0  0  0  0  0  0
    0.3370    0.6534    0.9325 H   0  0  0  0  0  0  0  0  0  0  0  0
    0.6634    0.1072   -1.1414 C   0  0  0  0  0  0  0  0  0  0  0  0
    0.1426    0.2081   -2.0992 H   0  0  0  0  0  0  0  0  0  0  0  0
    1.6258    0.6217   -1.2374 H   0  0  0  0  0  0  0  0  0  0  0  0
    0.9371   -1.3469   -0.8601 C   0  0  0  0  0  0  0  0  0  0  0  0
    1.8223   -1.8795    0.0489 N   0  0  0  0  0  0  0  0  0  0  0  0
    2.3630   -1.3609    0.7381 H   0  0  0  0  0  0  0  0  0  0  0  0
    1.7612   -3.2574   -0.0421 C   0  0  0  0  0  0  0  0  0  0  0  0
    2.3264   -3.9481    0.5771 H   0  0  0  0  0  0  0  0  0  0  0  0
    0.9213   -3.6137   -0.9860 N   0  0  0  0  0  0  0  0  0  0  0  0
    0.4111   -2.4321   -1.5095 C   0  0  0  0  0  0  0  0  0  0  0  0
   -0.3104   -2.3785   -2.3191 H   0  0  0  0  0  0  0  0  0  0  0  0
   -0.2924    2.2841   -0.2960 C   0  0  0  0  0  0  0  0  0  0  0  0
    0.6706    2.9286   -0.6899 O   0  0  0  0  0  0  0  0  0  0  0  0
   -1.5070    2.9295   -0.1416 N   0  0  0  0  0  0  0  0  0  0  0  0
   -2.2425    2.3972    0.3150 H   0  0  0  0  0  0  0  0  0  0  0  0
   -1.6746    4.3699   -0.2984 C   0  0  0  0  0  0  0  0  0  0  0  0
   -1.3769    4.6839   -1.3045 H   0  0  0  0  0  0  0  0  0  0  0  0
   -2.7223    4.6478   -0.1477 H   0  0  0  0  0  0  0  0  0  0  0  0
   -1.0636    4.9088    0.4335 H   0  0  0  0  0  0  0  0  0  0  0  0
  1  2  1  0  0  0  0
  2  3  1  0  0  0  0
  2  4  1  0  0  0  0
  2  5  1  0  0  0  0
  5  6  2  0  0  0  0
  5  7  1  0  0  0  0
  7  8  1  0  0  0  0
  7  9  1  0  0  0  0
  9 10  1  0  0  0  0
  9 11  1  0  0  0  0
  9 22  1  0  0  0  0
 11 12  1  0  0  0  0
 11 13  1  0  0  0  0
 11 14  1  0  0  0  0
 14 15  1  0  0  0  0
 14 20  2  0  0  0  0
 15 16  1  0  0  0  0
 15 17  1  0  0  0  0
 17 18  1  0  0  0  0
 17 19  2  0  0  0  0
 19 20  1  0  0  0  0
 20 21  1  0  0  0  0
 22 23  2  0  0  0  0
 22 24  1  0  0  0  0
 24 25  1  0  0  0  0
 24 26  1  0  0  0  0
 26 27  1  0  0  0  0
 26 28  1  0  0  0  0
 26 29  1  0  0  0  0
M  END
$$$$

  -OEChem-01062216083D

 29 29  0     1  0  0  0  0  0999 V2000
   -3.0132   -2.6803    1.2076 H   0  0  0  0  0  0  0  0  0  0  0  0
   -2.9663   -1.8451    0.5032 C   0  0  0  0  0  0  0  0  0  0  0  0
   -3.8853   -1.2604    0.5870 H   0  0  0  0  0  0  0  0  0  0  0  0
   -2.8864   -2.2471   -0.5097 H   0  0  0  0  0  0  0  0  0  0  0  0
   -1.7638   -0.9735    0.8100 C   0  0  0  0  0  0  0  0  0  0  0  0
   -1.0556   -1.2302    1.7704 O   0  0  0  0  0  0  0  0  0  0  0  0
   -1.5048    0.1416    0.0339 N   0  0  0  0  0  0  0  0  0  0  0  0
   -2.0967    0.2465   -0.7855 H   0  0  0  0  0  0  0  0  0  0  0  0
   -0.1666    0.7685   -0.0232 C   0  0  1  0  0  0  0  0  0  0  0  0
    0.3520    0.6526    0.9343 H   0  0  0  0  0  0  0  0  0  0  0  0
    0.6761    0.1045   -1.1375 C   0  0  0  0  0  0  0  0  0  0  0  0
    0.1571    0.2082   -2.0961 H   0  0  0  0  0  0  0  0  0  0  0  0
    1.6411    0.6140   -1.2318 H   0  0  0  0  0  0  0  0  0  0  0  0
    0.9423   -1.3509   -0.8563 C   0  0  0  0  0  0  0  0  0  0  0  0
    1.8229   -1.8916    0.0525 N   0  0  0  0  0  0  0  0  0  0  0  0
    2.3647   -1.3789    0.7449 H   0  0  0  0  0  0  0  0  0  0  0  0
    1.7562   -3.2687   -0.0457 C   0  0  0  0  0  0  0  0  0  0  0  0
    2.3187   -3.9649    0.5696 H   0  0  0  0  0  0  0  0  0  0  0  0
    0.9157   -3.6172   -0.9917 N   0  0  0  0  0  0  0  0  0  0  0  0
    0.4121   -2.4309   -1.5108 C   0  0  0  0  0  0  0  0  0  0  0  0
   -0.3072   -2.3704   -2.3218 H   0  0  0  0  0  0  0  0  0  0  0  0
   -0.2889    2.2883   -0.2838 C   0  0  0  0  0  0  0  0  0  0  0  0
    0.5629    2.9054   -0.9101 O   0  0  0  0  0  0  0  0  0  0  0  0
   -1.4026    2.9708    0.1722 N   0  0  0  0  0  0  0  0  0  0  0  0
   -2.0437    2.4486    0.7638 H   0  0  0  0  0  0  0  0  0  0  0  0
   -1.5756    4.4125    0.0391 C   0  0  0  0  0  0  0  0  0  0  0  0
   -1.5549    4.7060   -1.0157 H   0  0  0  0  0  0  0  0  0  0  0  0
   -2.5371    4.7189    0.4625 H   0  0  0  0  0  0  0  0  0  0  0  0
   -0.7778    4.9443    0.5683 H   0  0  0  0  0  0  0  0  0  0  0  0
  1  2  1  0  0  0  0
  2  3  1  0  0  0  0
  2  4  1  0  0  0  0
  2  5  1  0  0  0  0
  5  6  2  0  0  0  0
  5  7  1  0  0  0  0
  7  8  1  0  0  0  0
  7  9  1  0  0  0  0
  9 10  1  0  0  0  0
  9 11  1  0  0  0  0
  9 22  1  0  0  0  0
 11 12  1  0  0  0  0
 11 13  1  0  0  0  0
 11 14  1  0  0  0  0
 14 15  1  0  0  0  0
 14 20  2  0  0  0  0
 15 16  1  0  0  0  0
 15 17  1  0  0  0  0
 17 18  1  0  0  0  0
 17 19  2  0  0  0  0
 19 20  1  0  0  0  0
 20 21  1  0  0  0  0
 22 23  2  0  0  0  0
 22 24  1  0  0  0  0
 24 25  1  0  0  0  0
 24 26  1  0  0  0  0
 26 27  1  0  0  0  0
 26 28  1  0  0  0  0
 26 29  1  0  0  0  0
M  END
$$$$

  -OEChem-01062216083D

 29 29  0     1  0  0  0  0  0999 V2000
   -3.0356   -2.6543    1.2072 H   0  0  0  0  0  0  0  0  0  0  0  0
   -2.9723   -1.8254    0.4963 C   0  0  0  0  0  0  0  0  0  0  0  0
   -3.8843   -1.2284    0.5686 H   0  0  0  0  0  0  0  0  0  0  0  0
   -2.8903   -2.2367   -0.5126 H   0  0  0  0  0  0  0  0  0  0  0  0
   -1.7606   -0.9669    0.8048 C   0  0  0  0  0  0  0  0  0  0  0  0
   -1.0521   -1.2355    1.7619 O   0  0  0  0  0  0  0  0  0  0  0  0
   -1.4930    0.1519    0.0374 N   0  0  0  0  0  0  0  0  0  0  0  0
   -2.0926    0.2791   -0.7733 H   0  0  0  0  0  0  0  0  0  0  0  0
   -0.1515    0.7689   -0.0177 C   0  0  1  0  0  0  0  0  0  0  0  0
    0.3675    0.6459    0.9387 H   0  0  0  0  0  0  0  0  0  0  0  0
    0.6914    0.1065   -1.1329 C   0  0  0  0  0  0  0  0  0  0  0  0
    0.1754    0.2164   -2.0926 H   0  0  0  0  0  0  0  0  0  0  0  0
    1.6570    0.6158   -1.2216 H   0  0  0  0  0  0  0  0  0  0  0  0
    0.9503   -1.3515   -0.8573 C   0  0  0  0  0  0  0  0  0  0  0  0
    1.8256   -1.9019    0.0511 N   0  0  0  0  0  0  0  0  0  0  0  0
    2.3684   -1.3962    0.7478 H   0  0  0  0  0  0  0  0  0  0  0  0
    1.7479   -3.2783   -0.0515 C   0  0  0  0  0  0  0  0  0  0  0  0
    2.3025   -3.9811    0.5636 H   0  0  0  0  0  0  0  0  0  0  0  0
    0.9073   -3.6170   -1.0008 N   0  0  0  0  0  0  0  0  0  0  0  0
    0.4140   -2.4252   -1.5174 C   0  0  0  0  0  0  0  0  0  0  0  0
   -0.3033   -2.3565   -2.3297 H   0  0  0  0  0  0  0  0  0  0  0  0
   -0.2781    2.2895   -0.2666 C   0  0  0  0  0  0  0  0  0  0  0  0
    0.4044    2.8736   -1.0987 O   0  0  0  0  0  0  0  0  0  0  0  0
   -1.2122    3.0119    0.4532 N   0  0  0  0  0  0  0  0  0  0  0  0
   -1.7409    2.5043    1.1583 H   0  0  0  0  0  0  0  0  0  0  0  0
   -1.3929    4.4534    0.3286 C   0  0  0  0  0  0  0  0  0  0  0  0
   -1.6737    4.7178   -0.6963 H   0  0  0  0  0  0  0  0  0  0  0  0
   -2.1846    4.7947    1.0025 H   0  0  0  0  0  0  0  0  0  0  0  0
   -0.4677    4.9793    0.5874 H   0  0  0  0  0  0  0  0  0  0  0  0
  1  2  1  0  0  0  0
  2  3  1  0  0  0  0
  2  4  1  0  0  0  0
  2  5  1  0  0  0  0
  5  6  2  0  0  0  0
  5  7  1  0  0  0  0
  7  8  1  0  0  0  0
  7  9  1  0  0  0  0
  9 10  1  0  0  0  0
  9 11  1  0  0  0  0
  9 22  1  0  0  0  0
 11 12  1  0  0  0  0
 11 13  1  0  0  0  0
 11 14  1  0  0  0  0
 14 15  1  0  0  0  0
 14 20  2  0  0  0  0
 15 16  1  0  0  0  0
 15 17  1  0  0  0  0
 17 18  1  0  0  0  0
 17 19  2  0  0  0  0
 19 20  1  0  0  0  0
 20 21  1  0  0  0  0
 22 23  2  0  0  0  0
 22 24  1  0  0  0  0
 24 25  1  0  0  0  0
 24 26  1  0  0  0  0
 26 27  1  0  0  0  0
 26 28  1  0  0  0  0
 26 29  1  0  0  0  0
M  END
$$$$

  -OEChem-01062216083D

 29 29  0     1  0  0  0  0  0999 V2000
   -3.0065   -2.6780    1.1303 H   0  0  0  0  0  0  0  0  0  0  0  0
   -2.9855   -1.7901    0.4921 C   0  0  0  0  0  0  0  0  0  0  0  0
   -3.8895   -1.2035    0.6714 H   0  0  0  0  0  0  0  0  0  0  0  0
   -2.9666   -2.1118   -0.5520 H   0  0  0  0  0  0  0  0  0  0  0  0
   -1.7559   -0.9579    0.8009 C   0  0  0  0  0  0  0  0  0  0  0  0
   -1.0475   -1.2466    1.7527 O   0  0  0  0  0  0  0  0  0  0  0  0
   -1.4733    0.1629    0.0429 N   0  0  0  0  0  0  0  0  0  0  0  0
   -2.0775    0.3152   -0.7601 H   0  0  0  0  0  0  0  0  0  0  0  0
   -0.1279    0.7667   -0.0064 C   0  0  1  0  0  0  0  0  0  0  0  0
    0.3896    0.6328    0.9491 H   0  0  0  0  0  0  0  0  0  0  0  0
    0.7144    0.1066   -1.1229 C   0  0  0  0  0  0  0  0  0  0  0  0
    0.2008    0.2230   -2.0833 H   0  0  0  0  0  0  0  0  0  0  0  0
    1.6809    0.6150   -1.2064 H   0  0  0  0  0  0  0  0  0  0  0  0
    0.9621   -1.3552   -0.8561 C   0  0  0  0  0  0  0  0  0  0  0  0
    1.8302   -1.9176    0.0521 N   0  0  0  0  0  0  0  0  0  0  0  0
    2.3754   -1.4203    0.7528 H   0  0  0  0  0  0  0  0  0  0  0  0
    1.7385   -3.2926   -0.0554 C   0  0  0  0  0  0  0  0  0  0  0  0
    2.2836   -4.0031    0.5592 H   0  0  0  0  0  0  0  0  0  0  0  0
    0.8976   -3.6195   -1.0084 N   0  0  0  0  0  0  0  0  0  0  0  0
    0.4164   -2.4211   -1.5213 C   0  0  0  0  0  0  0  0  0  0  0  0
   -0.3001   -2.3425   -2.3332 H   0  0  0  0  0  0  0  0  0  0  0  0
   -0.2508    2.2876   -0.2452 C   0  0  0  0  0  0  0  0  0  0  0  0
    0.2074    2.8312   -1.2426 O   0  0  0  0  0  0  0  0  0  0  0  0
   -0.9412    3.0525    0.6766 N   0  0  0  0  0  0  0  0  0  0  0  0
   -1.3352    2.5661    1.4783 H   0  0  0  0  0  0  0  0  0  0  0  0
   -1.1549    4.4880    0.5399 C   0  0  0  0  0  0  0  0  0  0  0  0
   -1.7111    4.7063   -0.3777 H   0  0  0  0  0  0  0  0  0  0  0  0
   -1.7286    4.8675    1.3909 H   0  0  0  0  0  0  0  0  0  0  0  0
   -0.1965    5.0167    0.5060 H   0  0  0  0  0  0  0  0  0  0  0  0
  1  2  1  0  0  0  0
  2  3  1  0  0  0  0
  2  4  1  0  0  0  0
  2  5  1  0  0  0  0
  5  6  2  0  0  0  0
  5  7  1  0  0  0  0
  7  8  1  0  0  0  0
  7  9  1  0  0  0  0
  9 10  1  0  0  0  0
  9 11  1  0  0  0  0
  9 22  1  0  0  0  0
 11 12  1  0  0  0  0
 11 13  1  0  0  0  0
 11 14  1  0  0  0  0
 14 15  1  0  0  0  0
 14 20  2  0  0  0  0
 15 16  1  0  0  0  0
 15 17  1  0  0  0  0
 17 18  1  0  0  0  0
 17 19  2  0  0  0  0
 19 20  1  0  0  0  0
 20 21  1  0  0  0  0
 22 23  2  0  0  0  0
 22 24  1  0  0  0  0
 24 25  1  0  0  0  0
 24 26  1  0  0  0  0
 26 27  1  0  0  0  0
 26 28  1  0  0  0  0
 26 29  1  0  0  0  0
M  END
$$$$

  -OEChem-01062216083D

 29 29  0     1  0  0  0  0  0999 V2000
   -3.0316   -2.6585    1.1318 H   0  0  0  0  0  0  0  0  0  0  0  0
   -2.9991   -1.7711    0.4936 C   0  0  0  0  0  0  0  0  0  0  0  0
   -3.8947   -1.1723    0.6745 H   0  0  0  0  0  0  0  0  0  0  0  0
   -2.9859   -2.0925   -0.5506 H   0  0  0  0  0  0  0  0  0  0  0  0
   -1.7578   -0.9560    0.8005 C   0  0  0  0  0  0  0  0  0  0  0  0
   -1.0473   -1.2589    1.7467 O   0  0  0  0  0  0  0  0  0  0  0  0
   -1.4638    0.1645    0.0468 N   0  0  0  0  0  0  0  0  0  0  0  0
   -2.0704    0.3348   -0.7512 H   0  0  0  0  0  0  0  0  0  0  0  0
   -0.1170    0.7625    0.0040 C   0  0  1  0  0  0  0  0  0  0  0  0
    0.3989    0.6205    0.9593 H   0  0  0  0  0  0  0  0  0  0  0  0
    0.7268    0.1081   -1.1135 C   0  0  0  0  0  0  0  0  0  0  0  0
    0.2141    0.2277   -2.0742 H   0  0  0  0  0  0  0  0  0  0  0  0
    1.6923    0.6185   -1.1927 H   0  0  0  0  0  0  0  0  0  0  0  0
    0.9701   -1.3558   -0.8559 C   0  0  0  0  0  0  0  0  0  0  0  0
    1.8337   -1.9274    0.0508 N   0  0  0  0  0  0  0  0  0  0  0  0
    2.3767   -1.4374    0.7581 H   0  0  0  0  0  0  0  0  0  0  0  0
    1.7378   -3.3013   -0.0672 C   0  0  0  0  0  0  0  0  0  0  0  0
    2.2791   -4.0176    0.5441 H   0  0  0  0  0  0  0  0  0  0  0  0
    0.8983   -3.6186   -1.0246 N   0  0  0  0  0  0  0  0  0  0  0  0
    0.4215   -2.4149   -1.5293 C   0  0  0  0  0  0  0  0  0  0  0  0
   -0.2936   -2.3277   -2.3417 H   0  0  0  0  0  0  0  0  0  0  0  0
   -0.2326    2.2826   -0.2328 C   0  0  0  0  0  0  0  0  0  0  0  0
   -0.0249    2.7836   -1.3312 O   0  0  0  0  0  0  0  0  0  0  0  0
   -0.6366    3.0937    0.8111 N   0  0  0  0  0  0  0  0  0  0  0  0
   -0.8736    2.6368    1.6883 H   0  0  0  0  0  0  0  0  0  0  0  0
   -0.8487    4.5299    0.6800 C   0  0  0  0  0  0  0  0  0  0  0  0
   -1.6333    4.7358   -0.0557 H   0  0  0  0  0  0  0  0  0  0  0  0
   -1.1541    4.9561    1.6406 H   0  0  0  0  0  0  0  0  0  0  0  0
    0.0736    5.0260    0.3597 H   0  0  0  0  0  0  0  0  0  0  0  0
  1  2  1  0  0  0  0
  2  3  1  0  0  0  0
  2  4  1  0  0  0  0
  2  5  1  0  0  0  0
  5  6  2  0  0  0  0
  5  7  1  0  0  0  0
  7  8  1  0  0  0  0
  7  9  1  0  0  0  0
  9 10  1  0  0  0  0
  9 11  1  0  0  0  0
  9 22  1  0  0  0  0
 11 12  1  0  0  0  0
 11 13  1  0  0  0  0
 11 14  1  0  0  0  0
 14 15  1  0  0  0  0
 14 20  2  0  0  0  0
 15 16  1  0  0  0  0
 15 17  1  0  0  0  0
 17 18  1  0  0  0  0
 17 19  2  0  0  0  0
 19 20  1  0  0  0  0
 20 21  1  0  0  0  0
 22 23  2  0  0  0  0
 22 24  1  0  0  0  0
 24 25  1  0  0  0  0
 24 26  1  0  0  0  0
 26 27  1  0  0  0  0
 26 28  1  0  0  0  0
 26 29  1  0  0  0  0
M  END
$$$$

  -OEChem-01062216083D

 29 29  0     1  0  0  0  0  0999 V2000
   -3.0597   -2.6391    1.1380 H   0  0  0  0  0  0  0  0  0  0  0  0
   -3.0154   -1.7520    0.4998 C   0  0  0  0  0  0  0  0  0  0  0  0
   -3.9016   -1.1397    0.6824 H   0  0  0  0  0  0  0  0  0  0  0  0
   -3.0092   -2.0732   -0.5446 H   0  0  0  0  0  0  0  0  0  0  0  0
   -1.7615   -0.9554    0.8035 C   0  0  0  0  0  0  0  0  0  0  0  0
   -1.0480   -1.2747    1.7424 O   0  0  0  0  0  0  0  0  0  0  0  0
   -1.4554    0.1622    0.0511 N   0  0  0  0  0  0  0  0  0  0  0  0
   -2.0654    0.3526   -0.7399 H   0  0  0  0  0  0  0  0  0  0  0  0
   -0.1081    0.7562    0.0165 C   0  0  1  0  0  0  0  0  0  0  0  0
    0.4031    0.6079    0.9730 H   0  0  0  0  0  0  0  0  0  0  0  0
    0.7387    0.1093   -1.1019 C   0  0  0  0  0  0  0  0  0  0  0  0
    0.2286    0.2344   -2.0634 H   0  0  0  0  0  0  0  0  0  0  0  0
    1.7040    0.6208   -1.1761 H   0  0  0  0  0  0  0  0  0  0  0  0
    0.9788   -1.3570   -0.8546 C   0  0  0  0  0  0  0  0  0  0  0  0
    1.8371   -1.9396    0.0502 N   0  0  0  0  0  0  0  0  0  0  0  0
    2.3759   -1.4585    0.7666 H   0  0  0  0  0  0  0  0  0  0  0  0
    1.7401   -3.3122   -0.0827 C   0  0  0  0  0  0  0  0  0  0  0  0
    2.2777   -4.0364    0.5225 H   0  0  0  0  0  0  0  0  0  0  0  0
    0.9048   -3.6181   -1.0471 N   0  0  0  0  0  0  0  0  0  0  0  0
    0.4307   -2.4086   -1.5405 C   0  0  0  0  0  0  0  0  0  0  0  0
   -0.2810   -2.3117   -2.3548 H   0  0  0  0  0  0  0  0  0  0  0  0
   -0.2143    2.2750   -0.2244 C   0  0  0  0  0  0  0  0  0  0  0  0
   -0.2725    2.7356   -1.3580 O   0  0  0  0  0  0  0  0  0  0  0  0
   -0.3119    3.1296    0.8579 N   0  0  0  0  0  0  0  0  0  0  0  0
   -0.3678    2.7057    1.7805 H   0  0  0  0  0  0  0  0  0  0  0  0
   -0.5144    4.5674    0.7286 C   0  0  0  0  0  0  0  0  0  0  0  0
   -1.4628    4.7762    0.2227 H   0  0  0  0  0  0  0  0  0  0  0  0
   -0.5377    5.0362    1.7170 H   0  0  0  0  0  0  0  0  0  0  0  0
    0.2996    5.0192    0.1520 H   0  0  0  0  0  0  0  0  0  0  0  0
  1  2  1  0  0  0  0
  2  3  1  0  0  0  0
  2  4  1  0  0  0  0
  2  5  1  0  0  0  0
  5  6  2  0  0  0  0
  5  7  1  0  0  0  0
  7  8  1  0  0  0  0
  7  9  1  0  0  0  0
  9 10  1  0  0  0  0
  9 11  1  0  0  0  0
  9 22  1  0  0  0  0
 11 12  1  0  0  0  0
 11 13  1  0  0  0  0
 11 14  1  0  0  0  0
 14 15  1  0  0  0  0
 14 20  2  0  0  0  0
 15 16  1  0  0  0  0
 15 17  1  0  0  0  0
 17 18  1  0  0  0  0
 17 19  2  0  0  0  0
 19 20  1  0  0  0  0
 20 21  1  0  0  0  0
 22 23  2  0  0  0  0
 22 24  1  0  0  0  0
 24 25  1  0  0  0  0
 24 26  1  0  0  0  0
 26 27  1  0  0  0  0
 26 28  1  0  0  0  0
 26 29  1  0  0  0  0
M  END
$$$$

  -OEChem-01062216083D

 29 29  0     1  0  0  0  0  0999 V2000
   -3.1279   -2.5914    1.1806 H   0  0  0  0  0  0  0  0  0  0  0  0
   -3.0507   -1.7258    0.5167 C   0  0  0  0  0  0  0  0  0  0  0  0
   -3.9163   -1.0789    0.6774 H   0  0  0  0  0  0  0  0  0  0  0  0
   -3.0519   -2.0774   -0.5178 H   0  0  0  0  0  0  0  0  0  0  0  0
   -1.7710   -0.9631    0.8022 C   0  0  0  0  0  0  0  0  0  0  0  0
   -1.0479   -1.3081    1.7248 O   0  0  0  0  0  0  0  0  0  0  0  0
   -1.4492    0.1505    0.0507 N   0  0  0  0  0  0  0  0  0  0  0  0
   -2.0698    0.3753   -0.7233 H   0  0  0  0  0  0  0  0  0  0  0  0
   -0.1026    0.7450    0.0273 C   0  0  1  0  0  0  0  0  0  0  0  0
    0.4002    0.5939    0.9879 H   0  0  0  0  0  0  0  0  0  0  0  0
    0.7532    0.1107   -1.0894 C   0  0  0  0  0  0  0  0  0  0  0  0
    0.2498    0.2437   -2.0535 H   0  0  0  0  0  0  0  0  0  0  0  0
    1.7179    0.6246   -1.1519 H   0  0  0  0  0  0  0  0  0  0  0  0
    0.9956   -1.3572   -0.8542 C   0  0  0  0  0  0  0  0  0  0  0  0
    1.8480   -1.9498    0.0501 N   0  0  0  0  0  0  0  0  0  0  0  0
    2.3796   -1.4773    0.7773 H   0  0  0  0  0  0  0  0  0  0  0  0
    1.7562   -3.3209   -0.1020 C   0  0  0  0  0  0  0  0  0  0  0  0
    2.2914   -4.0517    0.4976 H   0  0  0  0  0  0  0  0  0  0  0  0
    0.9301   -3.6162   -1.0776 N   0  0  0  0  0  0  0  0  0  0  0  0
    0.4554   -2.4013   -1.5573 C   0  0  0  0  0  0  0  0  0  0  0  0
   -0.2500   -2.2951   -2.3759 H   0  0  0  0  0  0  0  0  0  0  0  0
   -0.2046    2.2616   -0.2225 C   0  0  0  0  0  0  0  0  0  0  0  0
   -0.5217    2.6900   -1.3258 O   0  0  0  0  0  0  0  0  0  0  0  0
   -0.0022    3.1495    0.8181 N   0  0  0  0  0  0  0  0  0  0  0  0
    0.1492    2.7569    1.7435 H   0  0  0  0  0  0  0  0  0  0  0  0
   -0.1735    4.5912    0.6845 C   0  0  0  0  0  0  0  0  0  0  0  0
   -1.2111    4.8316    0.4300 H   0  0  0  0  0  0  0  0  0  0  0  0
    0.0777    5.0911    1.6250 H   0  0  0  0  0  0  0  0  0  0  0  0
    0.4822    4.9841   -0.0999 H   0  0  0  0  0  0  0  0  0  0  0  0
  1  2  1  0  0  0  0
  2  3  1  0  0  0  0
  2  4  1  0  0  0  0
  2  5  1  0  0  0  0
  5  6  2  0  0  0  0
  5  7  1  0  0  0  0
  7  8  1  0  0  0  0
  7  9  1  0  0  0  0
  9 10  1  0  0  0  0
  9 11  1  0  0  0  0
  9 22  1  0  0  0  0
 11 12  1  0  0  0  0
 11 13  1  0  0  0  0
 11 14  1  0  0  0  0
 14 15  1  0  0  0  0
 14 20  2  0  0  0  0
 15 16  1  0  0  0  0
 15 17  1  0  0  0  0
 17 18  1  0  0  0  0
 17 19  2  0  0  0  0
 19 20  1  0  0  0  0
 20 21  1  0  0  0  0
 22 23  2  0  0  0  0
 22 24  1  0  0  0  0
 24 25  1  0  0  0  0
 24 26  1  0  0  0  0
 26 27  1  0  0  0  0
 26 28  1  0  0  0  0
 26 29  1  0  0  0  0
M  END
$$$$

  -OEChem-01062216083D

 29 29  0     1  0  0  0  0  0999 V2000
   -3.1625   -2.5776    1.1782 H   0  0  0  0  0  0  0  0  0  0  0  0
   -3.0808   -1.7016    0.5288 C   0  0  0  0  0  0  0  0  0  0  0  0
   -3.9269   -1.0380    0.7223 H   0  0  0  0  0  0  0  0  0  0  0  0
   -3.1139   -2.0330   -0.5119 H   0  0  0  0  0  0  0  0  0  0  0  0
   -1.7780   -0.9732    0.7972 C   0  0  0  0  0  0  0  0  0  0  0  0
   -1.0468   -1.3439    1.7033 O   0  0  0  0  0  0  0  0  0  0  0  0
   -1.4433    0.1367    0.0466 N   0  0  0  0  0  0  0  0  0  0  0  0
   -2.0811    0.4040   -0.7001 H   0  0  0  0  0  0  0  0  0  0  0  0
   -0.0991    0.7350    0.0311 C   0  0  1  0  0  0  0  0  0  0  0  0
    0.3959    0.5840    0.9957 H   0  0  0  0  0  0  0  0  0  0  0  0
    0.7623    0.1109   -1.0851 C   0  0  0  0  0  0  0  0  0  0  0  0
    0.2602    0.2487   -2.0493 H   0  0  0  0  0  0  0  0  0  0  0  0
    1.7259    0.6277   -1.1419 H   0  0  0  0  0  0  0  0  0  0  0  0
    1.0083   -1.3571   -0.8567 C   0  0  0  0  0  0  0  0  0  0  0  0
    1.8599   -1.9485    0.0489 N   0  0  0  0  0  0  0  0  0  0  0  0
    2.3836   -1.4766    0.7819 H   0  0  0  0  0  0  0  0  0  0  0  0
    1.7724   -3.3194   -0.1066 C   0  0  0  0  0  0  0  0  0  0  0  0
    2.3079   -4.0495    0.4936 H   0  0  0  0  0  0  0  0  0  0  0  0
    0.9508   -3.6155   -1.0857 N   0  0  0  0  0  0  0  0  0  0  0  0
    0.4720   -2.4012   -1.5631 C   0  0  0  0  0  0  0  0  0  0  0  0
   -0.2334   -2.2961   -2.3819 H   0  0  0  0  0  0  0  0  0  0  0  0
   -0.1991    2.2494   -0.2275 C   0  0  0  0  0  0  0  0  0  0  0  0
   -0.7401    2.6628   -1.2465 O   0  0  0  0  0  0  0  0  0  0  0  0
    0.2863    3.1520    0.7009 N   0  0  0  0  0  0  0  0  0  0  0  0
    0.6375    2.7784    1.5785 H   0  0  0  0  0  0  0  0  0  0  0  0
    0.1535    4.5965    0.5543 C   0  0  0  0  0  0  0  0  0  0  0  0
   -0.9029    4.8844    0.5381 H   0  0  0  0  0  0  0  0  0  0  0  0
    0.6397    5.1079    1.3907 H   0  0  0  0  0  0  0  0  0  0  0  0
    0.6246    4.9324   -0.3756 H   0  0  0  0  0  0  0  0  0  0  0  0
  1  2  1  0  0  0  0
  2  3  1  0  0  0  0
  2  4  1  0  0  0  0
  2  5  1  0  0  0  0
  5  6  2  0  0  0  0
  5  7  1  0  0  0  0
  7  8  1  0  0  0  0
  7  9  1  0  0  0  0
  9 10  1  0  0  0  0
  9 11  1  0  0  0  0
  9 22  1  0  0  0  0
 11 12  1  0  0  0  0
 11 13  1  0  0  0  0
 11 14  1  0  0  0  0
 14 15  1  0  0  0  0
 14 20  2  0  0  0  0
 15 16  1  0  0  0  0
 15 17  1  0  0  0  0
 17 18  1  0  0  0  0
 17 19  2  0  0  0  0
 19 20  1  0  0  0  0
 20 21  1  0  0  0  0
 22 23  2  0  0  0  0
 22 24  1  0  0  0  0
 24 25  1  0  0  0  0
 24 26  1  0  0  0  0
 26 27  1  0  0  0  0
 26 28  1  0  0  0  0
 26 29  1  0  0  0  0
M  END
$$$$

  -OEChem-01062216083D

 29 29  0     1  0  0  0  0  0999 V2000
   -3.2141   -2.5473    1.2089 H   0  0  0  0  0  0  0  0  0  0  0  0
   -3.1150   -1.6828    0.5466 C   0  0  0  0  0  0  0  0  0  0  0  0
   -3.9408   -0.9937    0.7389 H   0  0  0  0  0  0  0  0  0  0  0  0
   -3.1674   -2.0269   -0.4892 H   0  0  0  0  0  0  0  0  0  0  0  0
   -1.7902   -0.9868    0.7922 C   0  0  0  0  0  0  0  0  0  0  0  0
   -1.0484   -1.3814    1.6794 O   0  0  0  0  0  0  0  0  0  0  0  0
   -1.4459    0.1202    0.0421 N   0  0  0  0  0  0  0  0  0  0  0  0
   -2.1041    0.4332   -0.6687 H   0  0  0  0  0  0  0  0  0  0  0  0
   -0.1060    0.7281    0.0387 C   0  0  1  0  0  0  0  0  0  0  0  0
    0.3797    0.5821    1.0085 H   0  0  0  0  0  0  0  0  0  0  0  0
    0.7652    0.1139   -1.0743 C   0  0  0  0  0  0  0  0  0  0  0  0
    0.2661    0.2547   -2.0395 H   0  0  0  0  0  0  0  0  0  0  0  0
    1.7257    0.6367   -1.1236 H   0  0  0  0  0  0  0  0  0  0  0  0
    1.0218   -1.3539   -0.8547 C   0  0  0  0  0  0  0  0  0  0  0  0
    1.8732   -1.9472    0.0502 N   0  0  0  0  0  0  0  0  0  0  0  0
    2.3865   -1.4790    0.7930 H   0  0  0  0  0  0  0  0  0  0  0  0
    1.7993   -3.3170   -0.1200 C   0  0  0  0  0  0  0  0  0  0  0  0
    2.3385   -4.0483    0.4752 H   0  0  0  0  0  0  0  0  0  0  0  0
    0.9864   -3.6106   -1.1067 N   0  0  0  0  0  0  0  0  0  0  0  0
    0.4981   -2.3960   -1.5737 C   0  0  0  0  0  0  0  0  0  0  0  0
   -0.2032   -2.2894   -2.3958 H   0  0  0  0  0  0  0  0  0  0  0  0
   -0.2069    2.2407   -0.2308 C   0  0  0  0  0  0  0  0  0  0  0  0
   -0.9319    2.6539   -1.1286 O   0  0  0  0  0  0  0  0  0  0  0  0
    0.5226    3.1399    0.5256 N   0  0  0  0  0  0  0  0  0  0  0  0
    1.0585    2.7727    1.3070 H   0  0  0  0  0  0  0  0  0  0  0  0
    0.4493    4.5841    0.3384 C   0  0  0  0  0  0  0  0  0  0  0  0
   -0.5641    4.9465    0.5405 H   0  0  0  0  0  0  0  0  0  0  0  0
    1.1408    5.0896    1.0195 H   0  0  0  0  0  0  0  0  0  0  0  0
    0.7202    4.8515   -0.6885 H   0  0  0  0  0  0  0  0  0  0  0  0
  1  2  1  0  0  0  0
  2  3  1  0  0  0  0
  2  4  1  0  0  0  0
  2  5  1  0  0  0  0
  5  6  2  0  0  0  0
  5  7  1  0  0  0  0
  7  8  1  0  0  0  0
  7  9  1  0  0  0  0
  9 10  1  0  0  0  0
  9 11  1  0  0  0  0
  9 22  1  0  0  0  0
 11 12  1  0  0  0  0
 11 13  1  0  0  0  0
 11 14  1  0  0  0  0
 14 15  1  0  0  0  0
 14 20  2  0  0  0  0
 15 16  1  0  0  0  0
 15 17  1  0  0  0  0
 17 18  1  0  0  0  0
 17 19  2  0  0  0  0
 19 20  1  0  0  0  0
 20 21  1  0  0  0  0
 22 23  2  0  0  0  0
 22 24  1  0  0  0  0
 24 25  1  0  0  0  0
 24 26  1  0  0  0  0
 26 27  1  0  0  0  0
 26 28  1  0  0  0  0
 26 29  1  0  0  0  0
M  END
$$$$

  -OEChem-01062216083D

 29 29  0     1  0  0  0  0  0999 V2000
   -3.2544   -2.5232    1.2231 H   0  0  0  0  0  0  0  0  0  0  0  0
   -3.1536   -1.6507    0.5715 C   0  0  0  0  0  0  0  0  0  0  0  0
   -3.9491   -0.9398    0.8066 H   0  0  0  0  0  0  0  0  0  0  0  0
   -3.2574   -1.9745   -0.4668 H   0  0  0  0  0  0  0  0  0  0  0  0
   -1.7990   -1.0003    0.7766 C   0  0  0  0  0  0  0  0  0  0  0  0
   -1.0435   -1.4231    1.6391 O   0  0  0  0  0  0  0  0  0  0  0  0
   -1.4468    0.1034    0.0258 N   0  0  0  0  0  0  0  0  0  0  0  0
   -2.1322    0.4732   -0.6304 H   0  0  0  0  0  0  0  0  0  0  0  0
   -0.1110    0.7207    0.0317 C   0  0  1  0  0  0  0  0  0  0  0  0
    0.3653    0.5822    1.0076 H   0  0  0  0  0  0  0  0  0  0  0  0
    0.7721    0.1114   -1.0745 C   0  0  0  0  0  0  0  0  0  0  0  0
    0.2771    0.2489   -2.0424 H   0  0  0  0  0  0  0  0  0  0  0  0
    1.7301    0.6395   -1.1196 H   0  0  0  0  0  0  0  0  0  0  0  0
    1.0385   -1.3541   -0.8543 C   0  0  0  0  0  0  0  0  0  0  0  0
    1.8879   -1.9420    0.0559 N   0  0  0  0  0  0  0  0  0  0  0  0
    2.3799   -1.4730    0.8123 H   0  0  0  0  0  0  0  0  0  0  0  0
    1.8304   -3.3118   -0.1212 C   0  0  0  0  0  0  0  0  0  0  0  0
    2.3690   -4.0404    0.4780 H   0  0  0  0  0  0  0  0  0  0  0  0
    1.0338   -3.6096   -1.1199 N   0  0  0  0  0  0  0  0  0  0  0  0
    0.5356   -2.3983   -1.5849 C   0  0  0  0  0  0  0  0  0  0  0  0
   -0.1555   -2.2947   -2.4159 H   0  0  0  0  0  0  0  0  0  0  0  0
   -0.2119    2.2326   -0.2487 C   0  0  0  0  0  0  0  0  0  0  0  0
   -1.0990    2.6647   -0.9766 O   0  0  0  0  0  0  0  0  0  0  0  0
    0.7179    3.1080    0.2834 N   0  0  0  0  0  0  0  0  0  0  0  0
    1.4114    2.7294    0.9220 H   0  0  0  0  0  0  0  0  0  0  0  0
    0.6743    4.5493    0.0666 C   0  0  0  0  0  0  0  0  0  0  0  0
   -0.2516    4.9701    0.4728 H   0  0  0  0  0  0  0  0  0  0  0  0
    1.5212    5.0325    0.5633 H   0  0  0  0  0  0  0  0  0  0  0  0
    0.7262    4.7782   -1.0032 H   0  0  0  0  0  0  0  0  0  0  0  0
  1  2  1  0  0  0  0
  2  3  1  0  0  0  0
  2  4  1  0  0  0  0
  2  5  1  0  0  0  0
  5  6  2  0  0  0  0
  5  7  1  0  0  0  0
  7  8  1  0  0  0  0
  7  9  1  0  0  0  0
  9 10  1  0  0  0  0
  9 11  1  0  0  0  0
  9 22  1  0  0  0  0
 11 12  1  0  0  0  0
 11 13  1  0  0  0  0
 11 14  1  0  0  0  0
 14 15  1  0  0  0  0
 14 20  2  0  0  0  0
 15 16  1  0  0  0  0
 15 17  1  0  0  0  0
 17 18  1  0  0  0  0
 17 19  2  0  0  0  0
 19 20  1  0  0  0  0
 20 21  1  0  0  0  0
 22 23  2  0  0  0  0
 22 24  1  0  0  0  0
 24 25  1  0  0  0  0
 24 26  1  0  0  0  0
 26 27  1  0  0  0  0
 26 28  1  0  0  0  0
 26 29  1  0  0  0  0
M  END
$$$$

  -OEChem-01062216083D

 29 29  0     1  0  0  0  0  0999 V2000
   -3.2828   -2.5010    1.2313 H   0  0  0  0  0  0  0  0  0  0  0  0
   -3.1795   -1.6225    0.5881 C   0  0  0  0  0  0  0  0  0  0  0  0
   -3.9443   -0.8917    0.8615 H   0  0  0  0  0  0  0  0  0  0  0  0
   -3.3301   -1.9282   -0.4500 H   0  0  0  0  0  0  0  0  0  0  0  0
   -1.7999   -1.0144    0.7530 C   0  0  0  0  0  0  0  0  0  0  0  0
   -1.0306   -1.4663    1.5881 O   0  0  0  0  0  0  0  0  0  0  0  0
   -1.4437    0.0891    0.0039 N   0  0  0  0  0  0  0  0  0  0  0  0
   -2.1565    0.5176   -0.5846 H   0  0  0  0  0  0  0  0  0  0  0  0
   -0.1126    0.7170    0.0220 C   0  0  1  0  0  0  0  0  0  0  0  0
    0.3554    0.5858    1.0030 H   0  0  0  0  0  0  0  0  0  0  0  0
    0.7803    0.1067   -1.0774 C   0  0  0  0  0  0  0  0  0  0  0  0
    0.2897    0.2401   -2.0478 H   0  0  0  0  0  0  0  0  0  0  0  0
    1.7372    0.6360   -1.1195 H   0  0  0  0  0  0  0  0  0  0  0  0
    1.0546   -1.3569   -0.8552 C   0  0  0  0  0  0  0  0  0  0  0  0
    1.9030   -1.9398    0.0595 N   0  0  0  0  0  0  0  0  0  0  0  0
    2.3835   -1.4687    0.8219 H   0  0  0  0  0  0  0  0  0  0  0  0
    1.8532   -3.3101   -0.1171 C   0  0  0  0  0  0  0  0  0  0  0  0
    2.3919   -4.0351    0.4861 H   0  0  0  0  0  0  0  0  0  0  0  0
    1.0642   -3.6127   -1.1204 N   0  0  0  0  0  0  0  0  0  0  0  0
    0.5601   -2.4044   -1.5871 C   0  0  0  0  0  0  0  0  0  0  0  0
   -0.1292   -2.3051   -2.4203 H   0  0  0  0  0  0  0  0  0  0  0  0
   -0.2190    2.2294   -0.2649 C   0  0  0  0  0  0  0  0  0  0  0  0
   -1.2281    2.6910   -0.7872 O   0  0  0  0  0  0  0  0  0  0  0  0
    0.8466    3.0702    0.0042 N   0  0  0  0  0  0  0  0  0  0  0  0
    1.6573    2.6713    0.4683 H   0  0  0  0  0  0  0  0  0  0  0  0
    0.8181    4.5058   -0.2494 C   0  0  0  0  0  0  0  0  0  0  0  0
    0.0302    4.9838    0.3419 H   0  0  0  0  0  0  0  0  0  0  0  0
    1.7770    4.9572    0.0229 H   0  0  0  0  0  0  0  0  0  0  0  0
    0.6328    4.7047   -1.3103 H   0  0  0  0  0  0  0  0  0  0  0  0
  1  2  1  0  0  0  0
  2  3  1  0  0  0  0
  2  4  1  0  0  0  0
  2  5  1  0  0  0  0
  5  6  2  0  0  0  0
  5  7  1  0  0  0  0
  7  8  1  0  0  0  0
  7  9  1  0  0  0  0
  9 10  1  0  0  0  0
  9 11  1  0  0  0  0
  9 22  1  0  0  0  0
 11 12  1  0  0  0  0
 11 13  1  0  0  0  0
 11 14  1  0  0  0  0
 14 15  1  0  0  0  0
 14 20  2  0  0  0  0
 15 16  1  0  0  0  0
 15 17  1  0  0  0  0
 17 18  1  0  0  0  0
 17 19  2  0  0  0  0
 19 20  1  0  0  0  0
 20 21  1  0  0  0  0
 22 23  2  0  0  0  0
 22 24  1  0  0  0  0
 24 25  1  0  0  0  0
 24 26  1  0  0  0  0
 26 27  1  0  0  0  0
 26 28  1  0  0  0  0
 26 29  1  0  0  0  0
M  END
$$$$

  -OEChem-01062216083D

 29 29  0     1  0  0  0  0  0999 V2000
   -3.2675   -2.4671    1.2455 H   0  0  0  0  0  0  0  0  0  0  0  0
   -3.1793   -1.5706    0.6256 C   0  0  0  0  0  0  0  0  0  0  0  0
   -3.8435   -0.7996    1.0234 H   0  0  0  0  0  0  0  0  0  0  0  0
   -3.4852   -1.8163   -0.3941 H   0  0  0  0  0  0  0  0  0  0  0  0
   -1.7467   -1.0728    0.6276 C   0  0  0  0  0  0  0  0  0  0  0  0
   -0.9039   -1.6501    1.2987 O   0  0  0  0  0  0  0  0  0  0  0  0
   -1.4153    0.0523   -0.1009 N   0  0  0  0  0  0  0  0  0  0  0  0
   -2.1879    0.6168   -0.4504 H   0  0  0  0  0  0  0  0  0  0  0  0
   -0.0908    0.6940   -0.0557 C   0  0  1  0  0  0  0  0  0  0  0  0
    0.4806    0.3471    0.8112 H   0  0  0  0  0  0  0  0  0  0  0  0
    0.6753    0.3534   -1.3484 C   0  0  0  0  0  0  0  0  0  0  0  0
    0.0885    0.6850   -2.2122 H   0  0  0  0  0  0  0  0  0  0  0  0
    1.6312    0.8844   -1.3766 H   0  0  0  0  0  0  0  0  0  0  0  0
    0.9460   -1.1245   -1.4578 C   0  0  0  0  0  0  0  0  0  0  0  0
    1.8731   -1.8773   -0.7721 N   0  0  0  0  0  0  0  0  0  0  0  0
    2.4412   -1.5675    0.0126 H   0  0  0  0  0  0  0  0  0  0  0  0
    1.7790   -3.1846   -1.2120 C   0  0  0  0  0  0  0  0  0  0  0  0
    2.3648   -4.0147   -0.8276 H   0  0  0  0  0  0  0  0  0  0  0  0
    0.8814   -3.2820   -2.1635 N   0  0  0  0  0  0  0  0  0  0  0  0
    0.3538   -2.0061   -2.3235 C   0  0  0  0  0  0  0  0  0  0  0  0
   -0.4203   -1.7451   -3.0389 H   0  0  0  0  0  0  0  0  0  0  0  0
   -0.2282    2.2282    0.0651 C   0  0  0  0  0  0  0  0  0  0  0  0
   -1.3356    2.7541    0.0273 O   0  0  0  0  0  0  0  0  0  0  0  0
    0.8932    3.0376    0.1262 N   0  0  0  0  0  0  0  0  0  0  0  0
    1.7997    2.5845    0.1949 H   0  0  0  0  0  0  0  0  0  0  0  0
    0.8262    4.4917    0.2190 C   0  0  0  0  0  0  0  0  0  0  0  0
    0.3268    4.7933    1.1458 H   0  0  0  0  0  0  0  0  0  0  0  0
    1.8337    4.9185    0.2129 H   0  0  0  0  0  0  0  0  0  0  0  0
    0.2725    4.9057   -0.6304 H   0  0  0  0  0  0  0  0  0  0  0  0
  1  2  1  0  0  0  0
  2  3  1  0  0  0  0
  2  4  1  0  0  0  0
  2  5  1  0  0  0  0
  5  6  2  0  0  0  0
  5  7  1  0  0  0  0
  7  8  1  0  0  0  0
  7  9  1  0  0  0  0
  9 10  1  0  0  0  0
  9 11  1  0  0  0  0
  9 22  1  0  0  0  0
 11 12  1  0  0  0  0
 11 13  1  0  0  0  0
 11 14  1  0  0  0  0
 14 15  1  0  0  0  0
 14 20  2  0  0  0  0
 15 16  1  0  0  0  0
 15 17  1  0  0  0  0
 17 18  1  0  0  0  0
 17 19  2  0  0  0  0
 19 20  1  0  0  0  0
 20 21  1  0  0  0  0
 22 23  2  0  0  0  0
 22 24  1  0  0  0  0
 24 25  1  0  0  0  0
 24 26  1  0  0  0  0
 26 27  1  0  0  0  0
 26 28  1  0  0  0  0
 26 29  1  0  0  0  0
M  END
$$$$

  -OEChem-01062216083D

 29 29  0     1  0  0  0  0  0999 V2000
   -3.2686   -2.4415    1.2613 H   0  0  0  0  0  0  0  0  0  0  0  0
   -3.1800   -1.5472    0.6382 C   0  0  0  0  0  0  0  0  0  0  0  0
   -3.8208   -0.7647    1.0515 H   0  0  0  0  0  0  0  0  0  0  0  0
   -3.5148   -1.7883   -0.3734 H   0  0  0  0  0  0  0  0  0  0  0  0
   -1.7395   -1.0738    0.6049 C   0  0  0  0  0  0  0  0  0  0  0  0
   -0.8899   -1.6703    1.2498 O   0  0  0  0  0  0  0  0  0  0  0  0
   -1.4121    0.0540   -0.1218 N   0  0  0  0  0  0  0  0  0  0  0  0
   -2.1909    0.6396   -0.4185 H   0  0  0  0  0  0  0  0  0  0  0  0
   -0.0860    0.6937   -0.0716 C   0  0  1  0  0  0  0  0  0  0  0  0
    0.4823    0.3489    0.7983 H   0  0  0  0  0  0  0  0  0  0  0  0
    0.6840    0.3394   -1.3608 C   0  0  0  0  0  0  0  0  0  0  0  0
    0.1028    0.6691   -2.2290 H   0  0  0  0  0  0  0  0  0  0  0  0
    1.6449    0.8607   -1.3893 H   0  0  0  0  0  0  0  0  0  0  0  0
    0.9515   -1.1395   -1.4621 C   0  0  0  0  0  0  0  0  0  0  0  0
    1.8753   -1.8899   -0.7692 N   0  0  0  0  0  0  0  0  0  0  0  0
    2.4376   -1.5772    0.0186 H   0  0  0  0  0  0  0  0  0  0  0  0
    1.7809   -3.1994   -1.2023 C   0  0  0  0  0  0  0  0  0  0  0  0
    2.3637   -4.0281   -0.8107 H   0  0  0  0  0  0  0  0  0  0  0  0
    0.8882   -3.3008   -2.1579 N   0  0  0  0  0  0  0  0  0  0  0  0
    0.3621   -2.0252   -2.3257 C   0  0  0  0  0  0  0  0  0  0  0  0
   -0.4088   -1.7673   -3.0457 H   0  0  0  0  0  0  0  0  0  0  0  0
   -0.2306    2.2298    0.0551 C   0  0  0  0  0  0  0  0  0  0  0  0
   -1.3305    2.7267    0.2728 O   0  0  0  0  0  0  0  0  0  0  0  0
    0.8388    3.0776   -0.1813 N   0  0  0  0  0  0  0  0  0  0  0  0
    1.7505    2.6573   -0.3348 H   0  0  0  0  0  0  0  0  0  0  0  0
    0.7401    4.5313   -0.1122 C   0  0  0  0  0  0  0  0  0  0  0  0
    0.4674    4.8487    0.8997 H   0  0  0  0  0  0  0  0  0  0  0  0
    1.6994    4.9888   -0.3726 H   0  0  0  0  0  0  0  0  0  0  0  0
   -0.0173    4.8985   -0.8128 H   0  0  0  0  0  0  0  0  0  0  0  0
  1  2  1  0  0  0  0
  2  3  1  0  0  0  0
  2  4  1  0  0  0  0
  2  5  1  0  0  0  0
  5  6  2  0  0  0  0
  5  7  1  0  0  0  0
  7  8  1  0  0  0  0
  7  9  1  0  0  0  0
  9 10  1  0  0  0  0
  9 11  1  0  0  0  0
  9 22  1  0  0  0  0
 11 12  1  0  0  0  0
 11 13  1  0  0  0  0
 11 14  1  0  0  0  0
 14 15  1  0  0  0  0
 14 20  2  0  0  0  0
 15 16  1  0  0  0  0
 15 17  1  0  0  0  0
 17 18  1  0  0  0  0
 17 19  2  0  0  0  0
 19 20  1  0  0  0  0
 20 21  1  0  0  0  0
 22 23  2  0  0  0  0
 22 24  1  0  0  0  0
 24 25  1  0  0  0  0
 24 26  1  0  0  0  0
 26 27  1  0  0  0  0
 26 28  1  0  0  0  0
 26 29  1  0  0  0  0
M  END
$$$$

  -OEChem-01062216083D

 29 29  0     1  0  0  0  0  0999 V2000
   -3.2645   -2.4224    1.2725 H   0  0  0  0  0  0  0  0  0  0  0  0
   -3.1787   -1.5287    0.6482 C   0  0  0  0  0  0  0  0  0  0  0  0
   -3.8049   -0.7404    1.0728 H   0  0  0  0  0  0  0  0  0  0  0  0
   -3.5334   -1.7663   -0.3575 H   0  0  0  0  0  0  0  0  0  0  0  0
   -1.7345   -1.0690    0.5896 C   0  0  0  0  0  0  0  0  0  0  0  0
   -0.8797   -1.6789    1.2147 O   0  0  0  0  0  0  0  0  0  0  0  0
   -1.4108    0.0604   -0.1373 N   0  0  0  0  0  0  0  0  0  0  0  0
   -2.1927    0.6558   -0.4028 H   0  0  0  0  0  0  0  0  0  0  0  0
   -0.0812    0.6945   -0.0908 C   0  0  1  0  0  0  0  0  0  0  0  0
    0.4855    0.3521    0.7811 H   0  0  0  0  0  0  0  0  0  0  0  0
    0.6926    0.3253   -1.3748 C   0  0  0  0  0  0  0  0  0  0  0  0
    0.1180    0.6513   -2.2487 H   0  0  0  0  0  0  0  0  0  0  0  0
    1.6579    0.8384   -1.4005 H   0  0  0  0  0  0  0  0  0  0  0  0
    0.9561   -1.1547   -1.4649 C   0  0  0  0  0  0  0  0  0  0  0  0
    1.8758   -1.9013   -0.7628 N   0  0  0  0  0  0  0  0  0  0  0  0
    2.4306   -1.5847    0.0289 H   0  0  0  0  0  0  0  0  0  0  0  0
    1.7812   -3.2137   -1.1871 C   0  0  0  0  0  0  0  0  0  0  0  0
    2.3594   -4.0410   -0.7859 H   0  0  0  0  0  0  0  0  0  0  0  0
    0.8941   -3.3200   -2.1475 N   0  0  0  0  0  0  0  0  0  0  0  0
    0.3703   -2.0451   -2.3263 C   0  0  0  0  0  0  0  0  0  0  0  0
   -0.3957   -1.7907   -3.0527 H   0  0  0  0  0  0  0  0  0  0  0  0
   -0.2306    2.2312    0.0418 C   0  0  0  0  0  0  0  0  0  0  0  0
   -1.2599    2.7016    0.5128 O   0  0  0  0  0  0  0  0  0  0  0  0
    0.7080    3.1100   -0.4749 N   0  0  0  0  0  0  0  0  0  0  0  0
    1.5620    2.7188   -0.8603 H   0  0  0  0  0  0  0  0  0  0  0  0
    0.5693    4.5609   -0.4119 C   0  0  0  0  0  0  0  0  0  0  0  0
    0.5429    4.8982    0.6297 H   0  0  0  0  0  0  0  0  0  0  0  0
    1.4147    5.0442   -0.9110 H   0  0  0  0  0  0  0  0  0  0  0  0
   -0.3523    4.8808   -0.9095 H   0  0  0  0  0  0  0  0  0  0  0  0
  1  2  1  0  0  0  0
  2  3  1  0  0  0  0
  2  4  1  0  0  0  0
  2  5  1  0  0  0  0
  5  6  2  0  0  0  0
  5  7  1  0  0  0  0
  7  8  1  0  0  0  0
  7  9  1  0  0  0  0
  9 10  1  0  0  0  0
  9 11  1  0  0  0  0
  9 22  1  0  0  0  0
 11 12  1  0  0  0  0
 11 13  1  0  0  0  0
 11 14  1  0  0  0  0
 14 15  1  0  0  0  0
 14 20  2  0  0  0  0
 15 16  1  0  0  0  0
 15 17  1  0  0  0  0
 17 18  1  0  0  0  0
 17 19  2  0  0  0  0
 19 20  1  0  0  0  0
 20 21  1  0  0  0  0
 22 23  2  0  0  0  0
 22 24  1  0  0  0  0
 24 25  1  0  0  0  0
 24 26  1  0  0  0  0
 26 27  1  0  0  0  0
 26 28  1  0  0  0  0
 26 29  1  0  0  0  0
M  END
$$$$

  -OEChem-01062216083D

 29 29  0     1  0  0  0  0  0999 V2000
   -3.2607   -2.4157    1.2779 H   0  0  0  0  0  0  0  0  0  0  0  0
   -3.1787   -1.5223    0.6526 C   0  0  0  0  0  0  0  0  0  0  0  0
   -3.8005   -0.7334    1.0826 H   0  0  0  0  0  0  0  0  0  0  0  0
   -3.5422   -1.7603   -0.3498 H   0  0  0  0  0  0  0  0  0  0  0  0
   -1.7345   -1.0638    0.5830 C   0  0  0  0  0  0  0  0  0  0  0  0
   -0.8760   -1.6789    1.1975 O   0  0  0  0  0  0  0  0  0  0  0  0
   -1.4158    0.0668   -0.1449 N   0  0  0  0  0  0  0  0  0  0  0  0
   -2.2007    0.6566   -0.4103 H   0  0  0  0  0  0  0  0  0  0  0  0
   -0.0839    0.6973   -0.1085 C   0  0  1  0  0  0  0  0  0  0  0  0
    0.4834    0.3576    0.7643 H   0  0  0  0  0  0  0  0  0  0  0  0
    0.6941    0.3179   -1.3868 C   0  0  0  0  0  0  0  0  0  0  0  0
    0.1231    0.6359   -2.2657 H   0  0  0  0  0  0  0  0  0  0  0  0
    1.6598    0.8315   -1.4079 H   0  0  0  0  0  0  0  0  0  0  0  0
    0.9588   -1.1621   -1.4657 C   0  0  0  0  0  0  0  0  0  0  0  0
    1.8774   -1.9013   -0.7546 N   0  0  0  0  0  0  0  0  0  0  0  0
    2.4293   -1.5771    0.0363 H   0  0  0  0  0  0  0  0  0  0  0  0
    1.7865   -3.2172   -1.1686 C   0  0  0  0  0  0  0  0  0  0  0  0
    2.3657   -4.0398   -0.7590 H   0  0  0  0  0  0  0  0  0  0  0  0
    0.9031   -3.3328   -2.1315 N   0  0  0  0  0  0  0  0  0  0  0  0
    0.3777   -2.0603   -2.3218 C   0  0  0  0  0  0  0  0  0  0  0  0
   -0.3864   -1.8130   -3.0524 H   0  0  0  0  0  0  0  0  0  0  0  0
   -0.2330    2.2333    0.0293 C   0  0  0  0  0  0  0  0  0  0  0  0
   -1.1209    2.6876    0.7401 O   0  0  0  0  0  0  0  0  0  0  0  0
    0.5076    3.1251   -0.7309 N   0  0  0  0  0  0  0  0  0  0  0  0
    1.2271    2.7469   -1.3391 H   0  0  0  0  0  0  0  0  0  0  0  0
    0.3375    4.5727   -0.6643 C   0  0  0  0  0  0  0  0  0  0  0  0
    0.5635    4.9391    0.3428 H   0  0  0  0  0  0  0  0  0  0  0  0
    1.0115    5.0660   -1.3713 H   0  0  0  0  0  0  0  0  0  0  0  0
   -0.6911    4.8507   -0.9178 H   0  0  0  0  0  0  0  0  0  0  0  0
  1  2  1  0  0  0  0
  2  3  1  0  0  0  0
  2  4  1  0  0  0  0
  2  5  1  0  0  0  0
  5  6  2  0  0  0  0
  5  7  1  0  0  0  0
  7  8  1  0  0  0  0
  7  9  1  0  0  0  0
  9 10  1  0  0  0  0
  9 11  1  0  0  0  0
  9 22  1  0  0  0  0
 11 12  1  0  0  0  0
 11 13  1  0  0  0  0
 11 14  1  0  0  0  0
 14 15  1  0  0  0  0
 14 20  2  0  0  0  0
 15 16  1  0  0  0  0
 15 17  1  0  0  0  0
 17 18  1  0  0  0  0
 17 19  2  0  0  0  0
 19 20  1  0  0  0  0
 20 21  1  0  0  0  0
 22 23  2  0  0  0  0
 22 24  1  0  0  0  0
 24 25  1  0  0  0  0
 24 26  1  0  0  0  0
 26 27  1  0  0  0  0
 26 28  1  0  0  0  0
 26 29  1  0  0  0  0
M  END
$$$$

  -OEChem-01062216083D

 29 29  0     1  0  0  0  0  0999 V2000
   -3.2622   -2.4088    1.2967 H   0  0  0  0  0  0  0  0  0  0  0  0
   -3.1838   -1.5209    0.6629 C   0  0  0  0  0  0  0  0  0  0  0  0
   -3.8025   -0.7279    1.0898 H   0  0  0  0  0  0  0  0  0  0  0  0
   -3.5531   -1.7676   -0.3353 H   0  0  0  0  0  0  0  0  0  0  0  0
   -1.7400   -1.0633    0.5814 C   0  0  0  0  0  0  0  0  0  0  0  0
   -0.8774   -1.6801    1.1879 O   0  0  0  0  0  0  0  0  0  0  0  0
   -1.4270    0.0685   -0.1480 N   0  0  0  0  0  0  0  0  0  0  0  0
   -2.2149    0.6447   -0.4317 H   0  0  0  0  0  0  0  0  0  0  0  0
   -0.0948    0.6991   -0.1214 C   0  0  1  0  0  0  0  0  0  0  0  0
    0.4738    0.3615    0.7518 H   0  0  0  0  0  0  0  0  0  0  0  0
    0.6891    0.3177   -1.3949 C   0  0  0  0  0  0  0  0  0  0  0  0
    0.1182    0.6236   -2.2779 H   0  0  0  0  0  0  0  0  0  0  0  0
    1.6494    0.8424   -1.4144 H   0  0  0  0  0  0  0  0  0  0  0  0
    0.9610   -1.1612   -1.4667 C   0  0  0  0  0  0  0  0  0  0  0  0
    1.8809   -1.8917   -0.7486 N   0  0  0  0  0  0  0  0  0  0  0  0
    2.4244   -1.5610    0.0455 H   0  0  0  0  0  0  0  0  0  0  0  0
    1.8017   -3.2097   -1.1585 C   0  0  0  0  0  0  0  0  0  0  0  0
    2.3839   -4.0269   -0.7428 H   0  0  0  0  0  0  0  0  0  0  0  0
    0.9243   -3.3346   -2.1258 N   0  0  0  0  0  0  0  0  0  0  0  0
    0.3909   -2.0665   -2.3227 C   0  0  0  0  0  0  0  0  0  0  0  0
   -0.3703   -1.8267   -3.0587 H   0  0  0  0  0  0  0  0  0  0  0  0
   -0.2410    2.2334    0.0192 C   0  0  0  0  0  0  0  0  0  0  0  0
   -0.9279    2.6863    0.9249 O   0  0  0  0  0  0  0  0  0  0  0  0
    0.2495    3.1181   -0.9286 N   0  0  0  0  0  0  0  0  0  0  0  0
    0.7877    2.7369   -1.7004 H   0  0  0  0  0  0  0  0  0  0  0  0
    0.0562    4.5624   -0.8549 C   0  0  0  0  0  0  0  0  0  0  0  0
    0.5197    4.9653    0.0519 H   0  0  0  0  0  0  0  0  0  0  0  0
    0.5118    5.0504   -1.7219 H   0  0  0  0  0  0  0  0  0  0  0  0
   -1.0112    4.8072   -0.8433 H   0  0  0  0  0  0  0  0  0  0  0  0
  1  2  1  0  0  0  0
  2  3  1  0  0  0  0
  2  4  1  0  0  0  0
  2  5  1  0  0  0  0
  5  6  2  0  0  0  0
  5  7  1  0  0  0  0
  7  8  1  0  0  0  0
  7  9  1  0  0  0  0
  9 10  1  0  0  0  0
  9 11  1  0  0  0  0
  9 22  1  0  0  0  0
 11 12  1  0  0  0  0
 11 13  1  0  0  0  0
 11 14  1  0  0  0  0
 14 15  1  0  0  0  0
 14 20  2  0  0  0  0
 15 16  1  0  0  0  0
 15 17  1  0  0  0  0
 17 18  1  0  0  0  0
 17 19  2  0  0  0  0
 19 20  1  0  0  0  0
 20 21  1  0  0  0  0
 22 23  2  0  0  0  0
 22 24  1  0  0  0  0
 24 25  1  0  0  0  0
 24 26  1  0  0  0  0
 26 27  1  0  0  0  0
 26 28  1  0  0  0  0
 26 29  1  0  0  0  0
M  END
$$$$

  -OEChem-01062216083D

 29 29  0     1  0  0  0  0  0999 V2000
   -3.2388   -2.4565    1.2726 H   0  0  0  0  0  0  0  0  0  0  0  0
   -3.1720   -1.5636    0.6446 C   0  0  0  0  0  0  0  0  0  0  0  0
   -3.8258   -0.7925    1.0585 H   0  0  0  0  0  0  0  0  0  0  0  0
   -3.5080   -1.8174   -0.3635 H   0  0  0  0  0  0  0  0  0  0  0  0
   -1.7411   -1.0619    0.6023 C   0  0  0  0  0  0  0  0  0  0  0  0
   -0.8763   -1.6536    1.2297 O   0  0  0  0  0  0  0  0  0  0  0  0
   -1.4402    0.0706   -0.1313 N   0  0  0  0  0  0  0  0  0  0  0  0
   -2.2304    0.6055   -0.4795 H   0  0  0  0  0  0  0  0  0  0  0  0
   -0.1125    0.7109   -0.1246 C   0  0  1  0  0  0  0  0  0  0  0  0
    0.4667    0.3784    0.7439 H   0  0  0  0  0  0  0  0  0  0  0  0
    0.6625    0.3289   -1.4023 C   0  0  0  0  0  0  0  0  0  0  0  0
    0.0806    0.6189   -2.2834 H   0  0  0  0  0  0  0  0  0  0  0  0
    1.6153    0.8675   -1.4343 H   0  0  0  0  0  0  0  0  0  0  0  0
    0.9444   -1.1487   -1.4633 C   0  0  0  0  0  0  0  0  0  0  0  0
    1.8765   -1.8638   -0.7458 N   0  0  0  0  0  0  0  0  0  0  0  0
    2.4269   -1.5190    0.0376 H   0  0  0  0  0  0  0  0  0  0  0  0
    1.8022   -3.1872   -1.1386 C   0  0  0  0  0  0  0  0  0  0  0  0
    2.3952   -3.9950   -0.7194 H   0  0  0  0  0  0  0  0  0  0  0  0
    0.9150   -3.3303   -2.0948 N   0  0  0  0  0  0  0  0  0  0  0  0
    0.3716   -2.0683   -2.3022 C   0  0  0  0  0  0  0  0  0  0  0  0
   -0.3998   -1.8437   -3.0326 H   0  0  0  0  0  0  0  0  0  0  0  0
   -0.2551    2.2433    0.0141 C   0  0  0  0  0  0  0  0  0  0  0  0
   -0.6620    2.7157    1.0658 O   0  0  0  0  0  0  0  0  0  0  0  0
   -0.0613    3.1005   -1.0577 N   0  0  0  0  0  0  0  0  0  0  0  0
    0.2559    2.6990   -1.9345 H   0  0  0  0  0  0  0  0  0  0  0  0
   -0.2347    4.5462   -0.9704 C   0  0  0  0  0  0  0  0  0  0  0  0
    0.4583    4.9708   -0.2364 H   0  0  0  0  0  0  0  0  0  0  0  0
   -0.0372    5.0105   -1.9415 H   0  0  0  0  0  0  0  0  0  0  0  0
   -1.2590    4.7935   -0.6720 H   0  0  0  0  0  0  0  0  0  0  0  0
  1  2  1  0  0  0  0
  2  3  1  0  0  0  0
  2  4  1  0  0  0  0
  2  5  1  0  0  0  0
  5  6  2  0  0  0  0
  5  7  1  0  0  0  0
  7  8  1  0  0  0  0
  7  9  1  0  0  0  0
  9 10  1  0  0  0  0
  9 11  1  0  0  0  0
  9 22  1  0  0  0  0
 11 12  1  0  0  0  0
 11 13  1  0  0  0  0
 11 14  1  0  0  0  0
 14 15  1  0  0  0  0
 14 20  2  0  0  0  0
 15 16  1  0  0  0  0
 15 17  1  0  0  0  0
 17 18  1  0  0  0  0
 17 19  2  0  0  0  0
 19 20  1  0  0  0  0
 20 21  1  0  0  0  0
 22 23  2  0  0  0  0
 22 24  1  0  0  0  0
 24 25  1  0  0  0  0
 24 26  1  0  0  0  0
 26 27  1  0  0  0  0
 26 28  1  0  0  0  0
 26 29  1  0  0  0  0
M  END
$$$$

  -OEChem-01062216083D

 29 29  0     1  0  0  0  0  0999 V2000
   -3.2221   -2.5009    1.2580 H   0  0  0  0  0  0  0  0  0  0  0  0
   -3.1645   -1.6048    0.6337 C   0  0  0  0  0  0  0  0  0  0  0  0
   -3.8478   -0.8524    1.0342 H   0  0  0  0  0  0  0  0  0  0  0  0
   -3.4703   -1.8649   -0.3824 H   0  0  0  0  0  0  0  0  0  0  0  0
   -1.7469   -1.0655    0.6247 C   0  0  0  0  0  0  0  0  0  0  0  0
   -0.8823   -1.6344    1.2721 O   0  0  0  0  0  0  0  0  0  0  0  0
   -1.4556    0.0679   -0.1120 N   0  0  0  0  0  0  0  0  0  0  0  0
   -2.2434    0.5620   -0.5198 H   0  0  0  0  0  0  0  0  0  0  0  0
   -0.1317    0.7170   -0.1188 C   0  0  1  0  0  0  0  0  0  0  0  0
    0.4566    0.3860    0.7445 H   0  0  0  0  0  0  0  0  0  0  0  0
    0.6395    0.3440   -1.4000 C   0  0  0  0  0  0  0  0  0  0  0  0
    0.0520    0.6256   -2.2796 H   0  0  0  0  0  0  0  0  0  0  0  0
    1.5856    0.8946   -1.4374 H   0  0  0  0  0  0  0  0  0  0  0  0
    0.9318   -1.1317   -1.4583 C   0  0  0  0  0  0  0  0  0  0  0  0
    1.8721   -1.8391   -0.7438 N   0  0  0  0  0  0  0  0  0  0  0  0
    2.4274   -1.4876    0.0334 H   0  0  0  0  0  0  0  0  0  0  0  0
    1.8040   -3.1639   -1.1327 C   0  0  0  0  0  0  0  0  0  0  0  0
    2.4044   -3.9670   -0.7149 H   0  0  0  0  0  0  0  0  0  0  0  0
    0.9115   -3.3147   -2.0828 N   0  0  0  0  0  0  0  0  0  0  0  0
    0.3602   -2.0566   -2.2913 C   0  0  0  0  0  0  0  0  0  0  0  0
   -0.4165   -1.8375   -3.0176 H   0  0  0  0  0  0  0  0  0  0  0  0
   -0.2717    2.2481    0.0177 C   0  0  0  0  0  0  0  0  0  0  0  0
   -0.3546    2.7542    1.1270 O   0  0  0  0  0  0  0  0  0  0  0  0
   -0.3926    3.0671   -1.0937 N   0  0  0  0  0  0  0  0  0  0  0  0
   -0.3300    2.6350   -2.0102 H   0  0  0  0  0  0  0  0  0  0  0  0
   -0.5457    4.5153   -1.0079 C   0  0  0  0  0  0  0  0  0  0  0  0
    0.3171    4.9620   -0.5026 H   0  0  0  0  0  0  0  0  0  0  0  0
   -0.6216    4.9488   -2.0097 H   0  0  0  0  0  0  0  0  0  0  0  0
   -1.4524    4.7732   -0.4506 H   0  0  0  0  0  0  0  0  0  0  0  0
  1  2  1  0  0  0  0
  2  3  1  0  0  0  0
  2  4  1  0  0  0  0
  2  5  1  0  0  0  0
  5  6  2  0  0  0  0
  5  7  1  0  0  0  0
  7  8  1  0  0  0  0
  7  9  1  0  0  0  0
  9 10  1  0  0  0  0
  9 11  1  0  0  0  0
  9 22  1  0  0  0  0
 11 12  1  0  0  0  0
 11 13  1  0  0  0  0
 11 14  1  0  0  0  0
 14 15  1  0  0  0  0
 14 20  2  0  0  0  0
 15 16  1  0  0  0  0
 15 17  1  0  0  0  0
 17 18  1  0  0  0  0
 17 19  2  0  0  0  0
 19 20  1  0  0  0  0
 20 21  1  0  0  0  0
 22 23  2  0  0  0  0
 22 24  1  0  0  0  0
 24 25  1  0  0  0  0
 24 26  1  0  0  0  0
 26 27  1  0  0  0  0
 26 28  1  0  0  0  0
 26 29  1  0  0  0  0
M  END
$$$$

  -OEChem-01062216083D

 29 29  0     1  0  0  0  0  0999 V2000
   -3.2083   -2.5444    1.2424 H   0  0  0  0  0  0  0  0  0  0  0  0
   -3.1592   -1.6435    0.6242 C   0  0  0  0  0  0  0  0  0  0  0  0
   -3.8685   -0.9098    1.0144 H   0  0  0  0  0  0  0  0  0  0  0  0
   -3.4377   -1.9053   -0.3994 H   0  0  0  0  0  0  0  0  0  0  0  0
   -1.7546   -1.0716    0.6489 C   0  0  0  0  0  0  0  0  0  0  0  0
   -0.8954   -1.6152    1.3242 O   0  0  0  0  0  0  0  0  0  0  0  0
   -1.4686    0.0629   -0.0885 N   0  0  0  0  0  0  0  0  0  0  0  0
   -2.2491    0.5184   -0.5508 H   0  0  0  0  0  0  0  0  0  0  0  0
   -0.1471    0.7183   -0.1017 C   0  0  1  0  0  0  0  0  0  0  0  0
    0.4479    0.3848    0.7562 H   0  0  0  0  0  0  0  0  0  0  0  0
    0.6202    0.3628   -1.3887 C   0  0  0  0  0  0  0  0  0  0  0  0
    0.0310    0.6509   -2.2645 H   0  0  0  0  0  0  0  0  0  0  0  0
    1.5633    0.9183   -1.4230 H   0  0  0  0  0  0  0  0  0  0  0  0
    0.9185   -1.1113   -1.4557 C   0  0  0  0  0  0  0  0  0  0  0  0
    1.8652   -1.8154   -0.7466 N   0  0  0  0  0  0  0  0  0  0  0  0
    2.4249   -1.4610    0.0264 H   0  0  0  0  0  0  0  0  0  0  0  0
    1.8028   -3.1397   -1.1382 C   0  0  0  0  0  0  0  0  0  0  0  0
    2.4088   -3.9404   -0.7244 H   0  0  0  0  0  0  0  0  0  0  0  0
    0.9066   -3.2931   -2.0846 N   0  0  0  0  0  0  0  0  0  0  0  0
    0.3491   -2.0370   -2.2896 C   0  0  0  0  0  0  0  0  0  0  0  0
   -0.4312   -1.8205   -3.0128 H   0  0  0  0  0  0  0  0  0  0  0  0
   -0.2872    2.2478    0.0343 C   0  0  0  0  0  0  0  0  0  0  0  0
   -0.0366    2.7971    1.0968 O   0  0  0  0  0  0  0  0  0  0  0  0
   -0.7179    3.0199   -1.0324 N   0  0  0  0  0  0  0  0  0  0  0  0
   -0.8958    2.5510   -1.9150 H   0  0  0  0  0  0  0  0  0  0  0  0
   -0.8573    4.4703   -0.9648 C   0  0  0  0  0  0  0  0  0  0  0  0
    0.1048    4.9374   -0.7286 H   0  0  0  0  0  0  0  0  0  0  0  0
   -1.2053    4.8628   -1.9252 H   0  0  0  0  0  0  0  0  0  0  0  0
   -1.5832    4.7506   -0.1939 H   0  0  0  0  0  0  0  0  0  0  0  0
  1  2  1  0  0  0  0
  2  3  1  0  0  0  0
  2  4  1  0  0  0  0
  2  5  1  0  0  0  0
  5  6  2  0  0  0  0
  5  7  1  0  0  0  0
  7  8  1  0  0  0  0
  7  9  1  0  0  0  0
  9 10  1  0  0  0  0
  9 11  1  0  0  0  0
  9 22  1  0  0  0  0
 11 12  1  0  0  0  0
 11 13  1  0  0  0  0
 11 14  1  0  0  0  0
 14 15  1  0  0  0  0
 14 20  2  0  0  0  0
 15 16  1  0  0  0  0
 15 17  1  0  0  0  0
 17 18  1  0  0  0  0
 17 19  2  0  0  0  0
 19 20  1  0  0  0  0
 20 21  1  0  0  0  0
 22 23  2  0  0  0  0
 22 24  1  0  0  0  0
 24 25  1  0  0  0  0
 24 26  1  0  0  0  0
 26 27  1  0  0  0  0
 26 28  1  0  0  0  0
 26 29  1  0  0  0  0
M  END
$$$$

  -OEChem-01062216083D

 29 29  0     1  0  0  0  0  0999 V2000
   -3.1996   -2.5874    1.2349 H   0  0  0  0  0  0  0  0  0  0  0  0
   -3.1559   -1.6849    0.6185 C   0  0  0  0  0  0  0  0  0  0  0  0
   -3.8894   -0.9670    0.9930 H   0  0  0  0  0  0  0  0  0  0  0  0
   -3.4051   -1.9515   -0.4112 H   0  0  0  0  0  0  0  0  0  0  0  0
   -1.7649   -1.0833    0.6748 C   0  0  0  0  0  0  0  0  0  0  0  0
   -0.9118   -1.6029    1.3757 O   0  0  0  0  0  0  0  0  0  0  0  0
   -1.4846    0.0521   -0.0634 N   0  0  0  0  0  0  0  0  0  0  0  0
   -2.2561    0.4709   -0.5718 H   0  0  0  0  0  0  0  0  0  0  0  0
   -0.1663    0.7162   -0.0765 C   0  0  1  0  0  0  0  0  0  0  0  0
    0.4331    0.3802    0.7772 H   0  0  0  0  0  0  0  0  0  0  0  0
    0.5971    0.3800   -1.3693 C   0  0  0  0  0  0  0  0  0  0  0  0
    0.0034    0.6777   -2.2391 H   0  0  0  0  0  0  0  0  0  0  0  0
    1.5367    0.9419   -1.4004 H   0  0  0  0  0  0  0  0  0  0  0  0
    0.9039   -1.0917   -1.4517 C   0  0  0  0  0  0  0  0  0  0  0  0
    1.8586   -1.7937   -0.7517 N   0  0  0  0  0  0  0  0  0  0  0  0
    2.4262   -1.4379    0.0149 H   0  0  0  0  0  0  0  0  0  0  0  0
    1.8053   -3.1154   -1.1528 C   0  0  0  0  0  0  0  0  0  0  0  0
    2.4218   -3.9138   -0.7495 H   0  0  0  0  0  0  0  0  0  0  0  0
    0.9037   -3.2692   -2.0942 N   0  0  0  0  0  0  0  0  0  0  0  0
    0.3374   -2.0156   -2.2893 C   0  0  0  0  0  0  0  0  0  0  0  0
   -0.4471   -1.8004   -3.0083 H   0  0  0  0  0  0  0  0  0  0  0  0
   -0.3029    2.2446    0.0572 C   0  0  0  0  0  0  0  0  0  0  0  0
    0.2422    2.8352    0.9779 O   0  0  0  0  0  0  0  0  0  0  0  0
   -1.0128    2.9729   -0.8835 N   0  0  0  0  0  0  0  0  0  0  0  0
   -1.3931    2.4727   -1.6803 H   0  0  0  0  0  0  0  0  0  0  0  0
   -1.1362    4.4255   -0.8402 C   0  0  0  0  0  0  0  0  0  0  0  0
   -0.1486    4.8957   -0.8920 H   0  0  0  0  0  0  0  0  0  0  0  0
   -1.7331    4.7804   -1.6858 H   0  0  0  0  0  0  0  0  0  0  0  0
   -1.6283    4.7405    0.0860 H   0  0  0  0  0  0  0  0  0  0  0  0
  1  2  1  0  0  0  0
  2  3  1  0  0  0  0
  2  4  1  0  0  0  0
  2  5  1  0  0  0  0
  5  6  2  0  0  0  0
  5  7  1  0  0  0  0
  7  8  1  0  0  0  0
  7  9  1  0  0  0  0
  9 10  1  0  0  0  0
  9 11  1  0  0  0  0
  9 22  1  0  0  0  0
 11 12  1  0  0  0  0
 11 13  1  0  0  0  0
 11 14  1  0  0  0  0
 14 15  1  0  0  0  0
 14 20  2  0  0  0  0
 15 16  1  0  0  0  0
 15 17  1  0  0  0  0
 17 18  1  0  0  0  0
 17 19  2  0  0  0  0
 19 20  1  0  0  0  0
 20 21  1  0  0  0  0
 22 23  2  0  0  0  0
 22 24  1  0  0  0  0
 24 25  1  0  0  0  0
 24 26  1  0  0  0  0
 26 27  1  0  0  0  0
 26 28  1  0  0  0  0
 26 29  1  0  0  0  0
M  END
$$$$

  -OEChem-01062216083D

 29 29  0     1  0  0  0  0  0999 V2000
   -3.0862   -2.6926    1.1936 H   0  0  0  0  0  0  0  0  0  0  0  0
   -3.0531   -1.8238    0.5299 C   0  0  0  0  0  0  0  0  0  0  0  0
   -3.9131   -1.1851    0.7439 H   0  0  0  0  0  0  0  0  0  0  0  0
   -3.1105   -2.1717   -0.5042 H   0  0  0  0  0  0  0  0  0  0  0  0
   -1.7650   -1.0520    0.7455 C   0  0  0  0  0  0  0  0  0  0  0  0
   -0.9656   -1.4397    1.5815 O   0  0  0  0  0  0  0  0  0  0  0  0
   -1.5127    0.0785   -0.0113 N   0  0  0  0  0  0  0  0  0  0  0  0
   -2.1723    0.2654   -0.7580 H   0  0  0  0  0  0  0  0  0  0  0  0
   -0.1922    0.7423   -0.0498 C   0  0  1  0  0  0  0  0  0  0  0  0
    0.4251    0.4066    0.7911 H   0  0  0  0  0  0  0  0  0  0  0  0
    0.5397    0.3980   -1.3571 C   0  0  0  0  0  0  0  0  0  0  0  0
   -0.0696    0.6996   -2.2150 H   0  0  0  0  0  0  0  0  0  0  0  0
    1.4829    0.9531   -1.4102 H   0  0  0  0  0  0  0  0  0  0  0  0
    0.8346   -1.0765   -1.4314 C   0  0  0  0  0  0  0  0  0  0  0  0
    1.8002   -1.7763   -0.7442 N   0  0  0  0  0  0  0  0  0  0  0  0
    2.3971   -1.4112   -0.0042 H   0  0  0  0  0  0  0  0  0  0  0  0
    1.7311   -3.1020   -1.1291 C   0  0  0  0  0  0  0  0  0  0  0  0
    2.3531   -3.8991   -0.7322 H   0  0  0  0  0  0  0  0  0  0  0  0
    0.8044   -3.2610   -2.0452 N   0  0  0  0  0  0  0  0  0  0  0  0
    0.2455   -2.0053   -2.2473 C   0  0  0  0  0  0  0  0  0  0  0  0
   -0.5514   -1.7926   -2.9534 H   0  0  0  0  0  0  0  0  0  0  0  0
   -0.2924    2.2746    0.0745 C   0  0  0  0  0  0  0  0  0  0  0  0
    0.5538    2.8894    0.7074 O   0  0  0  0  0  0  0  0  0  0  0  0
   -1.2333    2.9872   -0.6506 N   0  0  0  0  0  0  0  0  0  0  0  0
   -1.9295    2.4609   -1.1660 H   0  0  0  0  0  0  0  0  0  0  0  0
   -1.3306    4.4421   -0.6198 C   0  0  0  0  0  0  0  0  0  0  0  0
   -0.4044    4.8962   -0.9872 H   0  0  0  0  0  0  0  0  0  0  0  0
   -2.1553    4.7808   -1.2543 H   0  0  0  0  0  0  0  0  0  0  0  0
   -1.5135    4.7921    0.4017 H   0  0  0  0  0  0  0  0  0  0  0  0
  1  2  1  0  0  0  0
  2  3  1  0  0  0  0
  2  4  1  0  0  0  0
  2  5  1  0  0  0  0
  5  6  2  0  0  0  0
  5  7  1  0  0  0  0
  7  8  1  0  0  0  0
  7  9  1  0  0  0  0
  9 10  1  0  0  0  0
  9 11  1  0  0  0  0
  9 22  1  0  0  0  0
 11 12  1  0  0  0  0
 11 13  1  0  0  0  0
 11 14  1  0  0  0  0
 14 15  1  0  0  0  0
 14 20  2  0  0  0  0
 15 16  1  0  0  0  0
 15 17  1  0  0  0  0
 17 18  1  0  0  0  0
 17 19  2  0  0  0  0
 19 20  1  0  0  0  0
 20 21  1  0  0  0  0
 22 23  2  0  0  0  0
 22 24  1  0  0  0  0
 24 25  1  0  0  0  0
 24 26  1  0  0  0  0
 26 27  1  0  0  0  0
 26 28  1  0  0  0  0
 26 29  1  0  0  0  0
M  END
$$$$

  -OEChem-01062216083D

 29 29  0     1  0  0  0  0  0999 V2000
   -3.0403   -2.7086    1.1846 H   0  0  0  0  0  0  0  0  0  0  0  0
   -2.9786   -1.8843    0.4685 C   0  0  0  0  0  0  0  0  0  0  0  0
   -3.8854   -1.2805    0.5488 H   0  0  0  0  0  0  0  0  0  0  0  0
   -2.9104   -2.3003   -0.5397 H   0  0  0  0  0  0  0  0  0  0  0  0
   -1.7577   -1.0328    0.7596 C   0  0  0  0  0  0  0  0  0  0  0  0
   -0.9992   -1.3547    1.6592 O   0  0  0  0  0  0  0  0  0  0  0  0
   -1.5187    0.0957   -0.0042 N   0  0  0  0  0  0  0  0  0  0  0  0
   -2.1166    0.1935   -0.8180 H   0  0  0  0  0  0  0  0  0  0  0  0
   -0.1961    0.7568   -0.0465 C   0  0  1  0  0  0  0  0  0  0  0  0
    0.4263    0.4212    0.7901 H   0  0  0  0  0  0  0  0  0  0  0  0
    0.5201    0.4020   -1.3602 C   0  0  0  0  0  0  0  0  0  0  0  0
   -0.0973    0.7043   -2.2122 H   0  0  0  0  0  0  0  0  0  0  0  0
    1.4667    0.9494   -1.4277 H   0  0  0  0  0  0  0  0  0  0  0  0
    0.8031   -1.0756   -1.4275 C   0  0  0  0  0  0  0  0  0  0  0  0
    1.7708   -1.7766   -0.7447 N   0  0  0  0  0  0  0  0  0  0  0  0
    2.3921   -1.4047   -0.0284 H   0  0  0  0  0  0  0  0  0  0  0  0
    1.6831   -3.1065   -1.1109 C   0  0  0  0  0  0  0  0  0  0  0  0
    2.3037   -3.9046   -0.7133 H   0  0  0  0  0  0  0  0  0  0  0  0
    0.7393   -3.2677   -2.0090 N   0  0  0  0  0  0  0  0  0  0  0  0
    0.1925   -2.0086   -2.2224 C   0  0  0  0  0  0  0  0  0  0  0  0
   -0.6138   -1.7970   -2.9180 H   0  0  0  0  0  0  0  0  0  0  0  0
   -0.2864    2.2902    0.0760 C   0  0  0  0  0  0  0  0  0  0  0  0
    0.6969    2.9267    0.4284 O   0  0  0  0  0  0  0  0  0  0  0  0
   -1.3959    2.9749   -0.3898 N   0  0  0  0  0  0  0  0  0  0  0  0
   -2.2288    2.4250   -0.5696 H   0  0  0  0  0  0  0  0  0  0  0  0
   -1.5187    4.4264   -0.3187 C   0  0  0  0  0  0  0  0  0  0  0  0
   -0.7105    4.9077   -0.8798 H   0  0  0  0  0  0  0  0  0  0  0  0
   -2.4729    4.7474   -0.7474 H   0  0  0  0  0  0  0  0  0  0  0  0
   -1.4745    4.7641    0.7222 H   0  0  0  0  0  0  0  0  0  0  0  0
  1  2  1  0  0  0  0
  2  3  1  0  0  0  0
  2  4  1  0  0  0  0
  2  5  1  0  0  0  0
  5  6  2  0  0  0  0
  5  7  1  0  0  0  0
  7  8  1  0  0  0  0
  7  9  1  0  0  0  0
  9 10  1  0  0  0  0
  9 11  1  0  0  0  0
  9 22  1  0  0  0  0
 11 12  1  0  0  0  0
 11 13  1  0  0  0  0
 11 14  1  0  0  0  0
 14 15  1  0  0  0  0
 14 20  2  0  0  0  0
 15 16  1  0  0  0  0
 15 17  1  0  0  0  0
 17 18  1  0  0  0  0
 17 19  2  0  0  0  0
 19 20  1  0  0  0  0
 20 21  1  0  0  0  0
 22 23  2  0  0  0  0
 22 24  1  0  0  0  0
 24 25  1  0  0  0  0
 24 26  1  0  0  0  0
 26 27  1  0  0  0  0
 26 28  1  0  0  0  0
 26 29  1  0  0  0  0
M  END
$$$$

  -OEChem-01062216083D

 29 29  0     1  0  0  0  0  0999 V2000
   -3.0198   -2.7238    1.1669 H   0  0  0  0  0  0  0  0  0  0  0  0
   -2.9607   -1.8997    0.4502 C   0  0  0  0  0  0  0  0  0  0  0  0
   -3.8767   -1.3084    0.5179 H   0  0  0  0  0  0  0  0  0  0  0  0
   -2.8747   -2.3176   -0.5559 H   0  0  0  0  0  0  0  0  0  0  0  0
   -1.7550   -1.0310    0.7543 C   0  0  0  0  0  0  0  0  0  0  0  0
   -1.0081   -1.3361    1.6693 O   0  0  0  0  0  0  0  0  0  0  0  0
   -1.5173    0.0987   -0.0085 N   0  0  0  0  0  0  0  0  0  0  0  0
   -2.1061    0.1921   -0.8302 H   0  0  0  0  0  0  0  0  0  0  0  0
   -0.1945    0.7607   -0.0465 C   0  0  1  0  0  0  0  0  0  0  0  0
    0.4279    0.4267    0.7904 H   0  0  0  0  0  0  0  0  0  0  0  0
    0.5184    0.3998   -1.3617 C   0  0  0  0  0  0  0  0  0  0  0  0
   -0.1001    0.7030   -2.2127 H   0  0  0  0  0  0  0  0  0  0  0  0
    1.4673    0.9427   -1.4348 H   0  0  0  0  0  0  0  0  0  0  0  0
    0.7979   -1.0790   -1.4261 C   0  0  0  0  0  0  0  0  0  0  0  0
    1.7647   -1.7829   -0.7449 N   0  0  0  0  0  0  0  0  0  0  0  0
    2.3903   -1.4124   -0.0317 H   0  0  0  0  0  0  0  0  0  0  0  0
    1.6730   -3.1124   -1.1116 C   0  0  0  0  0  0  0  0  0  0  0  0
    2.2919   -3.9126   -0.7159 H   0  0  0  0  0  0  0  0  0  0  0  0
    0.7273   -3.2708   -2.0080 N   0  0  0  0  0  0  0  0  0  0  0  0
    0.1842   -2.0100   -2.2208 C   0  0  0  0  0  0  0  0  0  0  0  0
   -0.6217   -1.7957   -2.9161 H   0  0  0  0  0  0  0  0  0  0  0  0
   -0.2877    2.2950    0.0779 C   0  0  0  0  0  0  0  0  0  0  0  0
    0.7332    2.9589    0.1955 O   0  0  0  0  0  0  0  0  0  0  0  0
   -1.4959    2.9471   -0.0979 N   0  0  0  0  0  0  0  0  0  0  0  0
   -2.3286    2.3684   -0.0547 H   0  0  0  0  0  0  0  0  0  0  0  0
   -1.6424    4.3929    0.0254 C   0  0  0  0  0  0  0  0  0  0  0  0
   -1.0009    4.9071   -0.6984 H   0  0  0  0  0  0  0  0  0  0  0  0
   -2.6792    4.6858   -0.1660 H   0  0  0  0  0  0  0  0  0  0  0  0
   -1.3686    4.7213    1.0338 H   0  0  0  0  0  0  0  0  0  0  0  0
  1  2  1  0  0  0  0
  2  3  1  0  0  0  0
  2  4  1  0  0  0  0
  2  5  1  0  0  0  0
  5  6  2  0  0  0  0
  5  7  1  0  0  0  0
  7  8  1  0  0  0  0
  7  9  1  0  0  0  0
  9 10  1  0  0  0  0
  9 11  1  0  0  0  0
  9 22  1  0  0  0  0
 11 12  1  0  0  0  0
 11 13  1  0  0  0  0
 11 14  1  0  0  0  0
 14 15  1  0  0  0  0
 14 20  2  0  0  0  0
 15 16  1  0  0  0  0
 15 17  1  0  0  0  0
 17 18  1  0  0  0  0
 17 19  2  0  0  0  0
 19 20  1  0  0  0  0
 20 21  1  0  0  0  0
 22 23  2  0  0  0  0
 22 24  1  0  0  0  0
 24 25  1  0  0  0  0
 24 26  1  0  0  0  0
 26 27  1  0  0  0  0
 26 28  1  0  0  0  0
 26 29  1  0  0  0  0
M  END
$$$$

  -OEChem-01062216083D

 29 29  0     1  0  0  0  0  0999 V2000
   -3.0221   -2.7198    1.1481 H   0  0  0  0  0  0  0  0  0  0  0  0
   -2.9647   -1.8883    0.4401 C   0  0  0  0  0  0  0  0  0  0  0  0
   -3.8760   -1.2917    0.5231 H   0  0  0  0  0  0  0  0  0  0  0  0
   -2.8908   -2.2953   -0.5716 H   0  0  0  0  0  0  0  0  0  0  0  0
   -1.7503   -1.0314    0.7418 C   0  0  0  0  0  0  0  0  0  0  0  0
   -1.0040   -1.3416    1.6556 O   0  0  0  0  0  0  0  0  0  0  0  0
   -1.5081    0.1017   -0.0138 N   0  0  0  0  0  0  0  0  0  0  0  0
   -2.1069    0.2181   -0.8258 H   0  0  0  0  0  0  0  0  0  0  0  0
   -0.1848    0.7626   -0.0504 C   0  0  1  0  0  0  0  0  0  0  0  0
    0.4374    0.4283    0.7865 H   0  0  0  0  0  0  0  0  0  0  0  0
    0.5255    0.3956   -1.3673 C   0  0  0  0  0  0  0  0  0  0  0  0
   -0.0937    0.6989   -2.2176 H   0  0  0  0  0  0  0  0  0  0  0  0
    1.4769    0.9332   -1.4453 H   0  0  0  0  0  0  0  0  0  0  0  0
    0.8015   -1.0841   -1.4295 C   0  0  0  0  0  0  0  0  0  0  0  0
    1.7683   -1.7883   -0.7487 N   0  0  0  0  0  0  0  0  0  0  0  0
    2.3975   -1.4168   -0.0394 H   0  0  0  0  0  0  0  0  0  0  0  0
    1.6741   -3.1182   -1.1128 C   0  0  0  0  0  0  0  0  0  0  0  0
    2.2926   -3.9182   -0.7162 H   0  0  0  0  0  0  0  0  0  0  0  0
    0.7270   -3.2770   -2.0076 N   0  0  0  0  0  0  0  0  0  0  0  0
    0.1858   -2.0155   -2.2225 C   0  0  0  0  0  0  0  0  0  0  0  0
   -0.6196   -1.8012   -2.9184 H   0  0  0  0  0  0  0  0  0  0  0  0
   -0.2884    2.2971    0.0827 C   0  0  0  0  0  0  0  0  0  0  0  0
    0.7110    2.9947   -0.0269 O   0  0  0  0  0  0  0  0  0  0  0  0
   -1.5220    2.9092    0.2193 N   0  0  0  0  0  0  0  0  0  0  0  0
   -2.3016    2.2982    0.4444 H   0  0  0  0  0  0  0  0  0  0  0  0
   -1.6834    4.3478    0.3940 C   0  0  0  0  0  0  0  0  0  0  0  0
   -1.2478    4.8884   -0.4530 H   0  0  0  0  0  0  0  0  0  0  0  0
   -2.7451    4.6049    0.4560 H   0  0  0  0  0  0  0  0  0  0  0  0
   -1.1910    4.6797    1.3142 H   0  0  0  0  0  0  0  0  0  0  0  0
  1  2  1  0  0  0  0
  2  3  1  0  0  0  0
  2  4  1  0  0  0  0
  2  5  1  0  0  0  0
  5  6  2  0  0  0  0
  5  7  1  0  0  0  0
  7  8  1  0  0  0  0
  7  9  1  0  0  0  0
  9 10  1  0  0  0  0
  9 11  1  0  0  0  0
  9 22  1  0  0  0  0
 11 12  1  0  0  0  0
 11 13  1  0  0  0  0
 11 14  1  0  0  0  0
 14 15  1  0  0  0  0
 14 20  2  0  0  0  0
 15 16  1  0  0  0  0
 15 17  1  0  0  0  0
 17 18  1  0  0  0  0
 17 19  2  0  0  0  0
 19 20  1  0  0  0  0
 20 21  1  0  0  0  0
 22 23  2  0  0  0  0
 22 24  1  0  0  0  0
 24 25  1  0  0  0  0
 24 26  1  0  0  0  0
 26 27  1  0  0  0  0
 26 28  1  0  0  0  0
 26 29  1  0  0  0  0
M  END
$$$$

  -OEChem-01062216083D

 29 29  0     1  0  0  0  0  0999 V2000
   -3.0349   -2.6955    1.1458 H   0  0  0  0  0  0  0  0  0  0  0  0
   -2.9593   -1.8771    0.4243 C   0  0  0  0  0  0  0  0  0  0  0  0
   -3.8670   -1.2720    0.4823 H   0  0  0  0  0  0  0  0  0  0  0  0
   -2.8726   -2.3016   -0.5790 H   0  0  0  0  0  0  0  0  0  0  0  0
   -1.7423   -1.0251    0.7301 C   0  0  0  0  0  0  0  0  0  0  0  0
   -0.9988   -1.3371    1.6458 O   0  0  0  0  0  0  0  0  0  0  0  0
   -1.4953    0.1109   -0.0187 N   0  0  0  0  0  0  0  0  0  0  0  0
   -2.1048    0.2489   -0.8197 H   0  0  0  0  0  0  0  0  0  0  0  0
   -0.1705    0.7688   -0.0545 C   0  0  1  0  0  0  0  0  0  0  0  0
    0.4519    0.4327    0.7813 H   0  0  0  0  0  0  0  0  0  0  0  0
    0.5355    0.3950   -1.3735 C   0  0  0  0  0  0  0  0  0  0  0  0
   -0.0840    0.7001   -2.2230 H   0  0  0  0  0  0  0  0  0  0  0  0
    1.4899    0.9260   -1.4563 H   0  0  0  0  0  0  0  0  0  0  0  0
    0.8049   -1.0863   -1.4327 C   0  0  0  0  0  0  0  0  0  0  0  0
    1.7699   -1.7946   -0.7537 N   0  0  0  0  0  0  0  0  0  0  0  0
    2.4100   -1.4240   -0.0539 H   0  0  0  0  0  0  0  0  0  0  0  0
    1.6623   -3.1257   -1.1100 C   0  0  0  0  0  0  0  0  0  0  0  0
    2.2772   -3.9287   -0.7139 H   0  0  0  0  0  0  0  0  0  0  0  0
    0.7074   -3.2821   -1.9969 N   0  0  0  0  0  0  0  0  0  0  0  0
    0.1751   -2.0173   -2.2151 C   0  0  0  0  0  0  0  0  0  0  0  0
   -0.6360   -1.8011   -2.9037 H   0  0  0  0  0  0  0  0  0  0  0  0
   -0.2861    2.3030    0.0878 C   0  0  0  0  0  0  0  0  0  0  0  0
    0.6380    3.0360   -0.2388 O   0  0  0  0  0  0  0  0  0  0  0  0
   -1.4659    2.8719    0.5333 N   0  0  0  0  0  0  0  0  0  0  0  0
   -2.1622    2.2306    0.9034 H   0  0  0  0  0  0  0  0  0  0  0  0
   -1.6312    4.3026    0.7608 C   0  0  0  0  0  0  0  0  0  0  0  0
   -1.4394    4.8625   -0.1606 H   0  0  0  0  0  0  0  0  0  0  0  0
   -2.6531    4.5180    1.0874 H   0  0  0  0  0  0  0  0  0  0  0  0
   -0.9387    4.6500    1.5347 H   0  0  0  0  0  0  0  0  0  0  0  0
  1  2  1  0  0  0  0
  2  3  1  0  0  0  0
  2  4  1  0  0  0  0
  2  5  1  0  0  0  0
  5  6  2  0  0  0  0
  5  7  1  0  0  0  0
  7  8  1  0  0  0  0
  7  9  1  0  0  0  0
  9 10  1  0  0  0  0
  9 11  1  0  0  0  0
  9 22  1  0  0  0  0
 11 12  1  0  0  0  0
 11 13  1  0  0  0  0
 11 14  1  0  0  0  0
 14 15  1  0  0  0  0
 14 20  2  0  0  0  0
 15 16  1  0  0  0  0
 15 17  1  0  0  0  0
 17 18  1  0  0  0  0
 17 19  2  0  0  0  0
 19 20  1  0  0  0  0
 20 21  1  0  0  0  0
 22 23  2  0  0  0  0
 22 24  1  0  0  0  0
 24 25  1  0  0  0  0
 24 26  1  0  0  0  0
 26 27  1  0  0  0  0
 26 28  1  0  0  0  0
 26 29  1  0  0  0  0
M  END
$$$$

  -OEChem-01062216083D

 29 29  0     1  0  0  0  0  0999 V2000
   -2.9932   -2.7295    1.0703 H   0  0  0  0  0  0  0  0  0  0  0  0
   -2.9660   -1.8513    0.4189 C   0  0  0  0  0  0  0  0  0  0  0  0
   -3.8694   -1.2602    0.5854 H   0  0  0  0  0  0  0  0  0  0  0  0
   -2.9424   -2.1884   -0.6205 H   0  0  0  0  0  0  0  0  0  0  0  0
   -1.7356   -1.0173    0.7207 C   0  0  0  0  0  0  0  0  0  0  0  0
   -0.9926   -1.3392    1.6337 O   0  0  0  0  0  0  0  0  0  0  0  0
   -1.4800    0.1222   -0.0195 N   0  0  0  0  0  0  0  0  0  0  0  0
   -2.1000    0.2862   -0.8076 H   0  0  0  0  0  0  0  0  0  0  0  0
   -0.1520    0.7713   -0.0539 C   0  0  1  0  0  0  0  0  0  0  0  0
    0.4689    0.4308    0.7811 H   0  0  0  0  0  0  0  0  0  0  0  0
    0.5545    0.3946   -1.3724 C   0  0  0  0  0  0  0  0  0  0  0  0
   -0.0608    0.7052   -2.2231 H   0  0  0  0  0  0  0  0  0  0  0  0
    1.5127    0.9191   -1.4513 H   0  0  0  0  0  0  0  0  0  0  0  0
    0.8143   -1.0884   -1.4309 C   0  0  0  0  0  0  0  0  0  0  0  0
    1.7719   -1.8065   -0.7513 N   0  0  0  0  0  0  0  0  0  0  0  0
    2.4142   -1.4430   -0.0498 H   0  0  0  0  0  0  0  0  0  0  0  0
    1.6506   -3.1367   -1.1075 C   0  0  0  0  0  0  0  0  0  0  0  0
    2.2554   -3.9465   -0.7094 H   0  0  0  0  0  0  0  0  0  0  0  0
    0.6963   -3.2829   -1.9966 N   0  0  0  0  0  0  0  0  0  0  0  0
    0.1769   -2.0127   -2.2150 C   0  0  0  0  0  0  0  0  0  0  0  0
   -0.6314   -1.7874   -2.9039 H   0  0  0  0  0  0  0  0  0  0  0  0
   -0.2760    2.3038    0.1007 C   0  0  0  0  0  0  0  0  0  0  0  0
    0.5122    3.0675   -0.4418 O   0  0  0  0  0  0  0  0  0  0  0  0
   -1.3227    2.8336    0.8331 N   0  0  0  0  0  0  0  0  0  0  0  0
   -1.9077    2.1694    1.3336 H   0  0  0  0  0  0  0  0  0  0  0  0
   -1.4982    4.2601    1.0771 C   0  0  0  0  0  0  0  0  0  0  0  0
   -1.5932    4.8025    0.1304 H   0  0  0  0  0  0  0  0  0  0  0  0
   -2.4038    4.4343    1.6662 H   0  0  0  0  0  0  0  0  0  0  0  0
   -0.6423    4.6622    1.6294 H   0  0  0  0  0  0  0  0  0  0  0  0
  1  2  1  0  0  0  0
  2  3  1  0  0  0  0
  2  4  1  0  0  0  0
  2  5  1  0  0  0  0
  5  6  2  0  0  0  0
  5  7  1  0  0  0  0
  7  8  1  0  0  0  0
  7  9  1  0  0  0  0
  9 10  1  0  0  0  0
  9 11  1  0  0  0  0
  9 22  1  0  0  0  0
 11 12  1  0  0  0  0
 11 13  1  0  0  0  0
 11 14  1  0  0  0  0
 14 15  1  0  0  0  0
 14 20  2  0  0  0  0
 15 16  1  0  0  0  0
 15 17  1  0  0  0  0
 17 18  1  0  0  0  0
 17 19  2  0  0  0  0
 19 20  1  0  0  0  0
 20 21  1  0  0  0  0
 22 23  2  0  0  0  0
 22 24  1  0  0  0  0
 24 25  1  0  0  0  0
 24 26  1  0  0  0  0
 26 27  1  0  0  0  0
 26 28  1  0  0  0  0
 26 29  1  0  0  0  0
M  END
$$$$

  -OEChem-01062216083D

 29 29  0     1  0  0  0  0  0999 V2000
   -3.0092   -2.7052    1.0705 H   0  0  0  0  0  0  0  0  0  0  0  0
   -2.9753   -1.8238    0.4240 C   0  0  0  0  0  0  0  0  0  0  0  0
   -3.8704   -1.2227    0.5996 H   0  0  0  0  0  0  0  0  0  0  0  0
   -2.9621   -2.1546   -0.6173 H   0  0  0  0  0  0  0  0  0  0  0  0
   -1.7327   -1.0070    0.7215 C   0  0  0  0  0  0  0  0  0  0  0  0
   -0.9889   -1.3402    1.6301 O   0  0  0  0  0  0  0  0  0  0  0  0
   -1.4673    0.1328   -0.0136 N   0  0  0  0  0  0  0  0  0  0  0  0
   -2.0953    0.3177   -0.7908 H   0  0  0  0  0  0  0  0  0  0  0  0
   -0.1354    0.7707   -0.0480 C   0  0  1  0  0  0  0  0  0  0  0  0
    0.4848    0.4247    0.7851 H   0  0  0  0  0  0  0  0  0  0  0  0
    0.5709    0.3937   -1.3664 C   0  0  0  0  0  0  0  0  0  0  0  0
   -0.0422    0.7097   -2.2169 H   0  0  0  0  0  0  0  0  0  0  0  0
    1.5310    0.9157   -1.4419 H   0  0  0  0  0  0  0  0  0  0  0  0
    0.8221   -1.0904   -1.4309 C   0  0  0  0  0  0  0  0  0  0  0  0
    1.7737   -1.8189   -0.7538 N   0  0  0  0  0  0  0  0  0  0  0  0
    2.4145   -1.4648   -0.0465 H   0  0  0  0  0  0  0  0  0  0  0  0
    1.6458   -3.1455   -1.1205 C   0  0  0  0  0  0  0  0  0  0  0  0
    2.2451   -3.9615   -0.7269 H   0  0  0  0  0  0  0  0  0  0  0  0
    0.6932   -3.2797   -2.0132 N   0  0  0  0  0  0  0  0  0  0  0  0
    0.1814   -2.0051   -2.2235 C   0  0  0  0  0  0  0  0  0  0  0  0
   -0.6231   -1.7698   -2.9135 H   0  0  0  0  0  0  0  0  0  0  0  0
   -0.2626    2.3010    0.1142 C   0  0  0  0  0  0  0  0  0  0  0  0
    0.3379    3.0806   -0.6146 O   0  0  0  0  0  0  0  0  0  0  0  0
   -1.1042    2.8066    1.0875 N   0  0  0  0  0  0  0  0  0  0  0  0
   -1.5604    2.1307    1.6955 H   0  0  0  0  0  0  0  0  0  0  0  0
   -1.2863    4.2304    1.3404 C   0  0  0  0  0  0  0  0  0  0  0  0
   -1.6711    4.7322    0.4464 H   0  0  0  0  0  0  0  0  0  0  0  0
   -2.0008    4.3815    2.1553 H   0  0  0  0  0  0  0  0  0  0  0  0
   -0.3351    4.6935    1.6232 H   0  0  0  0  0  0  0  0  0  0  0  0
  1  2  1  0  0  0  0
  2  3  1  0  0  0  0
  2  4  1  0  0  0  0
  2  5  1  0  0  0  0
  5  6  2  0  0  0  0
  5  7  1  0  0  0  0
  7  8  1  0  0  0  0
  7  9  1  0  0  0  0
  9 10  1  0  0  0  0
  9 11  1  0  0  0  0
  9 22  1  0  0  0  0
 11 12  1  0  0  0  0
 11 13  1  0  0  0  0
 11 14  1  0  0  0  0
 14 15  1  0  0  0  0
 14 20  2  0  0  0  0
 15 16  1  0  0  0  0
 15 17  1  0  0  0  0
 17 18  1  0  0  0  0
 17 19  2  0  0  0  0
 19 20  1  0  0  0  0
 20 21  1  0  0  0  0
 22 23  2  0  0  0  0
 22 24  1  0  0  0  0
 24 25  1  0  0  0  0
 24 26  1  0  0  0  0
 26 27  1  0  0  0  0
 26 28  1  0  0  0  0
 26 29  1  0  0  0  0
M  END
$$$$

  -OEChem-01062216083D

 29 29  0     1  0  0  0  0  0999 V2000
   -3.0282   -2.6782    1.0776 H   0  0  0  0  0  0  0  0  0  0  0  0
   -2.9834   -1.7981    0.4301 C   0  0  0  0  0  0  0  0  0  0  0  0
   -3.8694   -1.1839    0.6069 H   0  0  0  0  0  0  0  0  0  0  0  0
   -2.9773   -2.1303   -0.6109 H   0  0  0  0  0  0  0  0  0  0  0  0
   -1.7288   -0.9985    0.7237 C   0  0  0  0  0  0  0  0  0  0  0  0
   -0.9832   -1.3442    1.6266 O   0  0  0  0  0  0  0  0  0  0  0  0
   -1.4525    0.1408   -0.0075 N   0  0  0  0  0  0  0  0  0  0  0  0
   -2.0870    0.3474   -0.7739 H   0  0  0  0  0  0  0  0  0  0  0  0
   -0.1177    0.7682   -0.0408 C   0  0  1  0  0  0  0  0  0  0  0  0
    0.5026    0.4157    0.7895 H   0  0  0  0  0  0  0  0  0  0  0  0
    0.5869    0.3934   -1.3603 C   0  0  0  0  0  0  0  0  0  0  0  0
   -0.0257    0.7146   -2.2096 H   0  0  0  0  0  0  0  0  0  0  0  0
    1.5476    0.9145   -1.4331 H   0  0  0  0  0  0  0  0  0  0  0  0
    0.8298   -1.0920   -1.4332 C   0  0  0  0  0  0  0  0  0  0  0  0
    1.7769   -1.8304   -0.7602 N   0  0  0  0  0  0  0  0  0  0  0  0
    2.4214   -1.4846   -0.0526 H   0  0  0  0  0  0  0  0  0  0  0  0
    1.6399   -3.1544   -1.1328 C   0  0  0  0  0  0  0  0  0  0  0  0
    2.2341   -3.9766   -0.7439 H   0  0  0  0  0  0  0  0  0  0  0  0
    0.6854   -3.2779   -2.0249 N   0  0  0  0  0  0  0  0  0  0  0  0
    0.1818   -1.9989   -2.2291 C   0  0  0  0  0  0  0  0  0  0  0  0
   -0.6218   -1.7554   -2.9176 H   0  0  0  0  0  0  0  0  0  0  0  0
   -0.2434    2.2967    0.1258 C   0  0  0  0  0  0  0  0  0  0  0  0
    0.1299    3.0758   -0.7424 O   0  0  0  0  0  0  0  0  0  0  0  0
   -0.8232    2.7970    1.2766 N   0  0  0  0  0  0  0  0  0  0  0  0
   -1.1391    2.1193    1.9666 H   0  0  0  0  0  0  0  0  0  0  0  0
   -1.0148    4.2188    1.5340 C   0  0  0  0  0  0  0  0  0  0  0  0
   -1.6628    4.6623    0.7709 H   0  0  0  0  0  0  0  0  0  0  0  0
   -1.4819    4.3662    2.5125 H   0  0  0  0  0  0  0  0  0  0  0  0
   -0.0528    4.7418    1.5277 H   0  0  0  0  0  0  0  0  0  0  0  0
  1  2  1  0  0  0  0
  2  3  1  0  0  0  0
  2  4  1  0  0  0  0
  2  5  1  0  0  0  0
  5  6  2  0  0  0  0
  5  7  1  0  0  0  0
  7  8  1  0  0  0  0
  7  9  1  0  0  0  0
  9 10  1  0  0  0  0
  9 11  1  0  0  0  0
  9 22  1  0  0  0  0
 11 12  1  0  0  0  0
 11 13  1  0  0  0  0
 11 14  1  0  0  0  0
 14 15  1  0  0  0  0
 14 20  2  0  0  0  0
 15 16  1  0  0  0  0
 15 17  1  0  0  0  0
 17 18  1  0  0  0  0
 17 19  2  0  0  0  0
 19 20  1  0  0  0  0
 20 21  1  0  0  0  0
 22 23  2  0  0  0  0
 22 24  1  0  0  0  0
 24 25  1  0  0  0  0
 24 26  1  0  0  0  0
 26 27  1  0  0  0  0
 26 28  1  0  0  0  0
 26 29  1  0  0  0  0
M  END
$$$$

  -OEChem-01062216083D

 29 29  0     1  0  0  0  0  0999 V2000
   -3.0645   -2.6411    1.1067 H   0  0  0  0  0  0  0  0  0  0  0  0
   -3.0003   -1.7731    0.4444 C   0  0  0  0  0  0  0  0  0  0  0  0
   -3.8723   -1.1363    0.6113 H   0  0  0  0  0  0  0  0  0  0  0  0
   -3.0029   -2.1222   -0.5910 H   0  0  0  0  0  0  0  0  0  0  0  0
   -1.7274   -0.9973    0.7235 C   0  0  0  0  0  0  0  0  0  0  0  0
   -0.9736   -1.3617    1.6126 O   0  0  0  0  0  0  0  0  0  0  0  0
   -1.4417    0.1412   -0.0049 N   0  0  0  0  0  0  0  0  0  0  0  0
   -2.0843    0.3708   -0.7582 H   0  0  0  0  0  0  0  0  0  0  0  0
   -0.1051    0.7619   -0.0356 C   0  0  1  0  0  0  0  0  0  0  0  0
    0.5144    0.4022    0.7920 H   0  0  0  0  0  0  0  0  0  0  0  0
    0.6006    0.3922   -1.3552 C   0  0  0  0  0  0  0  0  0  0  0  0
   -0.0113    0.7165   -2.2039 H   0  0  0  0  0  0  0  0  0  0  0  0
    1.5606    0.9149   -1.4247 H   0  0  0  0  0  0  0  0  0  0  0  0
    0.8390   -1.0934   -1.4354 C   0  0  0  0  0  0  0  0  0  0  0  0
    1.7823   -1.8391   -0.7649 N   0  0  0  0  0  0  0  0  0  0  0  0
    2.4275   -1.5003   -0.0546 H   0  0  0  0  0  0  0  0  0  0  0  0
    1.6425   -3.1600   -1.1473 C   0  0  0  0  0  0  0  0  0  0  0  0
    2.2346   -3.9860   -0.7638 H   0  0  0  0  0  0  0  0  0  0  0  0
    0.6901   -3.2746   -2.0426 N   0  0  0  0  0  0  0  0  0  0  0  0
    0.1898   -1.9928   -2.2386 C   0  0  0  0  0  0  0  0  0  0  0  0
   -0.6117   -1.7420   -2.9270 H   0  0  0  0  0  0  0  0  0  0  0  0
   -0.2255    2.2892    0.1325 C   0  0  0  0  0  0  0  0  0  0  0  0
   -0.1066    3.0520   -0.8184 O   0  0  0  0  0  0  0  0  0  0  0  0
   -0.5064    2.8048    1.3839 N   0  0  0  0  0  0  0  0  0  0  0  0
   -0.6692    2.1366    2.1337 H   0  0  0  0  0  0  0  0  0  0  0  0
   -0.6966    4.2260    1.6456 C   0  0  0  0  0  0  0  0  0  0  0  0
   -1.5532    4.6083    1.0807 H   0  0  0  0  0  0  0  0  0  0  0  0
   -0.8818    4.3930    2.7111 H   0  0  0  0  0  0  0  0  0  0  0  0
    0.1961    4.7914    1.3582 H   0  0  0  0  0  0  0  0  0  0  0  0
  1  2  1  0  0  0  0
  2  3  1  0  0  0  0
  2  4  1  0  0  0  0
  2  5  1  0  0  0  0
  5  6  2  0  0  0  0
  5  7  1  0  0  0  0
  7  8  1  0  0  0  0
  7  9  1  0  0  0  0
  9 10  1  0  0  0  0
  9 11  1  0  0  0  0
  9 22  1  0  0  0  0
 11 12  1  0  0  0  0
 11 13  1  0  0  0  0
 11 14  1  0  0  0  0
 14 15  1  0  0  0  0
 14 20  2  0  0  0  0
 15 16  1  0  0  0  0
 15 17  1  0  0  0  0
 17 18  1  0  0  0  0
 17 19  2  0  0  0  0
 19 20  1  0  0  0  0
 20 21  1  0  0  0  0
 22 23  2  0  0  0  0
 22 24  1  0  0  0  0
 24 25  1  0  0  0  0
 24 26  1  0  0  0  0
 26 27  1  0  0  0  0
 26 28  1  0  0  0  0
 26 29  1  0  0  0  0
M  END
$$$$

  -OEChem-01062216083D

 29 29  0     1  0  0  0  0  0999 V2000
   -3.0967   -2.6221    1.1113 H   0  0  0  0  0  0  0  0  0  0  0  0
   -3.0333   -1.7377    0.4710 C   0  0  0  0  0  0  0  0  0  0  0  0
   -3.8787   -1.0813    0.6896 H   0  0  0  0  0  0  0  0  0  0  0  0
   -3.0873   -2.0568   -0.5726 H   0  0  0  0  0  0  0  0  0  0  0  0
   -1.7287   -1.0061    0.7210 C   0  0  0  0  0  0  0  0  0  0  0  0
   -0.9602   -1.4070    1.5818 O   0  0  0  0  0  0  0  0  0  0  0  0
   -1.4279    0.1297   -0.0052 N   0  0  0  0  0  0  0  0  0  0  0  0
   -2.0881    0.4028   -0.7286 H   0  0  0  0  0  0  0  0  0  0  0  0
   -0.0913    0.7475   -0.0281 C   0  0  1  0  0  0  0  0  0  0  0  0
    0.5235    0.3823    0.8007 H   0  0  0  0  0  0  0  0  0  0  0  0
    0.6196    0.3879   -1.3467 C   0  0  0  0  0  0  0  0  0  0  0  0
    0.0106    0.7173   -2.1958 H   0  0  0  0  0  0  0  0  0  0  0  0
    1.5787    0.9124   -1.4087 H   0  0  0  0  0  0  0  0  0  0  0  0
    0.8578   -1.0970   -1.4388 C   0  0  0  0  0  0  0  0  0  0  0  0
    1.7972   -1.8507   -0.7716 N   0  0  0  0  0  0  0  0  0  0  0  0
    2.4323   -1.5221   -0.0476 H   0  0  0  0  0  0  0  0  0  0  0  0
    1.6582   -3.1672   -1.1696 C   0  0  0  0  0  0  0  0  0  0  0  0
    2.2471   -3.9979   -0.7917 H   0  0  0  0  0  0  0  0  0  0  0  0
    0.7107   -3.2717   -2.0711 N   0  0  0  0  0  0  0  0  0  0  0  0
    0.2108   -1.9878   -2.2535 C   0  0  0  0  0  0  0  0  0  0  0  0
   -0.5880   -1.7292   -2.9420 H   0  0  0  0  0  0  0  0  0  0  0  0
   -0.2079    2.2748    0.1348 C   0  0  0  0  0  0  0  0  0  0  0  0
   -0.3584    3.0046   -0.8374 O   0  0  0  0  0  0  0  0  0  0  0  0
   -0.1828    2.8284    1.4013 N   0  0  0  0  0  0  0  0  0  0  0  0
   -0.1571    2.1845    2.1884 H   0  0  0  0  0  0  0  0  0  0  0  0
   -0.3676    4.2515    1.6582 C   0  0  0  0  0  0  0  0  0  0  0  0
   -1.3586    4.5757    1.3238 H   0  0  0  0  0  0  0  0  0  0  0  0
   -0.2785    4.4571    2.7292 H   0  0  0  0  0  0  0  0  0  0  0  0
    0.3919    4.8380    1.1306 H   0  0  0  0  0  0  0  0  0  0  0  0
  1  2  1  0  0  0  0
  2  3  1  0  0  0  0
  2  4  1  0  0  0  0
  2  5  1  0  0  0  0
  5  6  2  0  0  0  0
  5  7  1  0  0  0  0
  7  8  1  0  0  0  0
  7  9  1  0  0  0  0
  9 10  1  0  0  0  0
  9 11  1  0  0  0  0
  9 22  1  0  0  0  0
 11 12  1  0  0  0  0
 11 13  1  0  0  0  0
 11 14  1  0  0  0  0
 14 15  1  0  0  0  0
 14 20  2  0  0  0  0
 15 16  1  0  0  0  0
 15 17  1  0  0  0  0
 17 18  1  0  0  0  0
 17 19  2  0  0  0  0
 19 20  1  0  0  0  0
 20 21  1  0  0  0  0
 22 23  2  0  0  0  0
 22 24  1  0  0  0  0
 24 25  1  0  0  0  0
 24 26  1  0  0  0  0
 26 27  1  0  0  0  0
 26 28  1  0  0  0  0
 26 29  1  0  0  0  0
M  END
$$$$

  -OEChem-01062216083D

 29 29  0     1  0  0  0  0  0999 V2000
   -3.1431   -2.5863    1.1402 H   0  0  0  0  0  0  0  0  0  0  0  0
   -3.0668   -1.7047    0.4977 C   0  0  0  0  0  0  0  0  0  0  0  0
   -3.8855   -1.0220    0.7369 H   0  0  0  0  0  0  0  0  0  0  0  0
   -3.1559   -2.0216   -0.5444 H   0  0  0  0  0  0  0  0  0  0  0  0
   -1.7336   -1.0152    0.7154 C   0  0  0  0  0  0  0  0  0  0  0  0
   -0.9527   -1.4471    1.5501 O   0  0  0  0  0  0  0  0  0  0  0  0
   -1.4194    0.1167   -0.0104 N   0  0  0  0  0  0  0  0  0  0  0  0
   -2.0982    0.4357   -0.6972 H   0  0  0  0  0  0  0  0  0  0  0  0
   -0.0833    0.7336   -0.0266 C   0  0  1  0  0  0  0  0  0  0  0  0
    0.5257    0.3649    0.8046 H   0  0  0  0  0  0  0  0  0  0  0  0
    0.6342    0.3837   -1.3427 C   0  0  0  0  0  0  0  0  0  0  0  0
    0.0270    0.7177   -2.1913 H   0  0  0  0  0  0  0  0  0  0  0  0
    1.5924    0.9102   -1.3976 H   0  0  0  0  0  0  0  0  0  0  0  0
    0.8751   -1.1001   -1.4444 C   0  0  0  0  0  0  0  0  0  0  0  0
    1.8124   -1.8571   -0.7778 N   0  0  0  0  0  0  0  0  0  0  0  0
    2.4433   -1.5332   -0.0482 H   0  0  0  0  0  0  0  0  0  0  0  0
    1.6772   -3.1710   -1.1854 C   0  0  0  0  0  0  0  0  0  0  0  0
    2.2656   -4.0032   -0.8099 H   0  0  0  0  0  0  0  0  0  0  0  0
    0.7352   -3.2707   -2.0931 N   0  0  0  0  0  0  0  0  0  0  0  0
    0.2329   -1.9864   -2.2679 C   0  0  0  0  0  0  0  0  0  0  0  0
   -0.5637   -1.7247   -2.9580 H   0  0  0  0  0  0  0  0  0  0  0  0
   -0.1963    2.2611    0.1283 C   0  0  0  0  0  0  0  0  0  0  0  0
   -0.6034    2.9505   -0.7989 O   0  0  0  0  0  0  0  0  0  0  0  0
    0.1274    2.8593    1.3321 N   0  0  0  0  0  0  0  0  0  0  0  0
    0.3546    2.2454    2.1103 H   0  0  0  0  0  0  0  0  0  0  0  0
   -0.0388    4.2851    1.5861 C   0  0  0  0  0  0  0  0  0  0  0  0
   -1.0935    4.5683    1.5057 H   0  0  0  0  0  0  0  0  0  0  0  0
    0.3113    4.5332    2.5927 H   0  0  0  0  0  0  0  0  0  0  0  0
    0.5399    4.8723    0.8653 H   0  0  0  0  0  0  0  0  0  0  0  0
  1  2  1  0  0  0  0
  2  3  1  0  0  0  0
  2  4  1  0  0  0  0
  2  5  1  0  0  0  0
  5  6  2  0  0  0  0
  5  7  1  0  0  0  0
  7  8  1  0  0  0  0
  7  9  1  0  0  0  0
  9 10  1  0  0  0  0
  9 11  1  0  0  0  0
  9 22  1  0  0  0  0
 11 12  1  0  0  0  0
 11 13  1  0  0  0  0
 11 14  1  0  0  0  0
 14 15  1  0  0  0  0
 14 20  2  0  0  0  0
 15 16  1  0  0  0  0
 15 17  1  0  0  0  0
 17 18  1  0  0  0  0
 17 19  2  0  0  0  0
 19 20  1  0  0  0  0
 20 21  1  0  0  0  0
 22 23  2  0  0  0  0
 22 24  1  0  0  0  0
 24 25  1  0  0  0  0
 24 26  1  0  0  0  0
 26 27  1  0  0  0  0
 26 28  1  0  0  0  0
 26 29  1  0  0  0  0
M  END
$$$$

  -OEChem-01062216083D

 29 29  0     1  0  0  0  0  0999 V2000
   -3.1853   -2.5737    1.1314 H   0  0  0  0  0  0  0  0  0  0  0  0
   -3.1158   -1.6541    0.5437 C   0  0  0  0  0  0  0  0  0  0  0  0
   -3.8854   -0.9574    0.8846 H   0  0  0  0  0  0  0  0  0  0  0  0
   -3.2903   -1.8960   -0.5075 H   0  0  0  0  0  0  0  0  0  0  0  0
   -1.7430   -1.0314    0.7100 C   0  0  0  0  0  0  0  0  0  0  0  0
   -0.9490   -1.5079    1.5072 O   0  0  0  0  0  0  0  0  0  0  0  0
   -1.4097    0.0933   -0.0176 N   0  0  0  0  0  0  0  0  0  0  0  0
   -2.1136    0.4791   -0.6429 H   0  0  0  0  0  0  0  0  0  0  0  0
   -0.0747    0.7112   -0.0207 C   0  0  1  0  0  0  0  0  0  0  0  0
    0.5230    0.3442    0.8197 H   0  0  0  0  0  0  0  0  0  0  0  0
    0.6556    0.3726   -1.3315 C   0  0  0  0  0  0  0  0  0  0  0  0
    0.0553    0.7135   -2.1824 H   0  0  0  0  0  0  0  0  0  0  0  0
    1.6134    0.9015   -1.3726 H   0  0  0  0  0  0  0  0  0  0  0  0
    0.9037   -1.1089   -1.4482 C   0  0  0  0  0  0  0  0  0  0  0  0
    1.8372   -1.8726   -0.7837 N   0  0  0  0  0  0  0  0  0  0  0  0
    2.4557   -1.5587   -0.0396 H   0  0  0  0  0  0  0  0  0  0  0  0
    1.7146   -3.1799   -1.2162 C   0  0  0  0  0  0  0  0  0  0  0  0
    2.3041   -4.0154   -0.8497 H   0  0  0  0  0  0  0  0  0  0  0  0
    0.7840   -3.2690   -2.1364 N   0  0  0  0  0  0  0  0  0  0  0  0
    0.2746   -1.9851   -2.2926 C   0  0  0  0  0  0  0  0  0  0  0  0
   -0.5154   -1.7155   -2.9871 H   0  0  0  0  0  0  0  0  0  0  0  0
   -0.1930    2.2396    0.1181 C   0  0  0  0  0  0  0  0  0  0  0  0
   -0.8245    2.8815   -0.7132 O   0  0  0  0  0  0  0  0  0  0  0  0
    0.3907    2.8950    1.1867 N   0  0  0  0  0  0  0  0  0  0  0  0
    0.8140    2.3226    1.9123 H   0  0  0  0  0  0  0  0  0  0  0  0
    0.2511    4.3285    1.4142 C   0  0  0  0  0  0  0  0  0  0  0  0
   -0.8019    4.5925    1.5587 H   0  0  0  0  0  0  0  0  0  0  0  0
    0.8090    4.6262    2.3072 H   0  0  0  0  0  0  0  0  0  0  0  0
    0.6415    4.8921    0.5602 H   0  0  0  0  0  0  0  0  0  0  0  0
  1  2  1  0  0  0  0
  2  3  1  0  0  0  0
  2  4  1  0  0  0  0
  2  5  1  0  0  0  0
  5  6  2  0  0  0  0
  5  7  1  0  0  0  0
  7  8  1  0  0  0  0
  7  9  1  0  0  0  0
  9 10  1  0  0  0  0
  9 11  1  0  0  0  0
  9 22  1  0  0  0  0
 11 12  1  0  0  0  0
 11 13  1  0  0  0  0
 11 14  1  0  0  0  0
 14 15  1  0  0  0  0
 14 20  2  0  0  0  0
 15 16  1  0  0  0  0
 15 17  1  0  0  0  0
 17 18  1  0  0  0  0
 17 19  2  0  0  0  0
 19 20  1  0  0  0  0
 20 21  1  0  0  0  0
 22 23  2  0  0  0  0
 22 24  1  0  0  0  0
 24 25  1  0  0  0  0
 24 26  1  0  0  0  0
 26 27  1  0  0  0  0
 26 28  1  0  0  0  0
 26 29  1  0  0  0  0
M  END
$$$$

  -OEChem-01062216083D

 29 29  0     1  0  0  0  0  0999 V2000
   -3.2188   -2.5440    1.1651 H   0  0  0  0  0  0  0  0  0  0  0  0
   -3.1393   -1.6332    0.5651 C   0  0  0  0  0  0  0  0  0  0  0  0
   -3.8838   -0.9139    0.9142 H   0  0  0  0  0  0  0  0  0  0  0  0
   -3.3431   -1.8824   -0.4790 H   0  0  0  0  0  0  0  0  0  0  0  0
   -1.7479   -1.0435    0.6935 C   0  0  0  0  0  0  0  0  0  0  0  0
   -0.9408   -1.5479    1.4599 O   0  0  0  0  0  0  0  0  0  0  0  0
   -1.4090    0.0790   -0.0348 N   0  0  0  0  0  0  0  0  0  0  0  0
   -2.1345    0.5200   -0.5961 H   0  0  0  0  0  0  0  0  0  0  0  0
   -0.0768    0.7030   -0.0262 C   0  0  1  0  0  0  0  0  0  0  0  0
    0.5128    0.3400    0.8213 H   0  0  0  0  0  0  0  0  0  0  0  0
    0.6624    0.3699   -1.3324 C   0  0  0  0  0  0  0  0  0  0  0  0
    0.0634    0.7104   -2.1842 H   0  0  0  0  0  0  0  0  0  0  0  0
    1.6181    0.9025   -1.3687 H   0  0  0  0  0  0  0  0  0  0  0  0
    0.9174   -1.1102   -1.4513 C   0  0  0  0  0  0  0  0  0  0  0  0
    1.8497   -1.8726   -0.7833 N   0  0  0  0  0  0  0  0  0  0  0  0
    2.4581   -1.5613   -0.0299 H   0  0  0  0  0  0  0  0  0  0  0  0
    1.7323   -3.1794   -1.2186 C   0  0  0  0  0  0  0  0  0  0  0  0
    2.3209   -4.0140   -0.8489 H   0  0  0  0  0  0  0  0  0  0  0  0
    0.8085   -3.2692   -2.1455 N   0  0  0  0  0  0  0  0  0  0  0  0
    0.2953   -1.9867   -2.3008 C   0  0  0  0  0  0  0  0  0  0  0  0
   -0.4924   -1.7189   -2.9985 H   0  0  0  0  0  0  0  0  0  0  0  0
   -0.1965    2.2323    0.1033 C   0  0  0  0  0  0  0  0  0  0  0  0
   -1.0116    2.8395   -0.5817 O   0  0  0  0  0  0  0  0  0  0  0  0
    0.6141    2.9318    0.9791 N   0  0  0  0  0  0  0  0  0  0  0  0
    1.2177    2.3921    1.5932 H   0  0  0  0  0  0  0  0  0  0  0  0
    0.5105    4.3719    1.1835 C   0  0  0  0  0  0  0  0  0  0  0  0
   -0.4782    4.6329    1.5755 H   0  0  0  0  0  0  0  0  0  0  0  0
    1.2672    4.7082    1.8990 H   0  0  0  0  0  0  0  0  0  0  0  0
    0.6674    4.9056    0.2400 H   0  0  0  0  0  0  0  0  0  0  0  0
  1  2  1  0  0  0  0
  2  3  1  0  0  0  0
  2  4  1  0  0  0  0
  2  5  1  0  0  0  0
  5  6  2  0  0  0  0
  5  7  1  0  0  0  0
  7  8  1  0  0  0  0
  7  9  1  0  0  0  0
  9 10  1  0  0  0  0
  9 11  1  0  0  0  0
  9 22  1  0  0  0  0
 11 12  1  0  0  0  0
 11 13  1  0  0  0  0
 11 14  1  0  0  0  0
 14 15  1  0  0  0  0
 14 20  2  0  0  0  0
 15 16  1  0  0  0  0
 15 17  1  0  0  0  0
 17 18  1  0  0  0  0
 17 19  2  0  0  0  0
 19 20  1  0  0  0  0
 20 21  1  0  0  0  0
 22 23  2  0  0  0  0
 22 24  1  0  0  0  0
 24 25  1  0  0  0  0
 24 26  1  0  0  0  0
 26 27  1  0  0  0  0
 26 28  1  0  0  0  0
 26 29  1  0  0  0  0
M  END
$$$$

  -OEChem-01062216083D

 29 29  0     1  0  0  0  0  0999 V2000
   -3.2392   -2.5251    1.1797 H   0  0  0  0  0  0  0  0  0  0  0  0
   -3.1564   -1.6132    0.5821 C   0  0  0  0  0  0  0  0  0  0  0  0
   -3.8761   -0.8800    0.9537 H   0  0  0  0  0  0  0  0  0  0  0  0
   -3.3921   -1.8522   -0.4578 H   0  0  0  0  0  0  0  0  0  0  0  0
   -1.7500   -1.0539    0.6759 C   0  0  0  0  0  0  0  0  0  0  0  0
   -0.9313   -1.5840    1.4123 O   0  0  0  0  0  0  0  0  0  0  0  0
   -1.4107    0.0674   -0.0538 N   0  0  0  0  0  0  0  0  0  0  0  0
   -2.1563    0.5562   -0.5460 H   0  0  0  0  0  0  0  0  0  0  0  0
   -0.0819    0.6991   -0.0355 C   0  0  1  0  0  0  0  0  0  0  0  0
    0.5009    0.3423    0.8195 H   0  0  0  0  0  0  0  0  0  0  0  0
    0.6662    0.3668   -1.3373 C   0  0  0  0  0  0  0  0  0  0  0  0
    0.0707    0.7036   -2.1930 H   0  0  0  0  0  0  0  0  0  0  0  0
    1.6203    0.9023   -1.3700 H   0  0  0  0  0  0  0  0  0  0  0  0
    0.9289   -1.1123   -1.4532 C   0  0  0  0  0  0  0  0  0  0  0  0
    1.8609   -1.8704   -0.7798 N   0  0  0  0  0  0  0  0  0  0  0  0
    2.4600   -1.5573   -0.0199 H   0  0  0  0  0  0  0  0  0  0  0  0
    1.7494   -3.1784   -1.2135 C   0  0  0  0  0  0  0  0  0  0  0  0
    2.3379   -4.0112   -0.8393 H   0  0  0  0  0  0  0  0  0  0  0  0
    0.8315   -3.2726   -2.1457 N   0  0  0  0  0  0  0  0  0  0  0  0
    0.3134   -1.9925   -2.3038 C   0  0  0  0  0  0  0  0  0  0  0  0
   -0.4729   -1.7284   -3.0044 H   0  0  0  0  0  0  0  0  0  0  0  0
   -0.2060    2.2299    0.0864 C   0  0  0  0  0  0  0  0  0  0  0  0
   -1.1689    2.8076   -0.4059 O   0  0  0  0  0  0  0  0  0  0  0  0
    0.7790    2.9673    0.7185 N   0  0  0  0  0  0  0  0  0  0  0  0
    1.5294    2.4572    1.1755 H   0  0  0  0  0  0  0  0  0  0  0  0
    0.7033    4.4131    0.8943 C   0  0  0  0  0  0  0  0  0  0  0  0
   -0.1628    4.6794    1.5093 H   0  0  0  0  0  0  0  0  0  0  0  0
    1.6067    4.7821    1.3894 H   0  0  0  0  0  0  0  0  0  0  0  0
    0.6134    4.9138   -0.0756 H   0  0  0  0  0  0  0  0  0  0  0  0
  1  2  1  0  0  0  0
  2  3  1  0  0  0  0
  2  4  1  0  0  0  0
  2  5  1  0  0  0  0
  5  6  2  0  0  0  0
  5  7  1  0  0  0  0
  7  8  1  0  0  0  0
  7  9  1  0  0  0  0
  9 10  1  0  0  0  0
  9 11  1  0  0  0  0
  9 22  1  0  0  0  0
 11 12  1  0  0  0  0
 11 13  1  0  0  0  0
 11 14  1  0  0  0  0
 14 15  1  0  0  0  0
 14 20  2  0  0  0  0
 15 16  1  0  0  0  0
 15 17  1  0  0  0  0
 17 18  1  0  0  0  0
 17 19  2  0  0  0  0
 19 20  1  0  0  0  0
 20 21  1  0  0  0  0
 22 23  2  0  0  0  0
 22 24  1  0  0  0  0
 24 25  1  0  0  0  0
 24 26  1  0  0  0  0
 26 27  1  0  0  0  0
 26 28  1  0  0  0  0
 26 29  1  0  0  0  0
M  END
$$$$

  -OEChem-01062216083D

 29 29  0     1  0  0  0  0  0999 V2000
   -3.2601   -2.4955    1.2148 H   0  0  0  0  0  0  0  0  0  0  0  0
   -3.1719   -1.5927    0.6040 C   0  0  0  0  0  0  0  0  0  0  0  0
   -3.8626   -0.8377    0.9871 H   0  0  0  0  0  0  0  0  0  0  0  0
   -3.4432   -1.8374   -0.4259 H   0  0  0  0  0  0  0  0  0  0  0  0
   -1.7503   -1.0666    0.6519 C   0  0  0  0  0  0  0  0  0  0  0  0
   -0.9191   -1.6213    1.3555 O   0  0  0  0  0  0  0  0  0  0  0  0
   -1.4136    0.0560   -0.0774 N   0  0  0  0  0  0  0  0  0  0  0  0
   -2.1753    0.5882   -0.4945 H   0  0  0  0  0  0  0  0  0  0  0  0
   -0.0887    0.6957   -0.0436 C   0  0  1  0  0  0  0  0  0  0  0  0
    0.4876    0.3455    0.8186 H   0  0  0  0  0  0  0  0  0  0  0  0
    0.6696    0.3627   -1.3401 C   0  0  0  0  0  0  0  0  0  0  0  0
    0.0760    0.6956   -2.1987 H   0  0  0  0  0  0  0  0  0  0  0  0
    1.6223    0.9006   -1.3708 H   0  0  0  0  0  0  0  0  0  0  0  0
    0.9397   -1.1152   -1.4540 C   0  0  0  0  0  0  0  0  0  0  0  0
    1.8700   -1.8706   -0.7754 N   0  0  0  0  0  0  0  0  0  0  0  0
    2.4526   -1.5601   -0.0017 H   0  0  0  0  0  0  0  0  0  0  0  0
    1.7687   -3.1777   -1.2141 C   0  0  0  0  0  0  0  0  0  0  0  0
    2.3569   -4.0089   -0.8363 H   0  0  0  0  0  0  0  0  0  0  0  0
    0.8608   -3.2735   -2.1558 N   0  0  0  0  0  0  0  0  0  0  0  0
    0.3364   -1.9959   -2.3128 C   0  0  0  0  0  0  0  0  0  0  0  0
   -0.4450   -1.7335   -3.0196 H   0  0  0  0  0  0  0  0  0  0  0  0
   -0.2200    2.2280    0.0745 C   0  0  0  0  0  0  0  0  0  0  0  0
   -1.2794    2.7801   -0.2035 O   0  0  0  0  0  0  0  0  0  0  0  0
    0.8711    3.0005    0.4314 N   0  0  0  0  0  0  0  0  0  0  0  0
    1.7235    2.5178    0.7007 H   0  0  0  0  0  0  0  0  0  0  0  0
    0.8134    4.4518    0.5634 C   0  0  0  0  0  0  0  0  0  0  0  0
    0.1160    4.7364    1.3584 H   0  0  0  0  0  0  0  0  0  0  0  0
    1.8027    4.8486    0.8108 H   0  0  0  0  0  0  0  0  0  0  0  0
    0.4837    4.9106   -0.3749 H   0  0  0  0  0  0  0  0  0  0  0  0
  1  2  1  0  0  0  0
  2  3  1  0  0  0  0
  2  4  1  0  0  0  0
  2  5  1  0  0  0  0
  5  6  2  0  0  0  0
  5  7  1  0  0  0  0
  7  8  1  0  0  0  0
  7  9  1  0  0  0  0
  9 10  1  0  0  0  0
  9 11  1  0  0  0  0
  9 22  1  0  0  0  0
 11 12  1  0  0  0  0
 11 13  1  0  0  0  0
 11 14  1  0  0  0  0
 14 15  1  0  0  0  0
 14 20  2  0  0  0  0
 15 16  1  0  0  0  0
 15 17  1  0  0  0  0
 17 18  1  0  0  0  0
 17 19  2  0  0  0  0
 19 20  1  0  0  0  0
 20 21  1  0  0  0  0
 22 23  2  0  0  0  0
 22 24  1  0  0  0  0
 24 25  1  0  0  0  0
 24 26  1  0  0  0  0
 26 27  1  0  0  0  0
 26 28  1  0  0  0  0
 26 29  1  0  0  0  0
M  END
$$$$

  -OEChem-01062216083D

 29 29  0     1  0  0  0  0  0999 V2000
   -3.2507   -2.4437    1.2791 H   0  0  0  0  0  0  0  0  0  0  0  0
   -3.1746   -1.5473    0.6575 C   0  0  0  0  0  0  0  0  0  0  0  0
   -3.7867   -0.7583    1.1007 H   0  0  0  0  0  0  0  0  0  0  0  0
   -3.5539   -1.7780   -0.3408 H   0  0  0  0  0  0  0  0  0  0  0  0
   -1.7299   -1.0942    0.5681 C   0  0  0  0  0  0  0  0  0  0  0  0
   -0.8580   -1.7308    1.1409 O   0  0  0  0  0  0  0  0  0  0  0  0
   -1.4172    0.0430   -0.1496 N   0  0  0  0  0  0  0  0  0  0  0  0
   -2.2038    0.6406   -0.3953 H   0  0  0  0  0  0  0  0  0  0  0  0
   -0.0934    0.6888   -0.0994 C   0  0  1  0  0  0  0  0  0  0  0  0
    0.5775    0.1584    0.5834 H   0  0  0  0  0  0  0  0  0  0  0  0
    0.5163    0.6686   -1.5118 C   0  0  0  0  0  0  0  0  0  0  0  0
   -0.1637    1.1725   -2.2072 H   0  0  0  0  0  0  0  0  0  0  0  0
    1.4657    1.2120   -1.5274 H   0  0  0  0  0  0  0  0  0  0  0  0
    0.7607   -0.7454   -1.9716 C   0  0  0  0  0  0  0  0  0  0  0  0
    1.7553   -1.6117   -1.5746 N   0  0  0  0  0  0  0  0  0  0  0  0
    2.4279   -1.4588   -0.8270 H   0  0  0  0  0  0  0  0  0  0  0  0
    1.6023   -2.7954   -2.2720 C   0  0  0  0  0  0  0  0  0  0  0  0
    2.2265   -3.6758   -2.1497 H   0  0  0  0  0  0  0  0  0  0  0  0
    0.5946   -2.7046   -3.1064 N   0  0  0  0  0  0  0  0  0  0  0  0
    0.0611   -1.4334   -2.9279 C   0  0  0  0  0  0  0  0  0  0  0  0
   -0.7923   -1.0408   -3.4726 H   0  0  0  0  0  0  0  0  0  0  0  0
   -0.2003    2.1434    0.4101 C   0  0  0  0  0  0  0  0  0  0  0  0
   -1.2991    2.6470    0.6175 O   0  0  0  0  0  0  0  0  0  0  0  0
    0.9301    2.9325    0.5364 N   0  0  0  0  0  0  0  0  0  0  0  0
    1.8333    2.4869    0.4049 H   0  0  0  0  0  0  0  0  0  0  0  0
    0.8909    4.3172    0.9928 C   0  0  0  0  0  0  0  0  0  0  0  0
    0.4974    4.3730    2.0131 H   0  0  0  0  0  0  0  0  0  0  0  0
    1.8971    4.7472    0.9854 H   0  0  0  0  0  0  0  0  0  0  0  0
    0.2545    4.9201    0.3363 H   0  0  0  0  0  0  0  0  0  0  0  0
  1  2  1  0  0  0  0
  2  3  1  0  0  0  0
  2  4  1  0  0  0  0
  2  5  1  0  0  0  0
  5  6  2  0  0  0  0
  5  7  1  0  0  0  0
  7  8  1  0  0  0  0
  7  9  1  0  0  0  0
  9 10  1  0  0  0  0
  9 11  1  0  0  0  0
  9 22  1  0  0  0  0
 11 12  1  0  0  0  0
 11 13  1  0  0  0  0
 11 14  1  0  0  0  0
 14 15  1  0  0  0  0
 14 20  2  0  0  0  0
 15 16  1  0  0  0  0
 15 17  1  0  0  0  0
 17 18  1  0  0  0  0
 17 19  2  0  0  0  0
 19 20  1  0  0  0  0
 20 21  1  0  0  0  0
 22 23  2  0  0  0  0
 22 24  1  0  0  0  0
 24 25  1  0  0  0  0
 24 26  1  0  0  0  0
 26 27  1  0  0  0  0
 26 28  1  0  0  0  0
 26 29  1  0  0  0  0
M  END
$$$$

  -OEChem-01062216083D

 29 29  0     1  0  0  0  0  0999 V2000
   -3.2361   -2.4295    1.2867 H   0  0  0  0  0  0  0  0  0  0  0  0
   -3.1680   -1.5311    0.6668 C   0  0  0  0  0  0  0  0  0  0  0  0
   -3.7614   -0.7382    1.1284 H   0  0  0  0  0  0  0  0  0  0  0  0
   -3.5741   -1.7540   -0.3227 H   0  0  0  0  0  0  0  0  0  0  0  0
   -1.7218   -1.0913    0.5437 C   0  0  0  0  0  0  0  0  0  0  0  0
   -0.8425   -1.7459    1.0841 O   0  0  0  0  0  0  0  0  0  0  0  0
   -1.4169    0.0502   -0.1710 N   0  0  0  0  0  0  0  0  0  0  0  0
   -2.2070    0.6578   -0.3759 H   0  0  0  0  0  0  0  0  0  0  0  0
   -0.0925    0.6956   -0.1173 C   0  0  1  0  0  0  0  0  0  0  0  0
    0.5770    0.1677    0.5690 H   0  0  0  0  0  0  0  0  0  0  0  0
    0.5187    0.6593   -1.5304 C   0  0  0  0  0  0  0  0  0  0  0  0
   -0.1594    1.1577   -2.2314 H   0  0  0  0  0  0  0  0  0  0  0  0
    1.4713    1.1958   -1.5535 H   0  0  0  0  0  0  0  0  0  0  0  0
    0.7607   -0.7595   -1.9761 C   0  0  0  0  0  0  0  0  0  0  0  0
    1.7536   -1.6234   -1.5695 N   0  0  0  0  0  0  0  0  0  0  0  0
    2.4209   -1.4663   -0.8178 H   0  0  0  0  0  0  0  0  0  0  0  0
    1.6011   -2.8130   -2.2575 C   0  0  0  0  0  0  0  0  0  0  0  0
    2.2239   -3.6934   -2.1264 H   0  0  0  0  0  0  0  0  0  0  0  0
    0.5964   -2.7277   -3.0963 N   0  0  0  0  0  0  0  0  0  0  0  0
    0.0632   -1.4548   -2.9283 C   0  0  0  0  0  0  0  0  0  0  0  0
   -0.7877   -1.0650   -3.4787 H   0  0  0  0  0  0  0  0  0  0  0  0
   -0.2044    2.1490    0.4015 C   0  0  0  0  0  0  0  0  0  0  0  0
   -1.2675    2.5615    0.8522 O   0  0  0  0  0  0  0  0  0  0  0  0
    0.8408    3.0459    0.2544 N   0  0  0  0  0  0  0  0  0  0  0  0
    1.7251    2.6875   -0.0932 H   0  0  0  0  0  0  0  0  0  0  0  0
    0.7736    4.4341    0.6970 C   0  0  0  0  0  0  0  0  0  0  0  0
    0.6190    4.4837    1.7801 H   0  0  0  0  0  0  0  0  0  0  0  0
    1.7059    4.9538    0.4560 H   0  0  0  0  0  0  0  0  0  0  0  0
   -0.0500    4.9563    0.1987 H   0  0  0  0  0  0  0  0  0  0  0  0
  1  2  1  0  0  0  0
  2  3  1  0  0  0  0
  2  4  1  0  0  0  0
  2  5  1  0  0  0  0
  5  6  2  0  0  0  0
  5  7  1  0  0  0  0
  7  8  1  0  0  0  0
  7  9  1  0  0  0  0
  9 10  1  0  0  0  0
  9 11  1  0  0  0  0
  9 22  1  0  0  0  0
 11 12  1  0  0  0  0
 11 13  1  0  0  0  0
 11 14  1  0  0  0  0
 14 15  1  0  0  0  0
 14 20  2  0  0  0  0
 15 16  1  0  0  0  0
 15 17  1  0  0  0  0
 17 18  1  0  0  0  0
 17 19  2  0  0  0  0
 19 20  1  0  0  0  0
 20 21  1  0  0  0  0
 22 23  2  0  0  0  0
 22 24  1  0  0  0  0
 24 25  1  0  0  0  0
 24 26  1  0  0  0  0
 26 27  1  0  0  0  0
 26 28  1  0  0  0  0
 26 29  1  0  0  0  0
M  END
$$$$

  -OEChem-01062216083D

 29 29  0     1  0  0  0  0  0999 V2000
   -3.2287   -2.4081    1.3051 H   0  0  0  0  0  0  0  0  0  0  0  0
   -3.1650   -1.5097    0.6850 C   0  0  0  0  0  0  0  0  0  0  0  0
   -3.7364   -0.7107    1.1635 H   0  0  0  0  0  0  0  0  0  0  0  0
   -3.5996   -1.7256   -0.2939 H   0  0  0  0  0  0  0  0  0  0  0  0
   -1.7171   -1.0869    0.5255 C   0  0  0  0  0  0  0  0  0  0  0  0
   -0.8321   -1.7576    1.0362 O   0  0  0  0  0  0  0  0  0  0  0  0
   -1.4188    0.0573   -0.1888 N   0  0  0  0  0  0  0  0  0  0  0  0
   -2.2112    0.6681   -0.3714 H   0  0  0  0  0  0  0  0  0  0  0  0
   -0.0919    0.6991   -0.1386 C   0  0  1  0  0  0  0  0  0  0  0  0
    0.5759    0.1730    0.5510 H   0  0  0  0  0  0  0  0  0  0  0  0
    0.5256    0.6479   -1.5495 C   0  0  0  0  0  0  0  0  0  0  0  0
   -0.1458    1.1444   -2.2585 H   0  0  0  0  0  0  0  0  0  0  0  0
    1.4833    1.1752   -1.5707 H   0  0  0  0  0  0  0  0  0  0  0  0
    0.7654   -0.7749   -1.9824 C   0  0  0  0  0  0  0  0  0  0  0  0
    1.7544   -1.6373   -1.5638 N   0  0  0  0  0  0  0  0  0  0  0  0
    2.4115   -1.4796   -0.8031 H   0  0  0  0  0  0  0  0  0  0  0  0
    1.6046   -2.8310   -2.2454 C   0  0  0  0  0  0  0  0  0  0  0  0
    2.2241   -3.7118   -2.1032 H   0  0  0  0  0  0  0  0  0  0  0  0
    0.6072   -2.7488   -3.0933 N   0  0  0  0  0  0  0  0  0  0  0  0
    0.0744   -1.4746   -2.9363 C   0  0  0  0  0  0  0  0  0  0  0  0
   -0.7710   -1.0870   -3.4966 H   0  0  0  0  0  0  0  0  0  0  0  0
   -0.2077    2.1512    0.3883 C   0  0  0  0  0  0  0  0  0  0  0  0
   -1.1709    2.4754    1.0732 O   0  0  0  0  0  0  0  0  0  0  0  0
    0.6746    3.1450   -0.0044 N   0  0  0  0  0  0  0  0  0  0  0  0
    1.4786    2.8716   -0.5606 H   0  0  0  0  0  0  0  0  0  0  0  0
    0.5684    4.5319    0.4356 C   0  0  0  0  0  0  0  0  0  0  0  0
    0.6592    4.5959    1.5250 H   0  0  0  0  0  0  0  0  0  0  0  0
    1.3639    5.1338   -0.0141 H   0  0  0  0  0  0  0  0  0  0  0  0
   -0.3955    4.9573    0.1366 H   0  0  0  0  0  0  0  0  0  0  0  0
  1  2  1  0  0  0  0
  2  3  1  0  0  0  0
  2  4  1  0  0  0  0
  2  5  1  0  0  0  0
  5  6  2  0  0  0  0
  5  7  1  0  0  0  0
  7  8  1  0  0  0  0
  7  9  1  0  0  0  0
  9 10  1  0  0  0  0
  9 11  1  0  0  0  0
  9 22  1  0  0  0  0
 11 12  1  0  0  0  0
 11 13  1  0  0  0  0
 11 14  1  0  0  0  0
 14 15  1  0  0  0  0
 14 20  2  0  0  0  0
 15 16  1  0  0  0  0
 15 17  1  0  0  0  0
 17 18  1  0  0  0  0
 17 19  2  0  0  0  0
 19 20  1  0  0  0  0
 20 21  1  0  0  0  0
 22 23  2  0  0  0  0
 22 24  1  0  0  0  0
 24 25  1  0  0  0  0
 24 26  1  0  0  0  0
 26 27  1  0  0  0  0
 26 28  1  0  0  0  0
 26 29  1  0  0  0  0
M  END
$$$$

  -OEChem-01062216083D

 29 29  0     1  0  0  0  0  0999 V2000
   -3.2237   -2.4038    1.3080 H   0  0  0  0  0  0  0  0  0  0  0  0
   -3.1645   -1.5029    0.6910 C   0  0  0  0  0  0  0  0  0  0  0  0
   -3.7313   -0.7055    1.1778 H   0  0  0  0  0  0  0  0  0  0  0  0
   -3.6071   -1.7146   -0.2852 H   0  0  0  0  0  0  0  0  0  0  0  0
   -1.7176   -1.0806    0.5221 C   0  0  0  0  0  0  0  0  0  0  0  0
   -0.8296   -1.7564    1.0202 O   0  0  0  0  0  0  0  0  0  0  0  0
   -1.4246    0.0648   -0.1931 N   0  0  0  0  0  0  0  0  0  0  0  0
   -2.2201    0.6675   -0.3855 H   0  0  0  0  0  0  0  0  0  0  0  0
   -0.0964    0.7043   -0.1524 C   0  0  1  0  0  0  0  0  0  0  0  0
    0.5715    0.1806    0.5391 H   0  0  0  0  0  0  0  0  0  0  0  0
    0.5264    0.6428   -1.5602 C   0  0  0  0  0  0  0  0  0  0  0  0
   -0.1406    1.1348   -2.2765 H   0  0  0  0  0  0  0  0  0  0  0  0
    1.4857    1.1683   -1.5757 H   0  0  0  0  0  0  0  0  0  0  0  0
    0.7677   -0.7822   -1.9837 C   0  0  0  0  0  0  0  0  0  0  0  0
    1.7557   -1.6404   -1.5548 N   0  0  0  0  0  0  0  0  0  0  0  0
    2.4068   -1.4776   -0.7899 H   0  0  0  0  0  0  0  0  0  0  0  0
    1.6122   -2.8378   -2.2307 C   0  0  0  0  0  0  0  0  0  0  0  0
    2.2329   -3.7165   -2.0804 H   0  0  0  0  0  0  0  0  0  0  0  0
    0.6194   -2.7622   -3.0847 N   0  0  0  0  0  0  0  0  0  0  0  0
    0.0833   -1.4884   -2.9374 C   0  0  0  0  0  0  0  0  0  0  0  0
   -0.7595   -1.1056   -3.5047 H   0  0  0  0  0  0  0  0  0  0  0  0
   -0.2120    2.1544    0.3789 C   0  0  0  0  0  0  0  0  0  0  0  0
   -1.0067    2.4072    1.2756 O   0  0  0  0  0  0  0  0  0  0  0  0
    0.4458    3.2160   -0.2225 N   0  0  0  0  0  0  0  0  0  0  0  0
    1.0916    3.0080   -0.9778 H   0  0  0  0  0  0  0  0  0  0  0  0
    0.3081    4.5996    0.2192 C   0  0  0  0  0  0  0  0  0  0  0  0
    0.6442    4.7053    1.2561 H   0  0  0  0  0  0  0  0  0  0  0  0
    0.9131    5.2598   -0.4096 H   0  0  0  0  0  0  0  0  0  0  0  0
   -0.7364    4.9217    0.1525 H   0  0  0  0  0  0  0  0  0  0  0  0
  1  2  1  0  0  0  0
  2  3  1  0  0  0  0
  2  4  1  0  0  0  0
  2  5  1  0  0  0  0
  5  6  2  0  0  0  0
  5  7  1  0  0  0  0
  7  8  1  0  0  0  0
  7  9  1  0  0  0  0
  9 10  1  0  0  0  0
  9 11  1  0  0  0  0
  9 22  1  0  0  0  0
 11 12  1  0  0  0  0
 11 13  1  0  0  0  0
 11 14  1  0  0  0  0
 14 15  1  0  0  0  0
 14 20  2  0  0  0  0
 15 16  1  0  0  0  0
 15 17  1  0  0  0  0
 17 18  1  0  0  0  0
 17 19  2  0  0  0  0
 19 20  1  0  0  0  0
 20 21  1  0  0  0  0
 22 23  2  0  0  0  0
 22 24  1  0  0  0  0
 24 25  1  0  0  0  0
 24 26  1  0  0  0  0
 26 27  1  0  0  0  0
 26 28  1  0  0  0  0
 26 29  1  0  0  0  0
M  END
$$$$

  -OEChem-01062216083D

 29 29  0     1  0  0  0  0  0999 V2000
   -3.2188   -2.4171    1.3007 H   0  0  0  0  0  0  0  0  0  0  0  0
   -3.1639   -1.5158    0.6839 C   0  0  0  0  0  0  0  0  0  0  0  0
   -3.7446   -0.7251    1.1651 H   0  0  0  0  0  0  0  0  0  0  0  0
   -3.5944   -1.7331   -0.2964 H   0  0  0  0  0  0  0  0  0  0  0  0
   -1.7203   -1.0771    0.5288 C   0  0  0  0  0  0  0  0  0  0  0  0
   -0.8299   -1.7463    1.0307 O   0  0  0  0  0  0  0  0  0  0  0  0
   -1.4327    0.0696   -0.1876 N   0  0  0  0  0  0  0  0  0  0  0  0
   -2.2320    0.6534   -0.4155 H   0  0  0  0  0  0  0  0  0  0  0  0
   -0.1059    0.7124   -0.1597 C   0  0  1  0  0  0  0  0  0  0  0  0
    0.5650    0.1909    0.5307 H   0  0  0  0  0  0  0  0  0  0  0  0
    0.5177    0.6467   -1.5662 C   0  0  0  0  0  0  0  0  0  0  0  0
   -0.1514    1.1283   -2.2872 H   0  0  0  0  0  0  0  0  0  0  0  0
    1.4730    1.1809   -1.5802 H   0  0  0  0  0  0  0  0  0  0  0  0
    0.7650   -0.7797   -1.9815 C   0  0  0  0  0  0  0  0  0  0  0  0
    1.7566   -1.6300   -1.5458 N   0  0  0  0  0  0  0  0  0  0  0  0
    2.4047   -1.4587   -0.7801 H   0  0  0  0  0  0  0  0  0  0  0  0
    1.6189   -2.8335   -2.2121 C   0  0  0  0  0  0  0  0  0  0  0  0
    2.2427   -3.7085   -2.0537 H   0  0  0  0  0  0  0  0  0  0  0  0
    0.6268   -2.7687   -3.0679 N   0  0  0  0  0  0  0  0  0  0  0  0
    0.0851   -1.4962   -2.9310 C   0  0  0  0  0  0  0  0  0  0  0  0
   -0.7587   -1.1214   -3.5021 H   0  0  0  0  0  0  0  0  0  0  0  0
   -0.2174    2.1607    0.3721 C   0  0  0  0  0  0  0  0  0  0  0  0
   -0.7806    2.3680    1.4381 O   0  0  0  0  0  0  0  0  0  0  0  0
    0.1670    3.2565   -0.3848 N   0  0  0  0  0  0  0  0  0  0  0  0
    0.6085    3.0826   -1.2822 H   0  0  0  0  0  0  0  0  0  0  0  0
    0.0116    4.6358    0.0640 C   0  0  0  0  0  0  0  0  0  0  0  0
    0.5816    4.8057    0.9835 H   0  0  0  0  0  0  0  0  0  0  0  0
    0.3768    5.3270   -0.7017 H   0  0  0  0  0  0  0  0  0  0  0  0
   -1.0427    4.8607    0.2568 H   0  0  0  0  0  0  0  0  0  0  0  0
  1  2  1  0  0  0  0
  2  3  1  0  0  0  0
  2  4  1  0  0  0  0
  2  5  1  0  0  0  0
  5  6  2  0  0  0  0
  5  7  1  0  0  0  0
  7  8  1  0  0  0  0
  7  9  1  0  0  0  0
  9 10  1  0  0  0  0
  9 11  1  0  0  0  0
  9 22  1  0  0  0  0
 11 12  1  0  0  0  0
 11 13  1  0  0  0  0
 11 14  1  0  0  0  0
 14 15  1  0  0  0  0
 14 20  2  0  0  0  0
 15 16  1  0  0  0  0
 15 17  1  0  0  0  0
 17 18  1  0  0  0  0
 17 19  2  0  0  0  0
 19 20  1  0  0  0  0
 20 21  1  0  0  0  0
 22 23  2  0  0  0  0
 22 24  1  0  0  0  0
 24 25  1  0  0  0  0
 24 26  1  0  0  0  0
 26 27  1  0  0  0  0
 26 28  1  0  0  0  0
 26 29  1  0  0  0  0
M  END
$$$$

  -OEChem-01062216083D

 29 29  0     1  0  0  0  0  0999 V2000
   -3.2132   -2.4505    1.2790 H   0  0  0  0  0  0  0  0  0  0  0  0
   -3.1625   -1.5489    0.6621 C   0  0  0  0  0  0  0  0  0  0  0  0
   -3.7740   -0.7712    1.1258 H   0  0  0  0  0  0  0  0  0  0  0  0
   -3.5616   -1.7780   -0.3289 H   0  0  0  0  0  0  0  0  0  0  0  0
   -1.7251   -1.0779    0.5450 C   0  0  0  0  0  0  0  0  0  0  0  0
   -0.8343   -1.7280    1.0699 O   0  0  0  0  0  0  0  0  0  0  0  0
   -1.4428    0.0700   -0.1720 N   0  0  0  0  0  0  0  0  0  0  0  0
   -2.2449    0.6235   -0.4567 H   0  0  0  0  0  0  0  0  0  0  0  0
   -0.1199    0.7213   -0.1574 C   0  0  1  0  0  0  0  0  0  0  0  0
    0.5577    0.2021    0.5287 H   0  0  0  0  0  0  0  0  0  0  0  0
    0.4995    0.6582   -1.5652 C   0  0  0  0  0  0  0  0  0  0  0  0
   -0.1756    1.1286   -2.2874 H   0  0  0  0  0  0  0  0  0  0  0  0
    1.4478    1.2050   -1.5816 H   0  0  0  0  0  0  0  0  0  0  0  0
    0.7551   -0.7680   -1.9752 C   0  0  0  0  0  0  0  0  0  0  0  0
    1.7548   -1.6073   -1.5371 N   0  0  0  0  0  0  0  0  0  0  0  0
    2.4064   -1.4239   -0.7770 H   0  0  0  0  0  0  0  0  0  0  0  0
    1.6232   -2.8171   -2.1929 C   0  0  0  0  0  0  0  0  0  0  0  0
    2.2545   -3.6857   -2.0296 H   0  0  0  0  0  0  0  0  0  0  0  0
    0.6262   -2.7668   -3.0443 N   0  0  0  0  0  0  0  0  0  0  0  0
    0.0764   -1.4969   -2.9159 C   0  0  0  0  0  0  0  0  0  0  0  0
   -0.7732   -1.1336   -3.4858 H   0  0  0  0  0  0  0  0  0  0  0  0
   -0.2264    2.1688    0.3721 C   0  0  0  0  0  0  0  0  0  0  0  0
   -0.5002    2.3647    1.5474 O   0  0  0  0  0  0  0  0  0  0  0  0
   -0.1480    3.2631   -0.4748 N   0  0  0  0  0  0  0  0  0  0  0  0
    0.0550    3.0913   -1.4545 H   0  0  0  0  0  0  0  0  0  0  0  0
   -0.2990    4.6410   -0.0206 C   0  0  0  0  0  0  0  0  0  0  0  0
    0.4745    4.8888    0.7141 H   0  0  0  0  0  0  0  0  0  0  0  0
   -0.2071    5.3307   -0.8652 H   0  0  0  0  0  0  0  0  0  0  0  0
   -1.2819    4.7879    0.4396 H   0  0  0  0  0  0  0  0  0  0  0  0
  1  2  1  0  0  0  0
  2  3  1  0  0  0  0
  2  4  1  0  0  0  0
  2  5  1  0  0  0  0
  5  6  2  0  0  0  0
  5  7  1  0  0  0  0
  7  8  1  0  0  0  0
  7  9  1  0  0  0  0
  9 10  1  0  0  0  0
  9 11  1  0  0  0  0
  9 22  1  0  0  0  0
 11 12  1  0  0  0  0
 11 13  1  0  0  0  0
 11 14  1  0  0  0  0
 14 15  1  0  0  0  0
 14 20  2  0  0  0  0
 15 16  1  0  0  0  0
 15 17  1  0  0  0  0
 17 18  1  0  0  0  0
 17 19  2  0  0  0  0
 19 20  1  0  0  0  0
 20 21  1  0  0  0  0
 22 23  2  0  0  0  0
 22 24  1  0  0  0  0
 24 25  1  0  0  0  0
 24 26  1  0  0  0  0
 26 27  1  0  0  0  0
 26 28  1  0  0  0  0
 26 29  1  0  0  0  0
M  END
$$$$

  -OEChem-01062216083D

 29 29  0     1  0  0  0  0  0999 V2000
   -3.2078   -2.4918    1.2586 H   0  0  0  0  0  0  0  0  0  0  0  0
   -3.1604   -1.5933    0.6366 C   0  0  0  0  0  0  0  0  0  0  0  0
   -3.8086   -0.8295    1.0726 H   0  0  0  0  0  0  0  0  0  0  0  0
   -3.5180   -1.8402   -0.3658 H   0  0  0  0  0  0  0  0  0  0  0  0
   -1.7336   -1.0835    0.5652 C   0  0  0  0  0  0  0  0  0  0  0  0
   -0.8448   -1.7057    1.1244 O   0  0  0  0  0  0  0  0  0  0  0  0
   -1.4575    0.0656   -0.1524 N   0  0  0  0  0  0  0  0  0  0  0  0
   -2.2583    0.5812   -0.5033 H   0  0  0  0  0  0  0  0  0  0  0  0
   -0.1396    0.7278   -0.1491 C   0  0  1  0  0  0  0  0  0  0  0  0
    0.5462    0.2111    0.5314 H   0  0  0  0  0  0  0  0  0  0  0  0
    0.4741    0.6718   -1.5590 C   0  0  0  0  0  0  0  0  0  0  0  0
   -0.2074    1.1339   -2.2801 H   0  0  0  0  0  0  0  0  0  0  0  0
    1.4155    1.2308   -1.5792 H   0  0  0  0  0  0  0  0  0  0  0  0
    0.7399   -0.7533   -1.9675 C   0  0  0  0  0  0  0  0  0  0  0  0
    1.7500   -1.5801   -1.5294 N   0  0  0  0  0  0  0  0  0  0  0  0
    2.4076   -1.3828   -0.7777 H   0  0  0  0  0  0  0  0  0  0  0  0
    1.6285   -2.7947   -2.1779 C   0  0  0  0  0  0  0  0  0  0  0  0
    2.2701   -3.6556   -2.0131 H   0  0  0  0  0  0  0  0  0  0  0  0
    0.6267   -2.7591   -3.0246 N   0  0  0  0  0  0  0  0  0  0  0  0
    0.0651   -1.4938   -2.9019 C   0  0  0  0  0  0  0  0  0  0  0  0
   -0.7905   -1.1425   -3.4707 H   0  0  0  0  0  0  0  0  0  0  0  0
   -0.2431    2.1747    0.3775 C   0  0  0  0  0  0  0  0  0  0  0  0
   -0.1850    2.3941    1.5782 O   0  0  0  0  0  0  0  0  0  0  0  0
   -0.4831    3.2380   -0.4782 N   0  0  0  0  0  0  0  0  0  0  0  0
   -0.5294    3.0444   -1.4735 H   0  0  0  0  0  0  0  0  0  0  0  0
   -0.6072    4.6188   -0.0239 C   0  0  0  0  0  0  0  0  0  0  0  0
    0.3157    4.9447    0.4676 H   0  0  0  0  0  0  0  0  0  0  0  0
   -0.7987    5.2817   -0.8732 H   0  0  0  0  0  0  0  0  0  0  0  0
   -1.4369    4.7169    0.6844 H   0  0  0  0  0  0  0  0  0  0  0  0
  1  2  1  0  0  0  0
  2  3  1  0  0  0  0
  2  4  1  0  0  0  0
  2  5  1  0  0  0  0
  5  6  2  0  0  0  0
  5  7  1  0  0  0  0
  7  8  1  0  0  0  0
  7  9  1  0  0  0  0
  9 10  1  0  0  0  0
  9 11  1  0  0  0  0
  9 22  1  0  0  0  0
 11 12  1  0  0  0  0
 11 13  1  0  0  0  0
 11 14  1  0  0  0  0
 14 15  1  0  0  0  0
 14 20  2  0  0  0  0
 15 16  1  0  0  0  0
 15 17  1  0  0  0  0
 17 18  1  0  0  0  0
 17 19  2  0  0  0  0
 19 20  1  0  0  0  0
 20 21  1  0  0  0  0
 22 23  2  0  0  0  0
 22 24  1  0  0  0  0
 24 25  1  0  0  0  0
 24 26  1  0  0  0  0
 26 27  1  0  0  0  0
 26 28  1  0  0  0  0
 26 29  1  0  0  0  0
M  END
$$$$

  -OEChem-01062216083D

 29 29  0     1  0  0  0  0  0999 V2000
   -3.2034   -2.5456    1.2265 H   0  0  0  0  0  0  0  0  0  0  0  0
   -3.1574   -1.6440    0.6090 C   0  0  0  0  0  0  0  0  0  0  0  0
   -3.8468   -0.9022    1.0187 H   0  0  0  0  0  0  0  0  0  0  0  0
   -3.4650   -1.8991   -0.4078 H   0  0  0  0  0  0  0  0  0  0  0  0
   -1.7448   -1.0915    0.5987 C   0  0  0  0  0  0  0  0  0  0  0  0
   -0.8660   -1.6777    1.2093 O   0  0  0  0  0  0  0  0  0  0  0  0
   -1.4699    0.0567   -0.1206 N   0  0  0  0  0  0  0  0  0  0  0  0
   -2.2615    0.5256   -0.5483 H   0  0  0  0  0  0  0  0  0  0  0  0
   -0.1552    0.7271   -0.1247 C   0  0  1  0  0  0  0  0  0  0  0  0
    0.5368    0.2096    0.5492 H   0  0  0  0  0  0  0  0  0  0  0  0
    0.4527    0.6888   -1.5361 C   0  0  0  0  0  0  0  0  0  0  0  0
   -0.2320    1.1547   -2.2514 H   0  0  0  0  0  0  0  0  0  0  0  0
    1.3904    1.2543   -1.5535 H   0  0  0  0  0  0  0  0  0  0  0  0
    0.7253   -0.7318   -1.9548 C   0  0  0  0  0  0  0  0  0  0  0  0
    1.7422   -1.5547   -1.5254 N   0  0  0  0  0  0  0  0  0  0  0  0
    2.4058   -1.3545   -0.7794 H   0  0  0  0  0  0  0  0  0  0  0  0
    1.6251   -2.7668   -2.1796 C   0  0  0  0  0  0  0  0  0  0  0  0
    2.2725   -3.6250   -2.0227 H   0  0  0  0  0  0  0  0  0  0  0  0
    0.6182   -2.7328   -3.0207 N   0  0  0  0  0  0  0  0  0  0  0  0
    0.0513   -1.4708   -2.8907 C   0  0  0  0  0  0  0  0  0  0  0  0
   -0.8080   -1.1207   -3.4545 H   0  0  0  0  0  0  0  0  0  0  0  0
   -0.2565    2.1745    0.3960 C   0  0  0  0  0  0  0  0  0  0  0  0
    0.1408    2.4575    1.5164 O   0  0  0  0  0  0  0  0  0  0  0  0
   -0.7996    3.1757   -0.3928 N   0  0  0  0  0  0  0  0  0  0  0  0
   -1.1002    2.9304   -1.3305 H   0  0  0  0  0  0  0  0  0  0  0  0
   -0.9009    4.5655    0.0388 C   0  0  0  0  0  0  0  0  0  0  0  0
    0.0918    4.9726    0.2585 H   0  0  0  0  0  0  0  0  0  0  0  0
   -1.3575    5.1745   -0.7472 H   0  0  0  0  0  0  0  0  0  0  0  0
   -1.5195    4.6429    0.9391 H   0  0  0  0  0  0  0  0  0  0  0  0
  1  2  1  0  0  0  0
  2  3  1  0  0  0  0
  2  4  1  0  0  0  0
  2  5  1  0  0  0  0
  5  6  2  0  0  0  0
  5  7  1  0  0  0  0
  7  8  1  0  0  0  0
  7  9  1  0  0  0  0
  9 10  1  0  0  0  0
  9 11  1  0  0  0  0
  9 22  1  0  0  0  0
 11 12  1  0  0  0  0
 11 13  1  0  0  0  0
 11 14  1  0  0  0  0
 14 15  1  0  0  0  0
 14 20  2  0  0  0  0
 15 16  1  0  0  0  0
 15 17  1  0  0  0  0
 17 18  1  0  0  0  0
 17 19  2  0  0  0  0
 19 20  1  0  0  0  0
 20 21  1  0  0  0  0
 22 23  2  0  0  0  0
 22 24  1  0  0  0  0
 24 25  1  0  0  0  0
 24 26  1  0  0  0  0
 26 27  1  0  0  0  0
 26 28  1  0  0  0  0
 26 29  1  0  0  0  0
M  END
$$$$

  -OEChem-01062216083D

 29 29  0     1  0  0  0  0  0999 V2000
   -3.1767   -2.6279    1.1770 H   0  0  0  0  0  0  0  0  0  0  0  0
   -3.1330   -1.7300    0.5539 C   0  0  0  0  0  0  0  0  0  0  0  0
   -3.8979   -1.0284    0.8947 H   0  0  0  0  0  0  0  0  0  0  0  0
   -3.3382   -2.0120   -0.4816 H   0  0  0  0  0  0  0  0  0  0  0  0
   -1.7607   -1.0914    0.6551 C   0  0  0  0  0  0  0  0  0  0  0  0
   -0.9106   -1.6025    1.3649 O   0  0  0  0  0  0  0  0  0  0  0  0
   -1.4887    0.0538   -0.0700 N   0  0  0  0  0  0  0  0  0  0  0  0
   -2.2364    0.4136   -0.6526 H   0  0  0  0  0  0  0  0  0  0  0  0
   -0.1753    0.7290   -0.0834 C   0  0  1  0  0  0  0  0  0  0  0  0
    0.5232    0.2089    0.5815 H   0  0  0  0  0  0  0  0  0  0  0  0
    0.4196    0.7061   -1.4995 C   0  0  0  0  0  0  0  0  0  0  0  0
   -0.2704    1.1822   -2.2032 H   0  0  0  0  0  0  0  0  0  0  0  0
    1.3564    1.2736   -1.5168 H   0  0  0  0  0  0  0  0  0  0  0  0
    0.6932   -0.7095   -1.9336 C   0  0  0  0  0  0  0  0  0  0  0  0
    1.7171   -1.5318   -1.5202 N   0  0  0  0  0  0  0  0  0  0  0  0
    2.3953   -1.3296   -0.7877 H   0  0  0  0  0  0  0  0  0  0  0  0
    1.6008   -2.7379   -2.1854 C   0  0  0  0  0  0  0  0  0  0  0  0
    2.2555   -3.5932   -2.0443 H   0  0  0  0  0  0  0  0  0  0  0  0
    0.5838   -2.7020   -3.0143 N   0  0  0  0  0  0  0  0  0  0  0  0
    0.0144   -1.4426   -2.8704 C   0  0  0  0  0  0  0  0  0  0  0  0
   -0.8508   -1.0909   -3.4241 H   0  0  0  0  0  0  0  0  0  0  0  0
   -0.2622    2.1798    0.4280 C   0  0  0  0  0  0  0  0  0  0  0  0
    0.4518    2.5536    1.3470 O   0  0  0  0  0  0  0  0  0  0  0  0
   -1.0686    3.1055   -0.2140 N   0  0  0  0  0  0  0  0  0  0  0  0
   -1.6207    2.7868   -1.0027 H   0  0  0  0  0  0  0  0  0  0  0  0
   -1.1380    4.5096    0.1742 C   0  0  0  0  0  0  0  0  0  0  0  0
   -0.1524    4.9798    0.0895 H   0  0  0  0  0  0  0  0  0  0  0  0
   -1.8346    5.0487   -0.4750 H   0  0  0  0  0  0  0  0  0  0  0  0
   -1.4856    4.6041    1.2085 H   0  0  0  0  0  0  0  0  0  0  0  0
  1  2  1  0  0  0  0
  2  3  1  0  0  0  0
  2  4  1  0  0  0  0
  2  5  1  0  0  0  0
  5  6  2  0  0  0  0
  5  7  1  0  0  0  0
  7  8  1  0  0  0  0
  7  9  1  0  0  0  0
  9 10  1  0  0  0  0
  9 11  1  0  0  0  0
  9 22  1  0  0  0  0
 11 12  1  0  0  0  0
 11 13  1  0  0  0  0
 11 14  1  0  0  0  0
 14 15  1  0  0  0  0
 14 20  2  0  0  0  0
 15 16  1  0  0  0  0
 15 17  1  0  0  0  0
 17 18  1  0  0  0  0
 17 19  2  0  0  0  0
 19 20  1  0  0  0  0
 20 21  1  0  0  0  0
 22 23  2  0  0  0  0
 22 24  1  0  0  0  0
 24 25  1  0  0  0  0
 24 26  1  0  0  0  0
 26 27  1  0  0  0  0
 26 28  1  0  0  0  0
 26 29  1  0  0  0  0
M  END
$$$$

  -OEChem-01062216083D

 29 29  0     1  0  0  0  0  0999 V2000
   -3.0797   -2.7118    1.1004 H   0  0  0  0  0  0  0  0  0  0  0  0
   -3.0385   -1.8361    0.4464 C   0  0  0  0  0  0  0  0  0  0  0  0
   -3.9134   -1.2112    0.6399 H   0  0  0  0  0  0  0  0  0  0  0  0
   -3.0592   -2.1739   -0.5927 H   0  0  0  0  0  0  0  0  0  0  0  0
   -1.7689   -1.0493    0.7099 C   0  0  0  0  0  0  0  0  0  0  0  0
   -0.9899   -1.4332    1.5659 O   0  0  0  0  0  0  0  0  0  0  0  0
   -1.5077    0.0869   -0.0332 N   0  0  0  0  0  0  0  0  0  0  0  0
   -2.1328    0.2481   -0.8155 H   0  0  0  0  0  0  0  0  0  0  0  0
   -0.1870    0.7501   -0.0536 C   0  0  1  0  0  0  0  0  0  0  0  0
    0.5140    0.2254    0.6052 H   0  0  0  0  0  0  0  0  0  0  0  0
    0.3885    0.7209   -1.4767 C   0  0  0  0  0  0  0  0  0  0  0  0
   -0.3040    1.2087   -2.1701 H   0  0  0  0  0  0  0  0  0  0  0  0
    1.3325    1.2763   -1.5069 H   0  0  0  0  0  0  0  0  0  0  0  0
    0.6384   -0.6996   -1.9093 C   0  0  0  0  0  0  0  0  0  0  0  0
    1.6579   -1.5316   -1.5052 N   0  0  0  0  0  0  0  0  0  0  0  0
    2.3588   -1.3264   -0.7950 H   0  0  0  0  0  0  0  0  0  0  0  0
    1.5177   -2.7403   -2.1610 C   0  0  0  0  0  0  0  0  0  0  0  0
    2.1654   -3.6020   -2.0264 H   0  0  0  0  0  0  0  0  0  0  0  0
    0.4856   -2.6983   -2.9709 N   0  0  0  0  0  0  0  0  0  0  0  0
   -0.0626   -1.4294   -2.8319 C   0  0  0  0  0  0  0  0  0  0  0  0
   -0.9305   -1.0700   -3.3764 H   0  0  0  0  0  0  0  0  0  0  0  0
   -0.2447    2.2065    0.4438 C   0  0  0  0  0  0  0  0  0  0  0  0
    0.6952    2.6725    1.0722 O   0  0  0  0  0  0  0  0  0  0  0  0
   -1.2483    3.0563    0.0108 N   0  0  0  0  0  0  0  0  0  0  0  0
   -2.0457    2.6321   -0.4504 H   0  0  0  0  0  0  0  0  0  0  0  0
   -1.3305    4.4569    0.4081 C   0  0  0  0  0  0  0  0  0  0  0  0
   -0.4337    4.9992    0.0900 H   0  0  0  0  0  0  0  0  0  0  0  0
   -2.2014    4.9311   -0.0544 H   0  0  0  0  0  0  0  0  0  0  0  0
   -1.4258    4.5414    1.4958 H   0  0  0  0  0  0  0  0  0  0  0  0
  1  2  1  0  0  0  0
  2  3  1  0  0  0  0
  2  4  1  0  0  0  0
  2  5  1  0  0  0  0
  5  6  2  0  0  0  0
  5  7  1  0  0  0  0
  7  8  1  0  0  0  0
  7  9  1  0  0  0  0
  9 10  1  0  0  0  0
  9 11  1  0  0  0  0
  9 22  1  0  0  0  0
 11 12  1  0  0  0  0
 11 13  1  0  0  0  0
 11 14  1  0  0  0  0
 14 15  1  0  0  0  0
 14 20  2  0  0  0  0
 15 16  1  0  0  0  0
 15 17  1  0  0  0  0
 17 18  1  0  0  0  0
 17 19  2  0  0  0  0
 19 20  1  0  0  0  0
 20 21  1  0  0  0  0
 22 23  2  0  0  0  0
 22 24  1  0  0  0  0
 24 25  1  0  0  0  0
 24 26  1  0  0  0  0
 26 27  1  0  0  0  0
 26 28  1  0  0  0  0
 26 29  1  0  0  0  0
M  END
$$$$

  -OEChem-01062216083D

 29 29  0     1  0  0  0  0  0999 V2000
   -3.0585   -2.7287    1.0884 H   0  0  0  0  0  0  0  0  0  0  0  0
   -3.0015   -1.8764    0.4052 C   0  0  0  0  0  0  0  0  0  0  0  0
   -3.9042   -1.2720    0.5210 H   0  0  0  0  0  0  0  0  0  0  0  0
   -2.9484   -2.2518   -0.6197 H   0  0  0  0  0  0  0  0  0  0  0  0
   -1.7727   -1.0427    0.7143 C   0  0  0  0  0  0  0  0  0  0  0  0
   -1.0237   -1.3834    1.6143 O   0  0  0  0  0  0  0  0  0  0  0  0
   -1.5150    0.0928   -0.0311 N   0  0  0  0  0  0  0  0  0  0  0  0
   -2.1046    0.2129   -0.8483 H   0  0  0  0  0  0  0  0  0  0  0  0
   -0.1925    0.7544   -0.0453 C   0  0  1  0  0  0  0  0  0  0  0  0
    0.5083    0.2278    0.6117 H   0  0  0  0  0  0  0  0  0  0  0  0
    0.3771    0.7239   -1.4716 C   0  0  0  0  0  0  0  0  0  0  0  0
   -0.3177    1.2151   -2.1606 H   0  0  0  0  0  0  0  0  0  0  0  0
    1.3230    1.2758   -1.5077 H   0  0  0  0  0  0  0  0  0  0  0  0
    0.6207   -0.6978   -1.9053 C   0  0  0  0  0  0  0  0  0  0  0  0
    1.6401   -1.5314   -1.5043 N   0  0  0  0  0  0  0  0  0  0  0  0
    2.3499   -1.3231   -0.8039 H   0  0  0  0  0  0  0  0  0  0  0  0
    1.4937   -2.7414   -2.1563 C   0  0  0  0  0  0  0  0  0  0  0  0
    2.1411   -3.6037   -2.0234 H   0  0  0  0  0  0  0  0  0  0  0  0
    0.4561   -2.6997   -2.9592 N   0  0  0  0  0  0  0  0  0  0  0  0
   -0.0871   -1.4283   -2.8222 C   0  0  0  0  0  0  0  0  0  0  0  0
   -0.9569   -1.0686   -3.3634 H   0  0  0  0  0  0  0  0  0  0  0  0
   -0.2433    2.2119    0.4510 C   0  0  0  0  0  0  0  0  0  0  0  0
    0.7815    2.7560    0.8385 O   0  0  0  0  0  0  0  0  0  0  0  0
   -1.3841    2.9754    0.2746 N   0  0  0  0  0  0  0  0  0  0  0  0
   -2.2359    2.4708    0.0528 H   0  0  0  0  0  0  0  0  0  0  0  0
   -1.4850    4.3643    0.7075 C   0  0  0  0  0  0  0  0  0  0  0  0
   -0.7312    4.9789    0.2041 H   0  0  0  0  0  0  0  0  0  0  0  0
   -2.4736    4.7656    0.4648 H   0  0  0  0  0  0  0  0  0  0  0  0
   -1.3353    4.4400    1.7898 H   0  0  0  0  0  0  0  0  0  0  0  0
  1  2  1  0  0  0  0
  2  3  1  0  0  0  0
  2  4  1  0  0  0  0
  2  5  1  0  0  0  0
  5  6  2  0  0  0  0
  5  7  1  0  0  0  0
  7  8  1  0  0  0  0
  7  9  1  0  0  0  0
  9 10  1  0  0  0  0
  9 11  1  0  0  0  0
  9 22  1  0  0  0  0
 11 12  1  0  0  0  0
 11 13  1  0  0  0  0
 11 14  1  0  0  0  0
 14 15  1  0  0  0  0
 14 20  2  0  0  0  0
 15 16  1  0  0  0  0
 15 17  1  0  0  0  0
 17 18  1  0  0  0  0
 17 19  2  0  0  0  0
 19 20  1  0  0  0  0
 20 21  1  0  0  0  0
 22 23  2  0  0  0  0
 22 24  1  0  0  0  0
 24 25  1  0  0  0  0
 24 26  1  0  0  0  0
 26 27  1  0  0  0  0
 26 28  1  0  0  0  0
 26 29  1  0  0  0  0
M  END
$$$$

  -OEChem-01062216083D

 29 29  0     1  0  0  0  0  0999 V2000
   -3.0592   -2.7290    1.0746 H   0  0  0  0  0  0  0  0  0  0  0  0
   -2.9914   -1.8849    0.3826 C   0  0  0  0  0  0  0  0  0  0  0  0
   -3.8970   -1.2809    0.4751 H   0  0  0  0  0  0  0  0  0  0  0  0
   -2.9195   -2.2725   -0.6366 H   0  0  0  0  0  0  0  0  0  0  0  0
   -1.7696   -1.0454    0.7031 C   0  0  0  0  0  0  0  0  0  0  0  0
   -1.0289   -1.3776    1.6132 O   0  0  0  0  0  0  0  0  0  0  0  0
   -1.5118    0.0931   -0.0370 N   0  0  0  0  0  0  0  0  0  0  0  0
   -2.0986    0.2180   -0.8562 H   0  0  0  0  0  0  0  0  0  0  0  0
   -0.1897    0.7566   -0.0460 C   0  0  1  0  0  0  0  0  0  0  0  0
    0.5112    0.2303    0.6109 H   0  0  0  0  0  0  0  0  0  0  0  0
    0.3751    0.7239   -1.4754 C   0  0  0  0  0  0  0  0  0  0  0  0
   -0.3218    1.2154   -2.1620 H   0  0  0  0  0  0  0  0  0  0  0  0
    1.3218    1.2741   -1.5177 H   0  0  0  0  0  0  0  0  0  0  0  0
    0.6167   -0.6987   -1.9076 C   0  0  0  0  0  0  0  0  0  0  0  0
    1.6379   -1.5306   -1.5080 N   0  0  0  0  0  0  0  0  0  0  0  0
    2.3566   -1.3156   -0.8188 H   0  0  0  0  0  0  0  0  0  0  0  0
    1.4871   -2.7439   -2.1525 C   0  0  0  0  0  0  0  0  0  0  0  0
    2.1353   -3.6054   -2.0195 H   0  0  0  0  0  0  0  0  0  0  0  0
    0.4444   -2.7062   -2.9490 N   0  0  0  0  0  0  0  0  0  0  0  0
   -0.0974   -1.4335   -2.8162 C   0  0  0  0  0  0  0  0  0  0  0  0
   -0.9716   -1.0766   -3.3521 H   0  0  0  0  0  0  0  0  0  0  0  0
   -0.2433    2.2130    0.4563 C   0  0  0  0  0  0  0  0  0  0  0  0
    0.7956    2.8382    0.6204 O   0  0  0  0  0  0  0  0  0  0  0  0
   -1.4526    2.8761    0.5666 N   0  0  0  0  0  0  0  0  0  0  0  0
   -2.2856    2.2961    0.5404 H   0  0  0  0  0  0  0  0  0  0  0  0
   -1.5660    4.2479    1.0475 C   0  0  0  0  0  0  0  0  0  0  0  0
   -0.9914    4.9270    0.4084 H   0  0  0  0  0  0  0  0  0  0  0  0
   -2.6122    4.5681    1.0359 H   0  0  0  0  0  0  0  0  0  0  0  0
   -1.1895    4.3264    2.0729 H   0  0  0  0  0  0  0  0  0  0  0  0
  1  2  1  0  0  0  0
  2  3  1  0  0  0  0
  2  4  1  0  0  0  0
  2  5  1  0  0  0  0
  5  6  2  0  0  0  0
  5  7  1  0  0  0  0
  7  8  1  0  0  0  0
  7  9  1  0  0  0  0
  9 10  1  0  0  0  0
  9 11  1  0  0  0  0
  9 22  1  0  0  0  0
 11 12  1  0  0  0  0
 11 13  1  0  0  0  0
 11 14  1  0  0  0  0
 14 15  1  0  0  0  0
 14 20  2  0  0  0  0
 15 16  1  0  0  0  0
 15 17  1  0  0  0  0
 17 18  1  0  0  0  0
 17 19  2  0  0  0  0
 19 20  1  0  0  0  0
 20 21  1  0  0  0  0
 22 23  2  0  0  0  0
 22 24  1  0  0  0  0
 24 25  1  0  0  0  0
 24 26  1  0  0  0  0
 26 27  1  0  0  0  0
 26 28  1  0  0  0  0
 26 29  1  0  0  0  0
M  END
$$$$

  -OEChem-01062216083D

 29 29  0     1  0  0  0  0  0999 V2000
   -3.0614   -2.7161    1.0693 H   0  0  0  0  0  0  0  0  0  0  0  0
   -2.9843   -1.8804    0.3680 C   0  0  0  0  0  0  0  0  0  0  0  0
   -3.8897   -1.2737    0.4428 H   0  0  0  0  0  0  0  0  0  0  0  0
   -2.9017   -2.2800   -0.6458 H   0  0  0  0  0  0  0  0  0  0  0  0
   -1.7638   -1.0401    0.6917 C   0  0  0  0  0  0  0  0  0  0  0  0
   -1.0258   -1.3696    1.6049 O   0  0  0  0  0  0  0  0  0  0  0  0
   -1.5051    0.1010   -0.0436 N   0  0  0  0  0  0  0  0  0  0  0  0
   -2.1019    0.2436   -0.8530 H   0  0  0  0  0  0  0  0  0  0  0  0
   -0.1826    0.7644   -0.0527 C   0  0  1  0  0  0  0  0  0  0  0  0
    0.5186    0.2387    0.6039 H   0  0  0  0  0  0  0  0  0  0  0  0
    0.3780    0.7226   -1.4852 C   0  0  0  0  0  0  0  0  0  0  0  0
   -0.3213    1.2111   -2.1717 H   0  0  0  0  0  0  0  0  0  0  0  0
    1.3256    1.2697   -1.5373 H   0  0  0  0  0  0  0  0  0  0  0  0
    0.6159   -0.7036   -1.9093 C   0  0  0  0  0  0  0  0  0  0  0  0
    1.6357   -1.5376   -1.5099 N   0  0  0  0  0  0  0  0  0  0  0  0
    2.3572   -1.3227   -0.8239 H   0  0  0  0  0  0  0  0  0  0  0  0
    1.4798   -2.7526   -2.1503 C   0  0  0  0  0  0  0  0  0  0  0  0
    2.1256   -3.6158   -2.0166 H   0  0  0  0  0  0  0  0  0  0  0  0
    0.4352   -2.7142   -2.9440 N   0  0  0  0  0  0  0  0  0  0  0  0
   -0.1015   -1.4390   -2.8146 C   0  0  0  0  0  0  0  0  0  0  0  0
   -0.9739   -1.0797   -3.3520 H   0  0  0  0  0  0  0  0  0  0  0  0
   -0.2424    2.2199    0.4569 C   0  0  0  0  0  0  0  0  0  0  0  0
    0.7552    2.9279    0.4183 O   0  0  0  0  0  0  0  0  0  0  0  0
   -1.4439    2.7724    0.8628 N   0  0  0  0  0  0  0  0  0  0  0  0
   -2.2121    2.1211    0.9963 H   0  0  0  0  0  0  0  0  0  0  0  0
   -1.5608    4.1207    1.4044 C   0  0  0  0  0  0  0  0  0  0  0  0
   -1.2034    4.8582    0.6780 H   0  0  0  0  0  0  0  0  0  0  0  0
   -2.6061    4.3456    1.6367 H   0  0  0  0  0  0  0  0  0  0  0  0
   -0.9722    4.2165    2.3228 H   0  0  0  0  0  0  0  0  0  0  0  0
  1  2  1  0  0  0  0
  2  3  1  0  0  0  0
  2  4  1  0  0  0  0
  2  5  1  0  0  0  0
  5  6  2  0  0  0  0
  5  7  1  0  0  0  0
  7  8  1  0  0  0  0
  7  9  1  0  0  0  0
  9 10  1  0  0  0  0
  9 11  1  0  0  0  0
  9 22  1  0  0  0  0
 11 12  1  0  0  0  0
 11 13  1  0  0  0  0
 11 14  1  0  0  0  0
 14 15  1  0  0  0  0
 14 20  2  0  0  0  0
 15 16  1  0  0  0  0
 15 17  1  0  0  0  0
 17 18  1  0  0  0  0
 17 19  2  0  0  0  0
 19 20  1  0  0  0  0
 20 21  1  0  0  0  0
 22 23  2  0  0  0  0
 22 24  1  0  0  0  0
 24 25  1  0  0  0  0
 24 26  1  0  0  0  0
 26 27  1  0  0  0  0
 26 28  1  0  0  0  0
 26 29  1  0  0  0  0
M  END
$$$$

  -OEChem-01062216083D

 29 29  0     1  0  0  0  0  0999 V2000
   -3.0196   -2.7461    1.0000 H   0  0  0  0  0  0  0  0  0  0  0  0
   -2.9803   -1.8671    0.3506 C   0  0  0  0  0  0  0  0  0  0  0  0
   -3.8881   -1.2780    0.4987 H   0  0  0  0  0  0  0  0  0  0  0  0
   -2.9342   -2.2022   -0.6887 H   0  0  0  0  0  0  0  0  0  0  0  0
   -1.7576   -1.0321    0.6792 C   0  0  0  0  0  0  0  0  0  0  0  0
   -1.0256   -1.3615    1.5974 O   0  0  0  0  0  0  0  0  0  0  0  0
   -1.4935    0.1124   -0.0480 N   0  0  0  0  0  0  0  0  0  0  0  0
   -2.1006    0.2784   -0.8452 H   0  0  0  0  0  0  0  0  0  0  0  0
   -0.1694    0.7714   -0.0552 C   0  0  1  0  0  0  0  0  0  0  0  0
    0.5306    0.2437    0.6008 H   0  0  0  0  0  0  0  0  0  0  0  0
    0.3892    0.7224   -1.4895 C   0  0  0  0  0  0  0  0  0  0  0  0
   -0.3075    1.2133   -2.1767 H   0  0  0  0  0  0  0  0  0  0  0  0
    1.3405    1.2624   -1.5449 H   0  0  0  0  0  0  0  0  0  0  0  0
    0.6206   -0.7064   -1.9095 C   0  0  0  0  0  0  0  0  0  0  0  0
    1.6363   -1.5460   -1.5113 N   0  0  0  0  0  0  0  0  0  0  0  0
    2.3666   -1.3318   -0.8345 H   0  0  0  0  0  0  0  0  0  0  0  0
    1.4663   -2.7633   -2.1435 C   0  0  0  0  0  0  0  0  0  0  0  0
    2.1066   -3.6305   -2.0095 H   0  0  0  0  0  0  0  0  0  0  0  0
    0.4162   -2.7221   -2.9297 N   0  0  0  0  0  0  0  0  0  0  0  0
   -0.1096   -1.4422   -2.8043 C   0  0  0  0  0  0  0  0  0  0  0  0
   -0.9851   -1.0806   -3.3349 H   0  0  0  0  0  0  0  0  0  0  0  0
   -0.2374    2.2241    0.4659 C   0  0  0  0  0  0  0  0  0  0  0  0
    0.6639    3.0178    0.2284 O   0  0  0  0  0  0  0  0  0  0  0  0
   -1.3537    2.6635    1.1544 N   0  0  0  0  0  0  0  0  0  0  0  0
   -2.0219    1.9478    1.4271 H   0  0  0  0  0  0  0  0  0  0  0  0
   -1.4689    3.9965    1.7334 C   0  0  0  0  0  0  0  0  0  0  0  0
   -1.3659    4.7625    0.9576 H   0  0  0  0  0  0  0  0  0  0  0  0
   -2.4466    4.1186    2.2092 H   0  0  0  0  0  0  0  0  0  0  0  0
   -0.6925    4.1538    2.4894 H   0  0  0  0  0  0  0  0  0  0  0  0
  1  2  1  0  0  0  0
  2  3  1  0  0  0  0
  2  4  1  0  0  0  0
  2  5  1  0  0  0  0
  5  6  2  0  0  0  0
  5  7  1  0  0  0  0
  7  8  1  0  0  0  0
  7  9  1  0  0  0  0
  9 10  1  0  0  0  0
  9 11  1  0  0  0  0
  9 22  1  0  0  0  0
 11 12  1  0  0  0  0
 11 13  1  0  0  0  0
 11 14  1  0  0  0  0
 14 15  1  0  0  0  0
 14 20  2  0  0  0  0
 15 16  1  0  0  0  0
 15 17  1  0  0  0  0
 17 18  1  0  0  0  0
 17 19  2  0  0  0  0
 19 20  1  0  0  0  0
 20 21  1  0  0  0  0
 22 23  2  0  0  0  0
 22 24  1  0  0  0  0
 24 25  1  0  0  0  0
 24 26  1  0  0  0  0
 26 27  1  0  0  0  0
 26 28  1  0  0  0  0
 26 29  1  0  0  0  0
M  END
$$$$

  -OEChem-01062216083D

 29 29  0     1  0  0  0  0  0999 V2000
   -3.0472   -2.7082    1.0168 H   0  0  0  0  0  0  0  0  0  0  0  0
   -2.9875   -1.8419    0.3519 C   0  0  0  0  0  0  0  0  0  0  0  0
   -3.8860   -1.2345    0.4828 H   0  0  0  0  0  0  0  0  0  0  0  0
   -2.9399   -2.1960   -0.6810 H   0  0  0  0  0  0  0  0  0  0  0  0
   -1.7530   -1.0219    0.6737 C   0  0  0  0  0  0  0  0  0  0  0  0
   -1.0195   -1.3564    1.5893 O   0  0  0  0  0  0  0  0  0  0  0  0
   -1.4840    0.1248   -0.0469 N   0  0  0  0  0  0  0  0  0  0  0  0
   -2.1027    0.3115   -0.8308 H   0  0  0  0  0  0  0  0  0  0  0  0
   -0.1574    0.7764   -0.0583 C   0  0  1  0  0  0  0  0  0  0  0  0
    0.5417    0.2459    0.5960 H   0  0  0  0  0  0  0  0  0  0  0  0
    0.3999    0.7210   -1.4933 C   0  0  0  0  0  0  0  0  0  0  0  0
   -0.2959    1.2139   -2.1802 H   0  0  0  0  0  0  0  0  0  0  0  0
    1.3534    1.2572   -1.5507 H   0  0  0  0  0  0  0  0  0  0  0  0
    0.6249   -0.7093   -1.9122 C   0  0  0  0  0  0  0  0  0  0  0  0
    1.6372   -1.5535   -1.5145 N   0  0  0  0  0  0  0  0  0  0  0  0
    2.3694   -1.3426   -0.8390 H   0  0  0  0  0  0  0  0  0  0  0  0
    1.4642   -2.7690   -2.1496 C   0  0  0  0  0  0  0  0  0  0  0  0
    2.1023   -3.6383   -2.0178 H   0  0  0  0  0  0  0  0  0  0  0  0
    0.4145   -2.7231   -2.9359 N   0  0  0  0  0  0  0  0  0  0  0  0
   -0.1077   -1.4415   -2.8082 C   0  0  0  0  0  0  0  0  0  0  0  0
   -0.9815   -1.0767   -3.3395 H   0  0  0  0  0  0  0  0  0  0  0  0
   -0.2312    2.2246    0.4746 C   0  0  0  0  0  0  0  0  0  0  0  0
    0.5138    3.0984    0.0494 O   0  0  0  0  0  0  0  0  0  0  0  0
   -1.1844    2.5579    1.4192 N   0  0  0  0  0  0  0  0  0  0  0  0
   -1.7179    1.7867    1.8130 H   0  0  0  0  0  0  0  0  0  0  0  0
   -1.2931    3.8792    2.0254 C   0  0  0  0  0  0  0  0  0  0  0  0
   -1.4634    4.6409    1.2572 H   0  0  0  0  0  0  0  0  0  0  0  0
   -2.1317    3.9050    2.7276 H   0  0  0  0  0  0  0  0  0  0  0  0
   -0.3764    4.1272    2.5705 H   0  0  0  0  0  0  0  0  0  0  0  0
  1  2  1  0  0  0  0
  2  3  1  0  0  0  0
  2  4  1  0  0  0  0
  2  5  1  0  0  0  0
  5  6  2  0  0  0  0
  5  7  1  0  0  0  0
  7  8  1  0  0  0  0
  7  9  1  0  0  0  0
  9 10  1  0  0  0  0
  9 11  1  0  0  0  0
  9 22  1  0  0  0  0
 11 12  1  0  0  0  0
 11 13  1  0  0  0  0
 11 14  1  0  0  0  0
 14 15  1  0  0  0  0
 14 20  2  0  0  0  0
 15 16  1  0  0  0  0
 15 17  1  0  0  0  0
 17 18  1  0  0  0  0
 17 19  2  0  0  0  0
 19 20  1  0  0  0  0
 20 21  1  0  0  0  0
 22 23  2  0  0  0  0
 22 24  1  0  0  0  0
 24 25  1  0  0  0  0
 24 26  1  0  0  0  0
 26 27  1  0  0  0  0
 26 28  1  0  0  0  0
 26 29  1  0  0  0  0
M  END
$$$$

  -OEChem-01062216083D

 29 29  0     1  0  0  0  0  0999 V2000
   -3.0358   -2.6974    1.0033 H   0  0  0  0  0  0  0  0  0  0  0  0
   -2.9854   -1.8161    0.3577 C   0  0  0  0  0  0  0  0  0  0  0  0
   -3.8807   -1.2104    0.5164 H   0  0  0  0  0  0  0  0  0  0  0  0
   -2.9549   -2.1466   -0.6836 H   0  0  0  0  0  0  0  0  0  0  0  0
   -1.7445   -1.0055    0.6783 C   0  0  0  0  0  0  0  0  0  0  0  0
   -1.0137   -1.3426    1.5958 O   0  0  0  0  0  0  0  0  0  0  0  0
   -1.4670    0.1396   -0.0406 N   0  0  0  0  0  0  0  0  0  0  0  0
   -2.0929    0.3437   -0.8144 H   0  0  0  0  0  0  0  0  0  0  0  0
   -0.1356    0.7778   -0.0566 C   0  0  1  0  0  0  0  0  0  0  0  0
    0.5630    0.2424    0.5942 H   0  0  0  0  0  0  0  0  0  0  0  0
    0.4200    0.7225   -1.4924 C   0  0  0  0  0  0  0  0  0  0  0  0
   -0.2726    1.2225   -2.1777 H   0  0  0  0  0  0  0  0  0  0  0  0
    1.3772    1.2522   -1.5480 H   0  0  0  0  0  0  0  0  0  0  0  0
    0.6308   -0.7089   -1.9138 C   0  0  0  0  0  0  0  0  0  0  0  0
    1.6346   -1.5645   -1.5192 N   0  0  0  0  0  0  0  0  0  0  0  0
    2.3695   -1.3633   -0.8437 H   0  0  0  0  0  0  0  0  0  0  0  0
    1.4448   -2.7780   -2.1534 C   0  0  0  0  0  0  0  0  0  0  0  0
    2.0712   -3.6556   -2.0212 H   0  0  0  0  0  0  0  0  0  0  0  0
    0.3947   -2.7192   -2.9382 N   0  0  0  0  0  0  0  0  0  0  0  0
   -0.1120   -1.4315   -2.8091 C   0  0  0  0  0  0  0  0  0  0  0  0
   -0.9829   -1.0554   -3.3375 H   0  0  0  0  0  0  0  0  0  0  0  0
   -0.2135    2.2217    0.4825 C   0  0  0  0  0  0  0  0  0  0  0  0
    0.3255    3.1564   -0.0970 O   0  0  0  0  0  0  0  0  0  0  0  0
   -0.9404    2.4696    1.6319 N   0  0  0  0  0  0  0  0  0  0  0  0
   -1.3275    1.6588    2.1103 H   0  0  0  0  0  0  0  0  0  0  0  0
   -1.0573    3.7849    2.2479 C   0  0  0  0  0  0  0  0  0  0  0  0
   -1.5121    4.4954    1.5500 H   0  0  0  0  0  0  0  0  0  0  0  0
   -1.6856    3.7291    3.1420 H   0  0  0  0  0  0  0  0  0  0  0  0
   -0.0706    4.1593    2.5401 H   0  0  0  0  0  0  0  0  0  0  0  0
  1  2  1  0  0  0  0
  2  3  1  0  0  0  0
  2  4  1  0  0  0  0
  2  5  1  0  0  0  0
  5  6  2  0  0  0  0
  5  7  1  0  0  0  0
  7  8  1  0  0  0  0
  7  9  1  0  0  0  0
  9 10  1  0  0  0  0
  9 11  1  0  0  0  0
  9 22  1  0  0  0  0
 11 12  1  0  0  0  0
 11 13  1  0  0  0  0
 11 14  1  0  0  0  0
 14 15  1  0  0  0  0
 14 20  2  0  0  0  0
 15 16  1  0  0  0  0
 15 17  1  0  0  0  0
 17 18  1  0  0  0  0
 17 19  2  0  0  0  0
 19 20  1  0  0  0  0
 20 21  1  0  0  0  0
 22 23  2  0  0  0  0
 22 24  1  0  0  0  0
 24 25  1  0  0  0  0
 24 26  1  0  0  0  0
 26 27  1  0  0  0  0
 26 28  1  0  0  0  0
 26 29  1  0  0  0  0
M  END
$$$$

  -OEChem-01062216083D

 29 29  0     1  0  0  0  0  0999 V2000
   -3.0592   -2.6578    1.0362 H   0  0  0  0  0  0  0  0  0  0  0  0
   -2.9960   -1.7837    0.3821 C   0  0  0  0  0  0  0  0  0  0  0  0
   -3.8761   -1.1569    0.5438 H   0  0  0  0  0  0  0  0  0  0  0  0
   -2.9827   -2.1236   -0.6565 H   0  0  0  0  0  0  0  0  0  0  0  0
   -1.7352   -0.9971    0.6834 C   0  0  0  0  0  0  0  0  0  0  0  0
   -0.9960   -1.3476    1.5898 O   0  0  0  0  0  0  0  0  0  0  0  0
   -1.4496    0.1458   -0.0355 N   0  0  0  0  0  0  0  0  0  0  0  0
   -2.0847    0.3696   -0.7963 H   0  0  0  0  0  0  0  0  0  0  0  0
   -0.1149    0.7732   -0.0534 C   0  0  1  0  0  0  0  0  0  0  0  0
    0.5831    0.2331    0.5942 H   0  0  0  0  0  0  0  0  0  0  0  0
    0.4402    0.7196   -1.4889 C   0  0  0  0  0  0  0  0  0  0  0  0
   -0.2505    1.2252   -2.1723 H   0  0  0  0  0  0  0  0  0  0  0  0
    1.3982    1.2480   -1.5404 H   0  0  0  0  0  0  0  0  0  0  0  0
    0.6429   -0.7107   -1.9190 C   0  0  0  0  0  0  0  0  0  0  0  0
    1.6412   -1.5764   -1.5312 N   0  0  0  0  0  0  0  0  0  0  0  0
    2.3807   -1.3844   -0.8583 H   0  0  0  0  0  0  0  0  0  0  0  0
    1.4416   -2.7844   -2.1728 C   0  0  0  0  0  0  0  0  0  0  0  0
    2.0629   -3.6670   -2.0489 H   0  0  0  0  0  0  0  0  0  0  0  0
    0.3896   -2.7133   -2.9539 N   0  0  0  0  0  0  0  0  0  0  0  0
   -0.1083   -1.4231   -2.8156 C   0  0  0  0  0  0  0  0  0  0  0  0
   -0.9790   -1.0385   -3.3382 H   0  0  0  0  0  0  0  0  0  0  0  0
   -0.1935    2.2148    0.4876 C   0  0  0  0  0  0  0  0  0  0  0  0
    0.1162    3.1818   -0.1974 O   0  0  0  0  0  0  0  0  0  0  0  0
   -0.6440    2.4139    1.7789 N   0  0  0  0  0  0  0  0  0  0  0  0
   -0.9014    1.5833    2.3088 H   0  0  0  0  0  0  0  0  0  0  0  0
   -0.7724    3.7258    2.4000 C   0  0  0  0  0  0  0  0  0  0  0  0
   -1.4826    4.3454    1.8426 H   0  0  0  0  0  0  0  0  0  0  0  0
   -1.1343    3.6235    3.4275 H   0  0  0  0  0  0  0  0  0  0  0  0
    0.1969    4.2347    2.4244 H   0  0  0  0  0  0  0  0  0  0  0  0
  1  2  1  0  0  0  0
  2  3  1  0  0  0  0
  2  4  1  0  0  0  0
  2  5  1  0  0  0  0
  5  6  2  0  0  0  0
  5  7  1  0  0  0  0
  7  8  1  0  0  0  0
  7  9  1  0  0  0  0
  9 10  1  0  0  0  0
  9 11  1  0  0  0  0
  9 22  1  0  0  0  0
 11 12  1  0  0  0  0
 11 13  1  0  0  0  0
 11 14  1  0  0  0  0
 14 15  1  0  0  0  0
 14 20  2  0  0  0  0
 15 16  1  0  0  0  0
 15 17  1  0  0  0  0
 17 18  1  0  0  0  0
 17 19  2  0  0  0  0
 19 20  1  0  0  0  0
 20 21  1  0  0  0  0
 22 23  2  0  0  0  0
 22 24  1  0  0  0  0
 24 25  1  0  0  0  0
 24 26  1  0  0  0  0
 26 27  1  0  0  0  0
 26 28  1  0  0  0  0
 26 29  1  0  0  0  0
M  END
$$$$

  -OEChem-01062216083D

 29 29  0     1  0  0  0  0  0999 V2000
   -3.0694   -2.6441    1.0426 H   0  0  0  0  0  0  0  0  0  0  0  0
   -3.0127   -1.7537    0.4103 C   0  0  0  0  0  0  0  0  0  0  0  0
   -3.8753   -1.1164    0.6190 H   0  0  0  0  0  0  0  0  0  0  0  0
   -3.0414   -2.0655   -0.6367 H   0  0  0  0  0  0  0  0  0  0  0  0
   -1.7281   -0.9975    0.6889 C   0  0  0  0  0  0  0  0  0  0  0  0
   -0.9733   -1.3765    1.5713 O   0  0  0  0  0  0  0  0  0  0  0  0
   -1.4314    0.1426   -0.0301 N   0  0  0  0  0  0  0  0  0  0  0  0
   -2.0811    0.3991   -0.7678 H   0  0  0  0  0  0  0  0  0  0  0  0
   -0.0945    0.7621   -0.0465 C   0  0  1  0  0  0  0  0  0  0  0  0
    0.6025    0.2170    0.5977 H   0  0  0  0  0  0  0  0  0  0  0  0
    0.4593    0.7129   -1.4823 C   0  0  0  0  0  0  0  0  0  0  0  0
   -0.2309    1.2229   -2.1631 H   0  0  0  0  0  0  0  0  0  0  0  0
    1.4178    1.2405   -1.5314 H   0  0  0  0  0  0  0  0  0  0  0  0
    0.6550   -0.7156   -1.9219 C   0  0  0  0  0  0  0  0  0  0  0  0
    1.6482   -1.5905   -1.5421 N   0  0  0  0  0  0  0  0  0  0  0  0
    2.3868   -1.4101   -0.8653 H   0  0  0  0  0  0  0  0  0  0  0  0
    1.4434   -2.7904   -2.1973 C   0  0  0  0  0  0  0  0  0  0  0  0
    2.0606   -3.6772   -2.0837 H   0  0  0  0  0  0  0  0  0  0  0  0
    0.3928   -2.7058   -2.9787 N   0  0  0  0  0  0  0  0  0  0  0  0
   -0.0991   -1.4148   -2.8263 C   0  0  0  0  0  0  0  0  0  0  0  0
   -0.9664   -1.0191   -3.3464 H   0  0  0  0  0  0  0  0  0  0  0  0
   -0.1673    2.2041    0.4916 C   0  0  0  0  0  0  0  0  0  0  0  0
   -0.1120    3.1733   -0.2558 O   0  0  0  0  0  0  0  0  0  0  0  0
   -0.3118    2.4003    1.8518 N   0  0  0  0  0  0  0  0  0  0  0  0
   -0.4335    1.5681    2.4258 H   0  0  0  0  0  0  0  0  0  0  0  0
   -0.4566    3.7140    2.4661 C   0  0  0  0  0  0  0  0  0  0  0  0
   -1.3622    4.2097    2.1012 H   0  0  0  0  0  0  0  0  0  0  0  0
   -0.5287    3.6167    3.5536 H   0  0  0  0  0  0  0  0  0  0  0  0
    0.4085    4.3440    2.2334 H   0  0  0  0  0  0  0  0  0  0  0  0
  1  2  1  0  0  0  0
  2  3  1  0  0  0  0
  2  4  1  0  0  0  0
  2  5  1  0  0  0  0
  5  6  2  0  0  0  0
  5  7  1  0  0  0  0
  7  8  1  0  0  0  0
  7  9  1  0  0  0  0
  9 10  1  0  0  0  0
  9 11  1  0  0  0  0
  9 22  1  0  0  0  0
 11 12  1  0  0  0  0
 11 13  1  0  0  0  0
 11 14  1  0  0  0  0
 14 15  1  0  0  0  0
 14 20  2  0  0  0  0
 15 16  1  0  0  0  0
 15 17  1  0  0  0  0
 17 18  1  0  0  0  0
 17 19  2  0  0  0  0
 19 20  1  0  0  0  0
 20 21  1  0  0  0  0
 22 23  2  0  0  0  0
 22 24  1  0  0  0  0
 24 25  1  0  0  0  0
 24 26  1  0  0  0  0
 26 27  1  0  0  0  0
 26 28  1  0  0  0  0
 26 29  1  0  0  0  0
M  END
$$$$

  -OEChem-01062216083D

 29 29  0     1  0  0  0  0  0999 V2000
   -3.1197   -2.6034    1.0883 H   0  0  0  0  0  0  0  0  0  0  0  0
   -3.0508   -1.7143    0.4552 C   0  0  0  0  0  0  0  0  0  0  0  0
   -3.8773   -1.0427    0.6991 H   0  0  0  0  0  0  0  0  0  0  0  0
   -3.1339   -2.0211   -0.5903 H   0  0  0  0  0  0  0  0  0  0  0  0
   -1.7257   -1.0127    0.6831 C   0  0  0  0  0  0  0  0  0  0  0  0
   -0.9450   -1.4368    1.5216 O   0  0  0  0  0  0  0  0  0  0  0  0
   -1.4187    0.1254   -0.0343 N   0  0  0  0  0  0  0  0  0  0  0  0
   -2.0964    0.4360   -0.7250 H   0  0  0  0  0  0  0  0  0  0  0  0
   -0.0834    0.7455   -0.0487 C   0  0  1  0  0  0  0  0  0  0  0  0
    0.6134    0.1977    0.5940 H   0  0  0  0  0  0  0  0  0  0  0  0
    0.4750    0.7067   -1.4820 C   0  0  0  0  0  0  0  0  0  0  0  0
   -0.2157    1.2176   -2.1617 H   0  0  0  0  0  0  0  0  0  0  0  0
    1.4309    1.2392   -1.5256 H   0  0  0  0  0  0  0  0  0  0  0  0
    0.6754   -0.7179   -1.9318 C   0  0  0  0  0  0  0  0  0  0  0  0
    1.6692   -1.5938   -1.5555 N   0  0  0  0  0  0  0  0  0  0  0  0
    2.3997   -1.4211   -0.8681 H   0  0  0  0  0  0  0  0  0  0  0  0
    1.4702   -2.7882   -2.2224 C   0  0  0  0  0  0  0  0  0  0  0  0
    2.0885   -3.6746   -2.1128 H   0  0  0  0  0  0  0  0  0  0  0  0
    0.4240   -2.6990   -3.0090 N   0  0  0  0  0  0  0  0  0  0  0  0
   -0.0733   -1.4114   -2.8452 C   0  0  0  0  0  0  0  0  0  0  0  0
   -0.9401   -1.0139   -3.3645 H   0  0  0  0  0  0  0  0  0  0  0  0
   -0.1565    2.1881    0.4847 C   0  0  0  0  0  0  0  0  0  0  0  0
   -0.3707    3.1316   -0.2667 O   0  0  0  0  0  0  0  0  0  0  0  0
    0.0103    2.4167    1.8375 N   0  0  0  0  0  0  0  0  0  0  0  0
    0.0669    1.5973    2.4386 H   0  0  0  0  0  0  0  0  0  0  0  0
   -0.1254    3.7326    2.4495 C   0  0  0  0  0  0  0  0  0  0  0  0
   -1.1424    4.1151    2.3137 H   0  0  0  0  0  0  0  0  0  0  0  0
    0.0832    3.6739    3.5221 H   0  0  0  0  0  0  0  0  0  0  0  0
    0.5799    4.4394    1.9997 H   0  0  0  0  0  0  0  0  0  0  0  0
  1  2  1  0  0  0  0
  2  3  1  0  0  0  0
  2  4  1  0  0  0  0
  2  5  1  0  0  0  0
  5  6  2  0  0  0  0
  5  7  1  0  0  0  0
  7  8  1  0  0  0  0
  7  9  1  0  0  0  0
  9 10  1  0  0  0  0
  9 11  1  0  0  0  0
  9 22  1  0  0  0  0
 11 12  1  0  0  0  0
 11 13  1  0  0  0  0
 11 14  1  0  0  0  0
 14 15  1  0  0  0  0
 14 20  2  0  0  0  0
 15 16  1  0  0  0  0
 15 17  1  0  0  0  0
 17 18  1  0  0  0  0
 17 19  2  0  0  0  0
 19 20  1  0  0  0  0
 20 21  1  0  0  0  0
 22 23  2  0  0  0  0
 22 24  1  0  0  0  0
 24 25  1  0  0  0  0
 24 26  1  0  0  0  0
 26 27  1  0  0  0  0
 26 28  1  0  0  0  0
 26 29  1  0  0  0  0
M  END
$$$$

  -OEChem-01062216083D

 29 29  0     1  0  0  0  0  0999 V2000
   -3.1717   -2.5664    1.1316 H   0  0  0  0  0  0  0  0  0  0  0  0
   -3.0931   -1.6726    0.5061 C   0  0  0  0  0  0  0  0  0  0  0  0
   -3.8727   -0.9660    0.8005 H   0  0  0  0  0  0  0  0  0  0  0  0
   -3.2447   -1.9605   -0.5371 H   0  0  0  0  0  0  0  0  0  0  0  0
   -1.7265   -1.0361    0.6733 C   0  0  0  0  0  0  0  0  0  0  0  0
   -0.9224   -1.5140    1.4592 O   0  0  0  0  0  0  0  0  0  0  0  0
   -1.4064    0.0991   -0.0435 N   0  0  0  0  0  0  0  0  0  0  0  0
   -2.1177    0.4827   -0.6603 H   0  0  0  0  0  0  0  0  0  0  0  0
   -0.0730    0.7223   -0.0489 C   0  0  1  0  0  0  0  0  0  0  0  0
    0.6192    0.1740    0.5976 H   0  0  0  0  0  0  0  0  0  0  0  0
    0.4929    0.6955   -1.4788 C   0  0  0  0  0  0  0  0  0  0  0  0
   -0.1964    1.2092   -2.1577 H   0  0  0  0  0  0  0  0  0  0  0  0
    1.4469    1.2316   -1.5131 H   0  0  0  0  0  0  0  0  0  0  0  0
    0.7014   -0.7236   -1.9423 C   0  0  0  0  0  0  0  0  0  0  0  0
    1.6954   -1.6022   -1.5721 N   0  0  0  0  0  0  0  0  0  0  0  0
    2.4224   -1.4369   -0.8794 H   0  0  0  0  0  0  0  0  0  0  0  0
    1.5018   -2.7887   -2.2550 C   0  0  0  0  0  0  0  0  0  0  0  0
    2.1211   -3.6754   -2.1533 H   0  0  0  0  0  0  0  0  0  0  0  0
    0.4603   -2.6916   -3.0466 N   0  0  0  0  0  0  0  0  0  0  0  0
   -0.0418   -1.4076   -2.8675 C   0  0  0  0  0  0  0  0  0  0  0  0
   -0.9065   -1.0052   -3.3865 H   0  0  0  0  0  0  0  0  0  0  0  0
   -0.1506    2.1680    0.4754 C   0  0  0  0  0  0  0  0  0  0  0  0
   -0.6183    3.0583   -0.2244 O   0  0  0  0  0  0  0  0  0  0  0  0
    0.3025    2.4669    1.7470 N   0  0  0  0  0  0  0  0  0  0  0  0
    0.5605    1.6828    2.3412 H   0  0  0  0  0  0  0  0  0  0  0  0
    0.1843    3.7915    2.3448 C   0  0  0  0  0  0  0  0  0  0  0  0
   -0.8691    4.0734    2.4458 H   0  0  0  0  0  0  0  0  0  0  0  0
    0.6428    3.8005    3.3384 H   0  0  0  0  0  0  0  0  0  0  0  0
    0.6916    4.5392    1.7258 H   0  0  0  0  0  0  0  0  0  0  0  0
  1  2  1  0  0  0  0
  2  3  1  0  0  0  0
  2  4  1  0  0  0  0
  2  5  1  0  0  0  0
  5  6  2  0  0  0  0
  5  7  1  0  0  0  0
  7  8  1  0  0  0  0
  7  9  1  0  0  0  0
  9 10  1  0  0  0  0
  9 11  1  0  0  0  0
  9 22  1  0  0  0  0
 11 12  1  0  0  0  0
 11 13  1  0  0  0  0
 11 14  1  0  0  0  0
 14 15  1  0  0  0  0
 14 20  2  0  0  0  0
 15 16  1  0  0  0  0
 15 17  1  0  0  0  0
 17 18  1  0  0  0  0
 17 19  2  0  0  0  0
 19 20  1  0  0  0  0
 20 21  1  0  0  0  0
 22 23  2  0  0  0  0
 22 24  1  0  0  0  0
 24 25  1  0  0  0  0
 24 26  1  0  0  0  0
 26 27  1  0  0  0  0
 26 28  1  0  0  0  0
 26 29  1  0  0  0  0
M  END
$$$$

  -OEChem-01062216083D

 29 29  0     1  0  0  0  0  0999 V2000
   -3.2014   -2.5518    1.1433 H   0  0  0  0  0  0  0  0  0  0  0  0
   -3.1279   -1.6342    0.5530 C   0  0  0  0  0  0  0  0  0  0  0  0
   -3.8600   -0.9142    0.9261 H   0  0  0  0  0  0  0  0  0  0  0  0
   -3.3544   -1.8685   -0.4900 H   0  0  0  0  0  0  0  0  0  0  0  0
   -1.7301   -1.0555    0.6594 C   0  0  0  0  0  0  0  0  0  0  0  0
   -0.9068   -1.5798    1.3943 O   0  0  0  0  0  0  0  0  0  0  0  0
   -1.4024    0.0765   -0.0585 N   0  0  0  0  0  0  0  0  0  0  0  0
   -2.1421    0.5293   -0.5897 H   0  0  0  0  0  0  0  0  0  0  0  0
   -0.0714    0.7039   -0.0566 C   0  0  1  0  0  0  0  0  0  0  0  0
    0.6161    0.1569    0.5959 H   0  0  0  0  0  0  0  0  0  0  0  0
    0.5042    0.6879   -1.4817 C   0  0  0  0  0  0  0  0  0  0  0  0
   -0.1845    1.2027   -2.1608 H   0  0  0  0  0  0  0  0  0  0  0  0
    1.4558    1.2283   -1.5076 H   0  0  0  0  0  0  0  0  0  0  0  0
    0.7216   -0.7275   -1.9518 C   0  0  0  0  0  0  0  0  0  0  0  0
    1.7169   -1.6037   -1.5790 N   0  0  0  0  0  0  0  0  0  0  0  0
    2.4295   -1.4444   -0.8704 H   0  0  0  0  0  0  0  0  0  0  0  0
    1.5349   -2.7863   -2.2714 C   0  0  0  0  0  0  0  0  0  0  0  0
    2.1565   -3.6711   -2.1689 H   0  0  0  0  0  0  0  0  0  0  0  0
    0.5014   -2.6883   -3.0730 N   0  0  0  0  0  0  0  0  0  0  0  0
   -0.0105   -1.4090   -2.8877 C   0  0  0  0  0  0  0  0  0  0  0  0
   -0.8733   -1.0082   -3.4111 H   0  0  0  0  0  0  0  0  0  0  0  0
   -0.1543    2.1518    0.4583 C   0  0  0  0  0  0  0  0  0  0  0  0
   -0.8483    2.9720   -0.1308 O   0  0  0  0  0  0  0  0  0  0  0  0
    0.5529    2.5360    1.5826 N   0  0  0  0  0  0  0  0  0  0  0  0
    1.0207    1.8038    2.1105 H   0  0  0  0  0  0  0  0  0  0  0  0
    0.4629    3.8706    2.1624 C   0  0  0  0  0  0  0  0  0  0  0  0
   -0.5632    4.0820    2.4811 H   0  0  0  0  0  0  0  0  0  0  0  0
    1.1197    3.9492    3.0341 H   0  0  0  0  0  0  0  0  0  0  0  0
    0.7681    4.6274    1.4320 H   0  0  0  0  0  0  0  0  0  0  0  0
  1  2  1  0  0  0  0
  2  3  1  0  0  0  0
  2  4  1  0  0  0  0
  2  5  1  0  0  0  0
  5  6  2  0  0  0  0
  5  7  1  0  0  0  0
  7  8  1  0  0  0  0
  7  9  1  0  0  0  0
  9 10  1  0  0  0  0
  9 11  1  0  0  0  0
  9 22  1  0  0  0  0
 11 12  1  0  0  0  0
 11 13  1  0  0  0  0
 11 14  1  0  0  0  0
 14 15  1  0  0  0  0
 14 20  2  0  0  0  0
 15 16  1  0  0  0  0
 15 17  1  0  0  0  0
 17 18  1  0  0  0  0
 17 19  2  0  0  0  0
 19 20  1  0  0  0  0
 20 21  1  0  0  0  0
 22 23  2  0  0  0  0
 22 24  1  0  0  0  0
 24 25  1  0  0  0  0
 24 26  1  0  0  0  0
 26 27  1  0  0  0  0
 26 28  1  0  0  0  0
 26 29  1  0  0  0  0
M  END
$$$$

  -OEChem-01062216083D

 29 29  0     1  0  0  0  0  0999 V2000
   -3.2268   -2.5226    1.1784 H   0  0  0  0  0  0  0  0  0  0  0  0
   -3.1461   -1.6110    0.5799 C   0  0  0  0  0  0  0  0  0  0  0  0
   -3.8492   -0.8700    0.9674 H   0  0  0  0  0  0  0  0  0  0  0  0
   -3.4064   -1.8461   -0.4550 H   0  0  0  0  0  0  0  0  0  0  0  0
   -1.7317   -1.0679    0.6445 C   0  0  0  0  0  0  0  0  0  0  0  0
   -0.8960   -1.6248    1.3406 O   0  0  0  0  0  0  0  0  0  0  0  0
   -1.4010    0.0620   -0.0751 N   0  0  0  0  0  0  0  0  0  0  0  0
   -2.1586    0.5669   -0.5296 H   0  0  0  0  0  0  0  0  0  0  0  0
   -0.0719    0.6933   -0.0620 C   0  0  1  0  0  0  0  0  0  0  0  0
    0.6098    0.1491    0.5988 H   0  0  0  0  0  0  0  0  0  0  0  0
    0.5113    0.6823   -1.4829 C   0  0  0  0  0  0  0  0  0  0  0  0
   -0.1756    1.1977   -2.1636 H   0  0  0  0  0  0  0  0  0  0  0  0
    1.4624    1.2241   -1.5028 H   0  0  0  0  0  0  0  0  0  0  0  0
    0.7351   -0.7310   -1.9562 C   0  0  0  0  0  0  0  0  0  0  0  0
    1.7294   -1.6078   -1.5826 N   0  0  0  0  0  0  0  0  0  0  0  0
    2.4353   -1.4527   -0.8668 H   0  0  0  0  0  0  0  0  0  0  0  0
    1.5519   -2.7877   -2.2808 C   0  0  0  0  0  0  0  0  0  0  0  0
    2.1736   -3.6726   -2.1788 H   0  0  0  0  0  0  0  0  0  0  0  0
    0.5232   -2.6872   -3.0882 N   0  0  0  0  0  0  0  0  0  0  0  0
    0.0081   -1.4099   -2.8983 C   0  0  0  0  0  0  0  0  0  0  0  0
   -0.8532   -1.0079   -3.4234 H   0  0  0  0  0  0  0  0  0  0  0  0
   -0.1605    2.1440    0.4451 C   0  0  0  0  0  0  0  0  0  0  0  0
   -1.0296    2.8895    0.0080 O   0  0  0  0  0  0  0  0  0  0  0  0
    0.7503    2.6246    1.3683 N   0  0  0  0  0  0  0  0  0  0  0  0
    1.3942    1.9561    1.7823 H   0  0  0  0  0  0  0  0  0  0  0  0
    0.6886    3.9732    1.9195 C   0  0  0  0  0  0  0  0  0  0  0  0
   -0.2477    4.1209    2.4679 H   0  0  0  0  0  0  0  0  0  0  0  0
    1.5231    4.1395    2.6073 H   0  0  0  0  0  0  0  0  0  0  0  0
    0.7488    4.7178    1.1187 H   0  0  0  0  0  0  0  0  0  0  0  0
  1  2  1  0  0  0  0
  2  3  1  0  0  0  0
  2  4  1  0  0  0  0
  2  5  1  0  0  0  0
  5  6  2  0  0  0  0
  5  7  1  0  0  0  0
  7  8  1  0  0  0  0
  7  9  1  0  0  0  0
  9 10  1  0  0  0  0
  9 11  1  0  0  0  0
  9 22  1  0  0  0  0
 11 12  1  0  0  0  0
 11 13  1  0  0  0  0
 11 14  1  0  0  0  0
 14 15  1  0  0  0  0
 14 20  2  0  0  0  0
 15 16  1  0  0  0  0
 15 17  1  0  0  0  0
 17 18  1  0  0  0  0
 17 19  2  0  0  0  0
 19 20  1  0  0  0  0
 20 21  1  0  0  0  0
 22 23  2  0  0  0  0
 22 24  1  0  0  0  0
 24 25  1  0  0  0  0
 24 26  1  0  0  0  0
 26 27  1  0  0  0  0
 26 28  1  0  0  0  0
 26 29  1  0  0  0  0
M  END
$$$$

  -OEChem-01062216083D

 29 29  0     1  0  0  0  0  0999 V2000
   -3.2574   -2.4766    1.2416 H   0  0  0  0  0  0  0  0  0  0  0  0
   -3.1704   -1.5787    0.6236 C   0  0  0  0  0  0  0  0  0  0  0  0
   -3.8311   -0.8074    1.0267 H   0  0  0  0  0  0  0  0  0  0  0  0
   -3.4816   -1.8210   -0.3954 H   0  0  0  0  0  0  0  0  0  0  0  0
   -1.7367   -1.0838    0.6200 C   0  0  0  0  0  0  0  0  0  0  0  0
   -0.8869   -1.6759    1.2686 O   0  0  0  0  0  0  0  0  0  0  0  0
   -1.4071    0.0458   -0.1010 N   0  0  0  0  0  0  0  0  0  0  0  0
   -2.1780    0.5959   -0.4738 H   0  0  0  0  0  0  0  0  0  0  0  0
   -0.0802    0.6829   -0.0723 C   0  0  1  0  0  0  0  0  0  0  0  0
    0.5957    0.1443    0.5988 H   0  0  0  0  0  0  0  0  0  0  0  0
    0.5172    0.6770   -1.4872 C   0  0  0  0  0  0  0  0  0  0  0  0
   -0.1660    1.1914   -2.1720 H   0  0  0  0  0  0  0  0  0  0  0  0
    1.4659    1.2226   -1.4974 H   0  0  0  0  0  0  0  0  0  0  0  0
    0.7529   -0.7330   -1.9641 C   0  0  0  0  0  0  0  0  0  0  0  0
    1.7478   -1.6068   -1.5843 N   0  0  0  0  0  0  0  0  0  0  0  0
    2.4392   -1.4561   -0.8536 H   0  0  0  0  0  0  0  0  0  0  0  0
    1.5833   -2.7841   -2.2904 C   0  0  0  0  0  0  0  0  0  0  0  0
    2.2072   -3.6669   -2.1846 H   0  0  0  0  0  0  0  0  0  0  0  0
    0.5644   -2.6837   -3.1100 N   0  0  0  0  0  0  0  0  0  0  0  0
    0.0395   -1.4107   -2.9174 C   0  0  0  0  0  0  0  0  0  0  0  0
   -0.8187   -1.0105   -3.4490 H   0  0  0  0  0  0  0  0  0  0  0  0
   -0.1774    2.1360    0.4292 C   0  0  0  0  0  0  0  0  0  0  0  0
   -1.1744    2.8042    0.1789 O   0  0  0  0  0  0  0  0  0  0  0  0
    0.8774    2.7157    1.1109 N   0  0  0  0  0  0  0  0  0  0  0  0
    1.6579    2.1172    1.3661 H   0  0  0  0  0  0  0  0  0  0  0  0
    0.8400    4.0791    1.6264 C   0  0  0  0  0  0  0  0  0  0  0  0
    0.0450    4.1847    2.3720 H   0  0  0  0  0  0  0  0  0  0  0  0
    1.7944    4.3314    2.0986 H   0  0  0  0  0  0  0  0  0  0  0  0
    0.6588    4.7917    0.8148 H   0  0  0  0  0  0  0  0  0  0  0  0
  1  2  1  0  0  0  0
  2  3  1  0  0  0  0
  2  4  1  0  0  0  0
  2  5  1  0  0  0  0
  5  6  2  0  0  0  0
  5  7  1  0  0  0  0
  7  8  1  0  0  0  0
  7  9  1  0  0  0  0
  9 10  1  0  0  0  0
  9 11  1  0  0  0  0
  9 22  1  0  0  0  0
 11 12  1  0  0  0  0
 11 13  1  0  0  0  0
 11 14  1  0  0  0  0
 14 15  1  0  0  0  0
 14 20  2  0  0  0  0
 15 16  1  0  0  0  0
 15 17  1  0  0  0  0
 17 18  1  0  0  0  0
 17 19  2  0  0  0  0
 19 20  1  0  0  0  0
 20 21  1  0  0  0  0
 22 23  2  0  0  0  0
 22 24  1  0  0  0  0
 24 25  1  0  0  0  0
 24 26  1  0  0  0  0
 26 27  1  0  0  0  0
 26 28  1  0  0  0  0
 26 29  1  0  0  0  0
M  END
$$$$

  -OEChem-01062216083D

 29 29  0     1  0  0  0  0  0999 V2000
   -3.2610   -2.4573    1.2661 H   0  0  0  0  0  0  0  0  0  0  0  0
   -3.1776   -1.5610    0.6452 C   0  0  0  0  0  0  0  0  0  0  0  0
   -3.8105   -0.7780    1.0698 H   0  0  0  0  0  0  0  0  0  0  0  0
   -3.5271   -1.7975   -0.3626 H   0  0  0  0  0  0  0  0  0  0  0  0
   -1.7361   -1.0920    0.5943 C   0  0  0  0  0  0  0  0  0  0  0  0
   -0.8749   -1.7082    1.2044 O   0  0  0  0  0  0  0  0  0  0  0  0
   -1.4138    0.0404   -0.1259 N   0  0  0  0  0  0  0  0  0  0  0  0
   -2.1941    0.6208   -0.4271 H   0  0  0  0  0  0  0  0  0  0  0  0
   -0.0890    0.6829   -0.0844 C   0  0  1  0  0  0  0  0  0  0  0  0
    0.5835    0.1490    0.5944 H   0  0  0  0  0  0  0  0  0  0  0  0
    0.5169    0.6732   -1.4965 C   0  0  0  0  0  0  0  0  0  0  0  0
   -0.1646    1.1828   -2.1864 H   0  0  0  0  0  0  0  0  0  0  0  0
    1.4650    1.2199   -1.5061 H   0  0  0  0  0  0  0  0  0  0  0  0
    0.7594   -0.7372   -1.9676 C   0  0  0  0  0  0  0  0  0  0  0  0
    1.7544   -1.6069   -1.5795 N   0  0  0  0  0  0  0  0  0  0  0  0
    2.4347   -1.4564   -0.8384 H   0  0  0  0  0  0  0  0  0  0  0  0
    1.5987   -2.7857   -2.2848 C   0  0  0  0  0  0  0  0  0  0  0  0
    2.2243   -3.6665   -2.1718 H   0  0  0  0  0  0  0  0  0  0  0  0
    0.5868   -2.6893   -3.1136 N   0  0  0  0  0  0  0  0  0  0  0  0
    0.0557   -1.4183   -2.9255 C   0  0  0  0  0  0  0  0  0  0  0  0
   -0.7991   -1.0211   -3.4644 H   0  0  0  0  0  0  0  0  0  0  0  0
   -0.1911    2.1374    0.4182 C   0  0  0  0  0  0  0  0  0  0  0  0
   -1.2665    2.7259    0.3880 O   0  0  0  0  0  0  0  0  0  0  0  0
    0.9408    2.8198    0.8279 N   0  0  0  0  0  0  0  0  0  0  0  0
    1.8081    2.2954    0.8967 H   0  0  0  0  0  0  0  0  0  0  0  0
    0.9121    4.1961    1.3095 C   0  0  0  0  0  0  0  0  0  0  0  0
    0.3013    4.2725    2.2151 H   0  0  0  0  0  0  0  0  0  0  0  0
    1.9251    4.5361    1.5451 H   0  0  0  0  0  0  0  0  0  0  0  0
    0.4949    4.8612    0.5460 H   0  0  0  0  0  0  0  0  0  0  0  0
  1  2  1  0  0  0  0
  2  3  1  0  0  0  0
  2  4  1  0  0  0  0
  2  5  1  0  0  0  0
  5  6  2  0  0  0  0
  5  7  1  0  0  0  0
  7  8  1  0  0  0  0
  7  9  1  0  0  0  0
  9 10  1  0  0  0  0
  9 11  1  0  0  0  0
  9 22  1  0  0  0  0
 11 12  1  0  0  0  0
 11 13  1  0  0  0  0
 11 14  1  0  0  0  0
 14 15  1  0  0  0  0
 14 20  2  0  0  0  0
 15 16  1  0  0  0  0
 15 17  1  0  0  0  0
 17 18  1  0  0  0  0
 17 19  2  0  0  0  0
 19 20  1  0  0  0  0
 20 21  1  0  0  0  0
 22 23  2  0  0  0  0
 22 24  1  0  0  0  0
 24 25  1  0  0  0  0
 24 26  1  0  0  0  0
 26 27  1  0  0  0  0
 26 28  1  0  0  0  0
 26 29  1  0  0  0  0
M  END
$$$$

  -OEChem-01062216083D

 29 29  0     1  0  0  0  0  0999 V2000
   -3.2366   -2.4251    1.3280 H   0  0  0  0  0  0  0  0  0  0  0  0
   -3.1713   -1.5287    0.7053 C   0  0  0  0  0  0  0  0  0  0  0  0
   -3.7427   -0.7274    1.1800 H   0  0  0  0  0  0  0  0  0  0  0  0
   -3.6042   -1.7469   -0.2737 H   0  0  0  0  0  0  0  0  0  0  0  0
   -1.7233   -1.1063    0.5469 C   0  0  0  0  0  0  0  0  0  0  0  0
   -0.8372   -1.7702    1.0641 O   0  0  0  0  0  0  0  0  0  0  0  0
   -1.4237    0.0342   -0.1705 N   0  0  0  0  0  0  0  0  0  0  0  0
   -2.2160    0.6426   -0.3615 H   0  0  0  0  0  0  0  0  0  0  0  0
   -0.0995    0.6803   -0.1197 C   0  0  1  0  0  0  0  0  0  0  0  0
    0.6444    0.0152    0.3298 H   0  0  0  0  0  0  0  0  0  0  0  0
    0.3414    1.0017   -1.5575 C   0  0  0  0  0  0  0  0  0  0  0  0
   -0.4122    1.6378   -2.0343 H   0  0  0  0  0  0  0  0  0  0  0  0
    1.2848    1.5558   -1.5544 H   0  0  0  0  0  0  0  0  0  0  0  0
    0.5245   -0.2613   -2.3587 C   0  0  0  0  0  0  0  0  0  0  0  0
    1.5558   -1.1720   -2.2895 N   0  0  0  0  0  0  0  0  0  0  0  0
    2.3229   -1.1693   -1.6213 H   0  0  0  0  0  0  0  0  0  0  0  0
    1.3227   -2.1627   -3.2252 C   0  0  0  0  0  0  0  0  0  0  0  0
    1.9584   -3.0281   -3.3889 H   0  0  0  0  0  0  0  0  0  0  0  0
    0.2223   -1.9079   -3.8914 N   0  0  0  0  0  0  0  0  0  0  0  0
   -0.2844   -0.7264   -3.3619 C   0  0  0  0  0  0  0  0  0  0  0  0
   -1.1941   -0.2389   -3.6997 H   0  0  0  0  0  0  0  0  0  0  0  0
   -0.1333    1.9718    0.7283 C   0  0  0  0  0  0  0  0  0  0  0  0
   -1.1979    2.4048    1.1558 O   0  0  0  0  0  0  0  0  0  0  0  0
    1.0116    2.7298    0.9048 N   0  0  0  0  0  0  0  0  0  0  0  0
    1.8916    2.3334    0.5886 H   0  0  0  0  0  0  0  0  0  0  0  0
    1.0369    3.9708    1.6706 C   0  0  0  0  0  0  0  0  0  0  0  0
    0.7581    3.7833    2.7128 H   0  0  0  0  0  0  0  0  0  0  0  0
    2.0406    4.4061    1.6533 H   0  0  0  0  0  0  0  0  0  0  0  0
    0.3388    4.6992    1.2447 H   0  0  0  0  0  0  0  0  0  0  0  0
  1  2  1  0  0  0  0
  2  3  1  0  0  0  0
  2  4  1  0  0  0  0
  2  5  1  0  0  0  0
  5  6  2  0  0  0  0
  5  7  1  0  0  0  0
  7  8  1  0  0  0  0
  7  9  1  0  0  0  0
  9 10  1  0  0  0  0
  9 11  1  0  0  0  0
  9 22  1  0  0  0  0
 11 12  1  0  0  0  0
 11 13  1  0  0  0  0
 11 14  1  0  0  0  0
 14 15  1  0  0  0  0
 14 20  2  0  0  0  0
 15 16  1  0  0  0  0
 15 17  1  0  0  0  0
 17 18  1  0  0  0  0
 17 19  2  0  0  0  0
 19 20  1  0  0  0  0
 20 21  1  0  0  0  0
 22 23  2  0  0  0  0
 22 24  1  0  0  0  0
 24 25  1  0  0  0  0
 24 26  1  0  0  0  0
 26 27  1  0  0  0  0
 26 28  1  0  0  0  0
 26 29  1  0  0  0  0
M  END
$$$$

  -OEChem-01062216083D

 29 29  0     1  0  0  0  0  0999 V2000
   -3.2179   -2.4170    1.3262 H   0  0  0  0  0  0  0  0  0  0  0  0
   -3.1618   -1.5171    0.7075 C   0  0  0  0  0  0  0  0  0  0  0  0
   -3.7211   -0.7171    1.1986 H   0  0  0  0  0  0  0  0  0  0  0  0
   -3.6146   -1.7282   -0.2642 H   0  0  0  0  0  0  0  0  0  0  0  0
   -1.7157   -1.0988    0.5238 C   0  0  0  0  0  0  0  0  0  0  0  0
   -0.8226   -1.7777    1.0084 O   0  0  0  0  0  0  0  0  0  0  0  0
   -1.4258    0.0477   -0.1890 N   0  0  0  0  0  0  0  0  0  0  0  0
   -2.2220    0.6564   -0.3592 H   0  0  0  0  0  0  0  0  0  0  0  0
   -0.1018    0.6953   -0.1366 C   0  0  1  0  0  0  0  0  0  0  0  0
    0.6432    0.0325    0.3151 H   0  0  0  0  0  0  0  0  0  0  0  0
    0.3373    1.0008   -1.5803 C   0  0  0  0  0  0  0  0  0  0  0  0
   -0.4166    1.6317   -2.0633 H   0  0  0  0  0  0  0  0  0  0  0  0
    1.2827    1.5503   -1.5888 H   0  0  0  0  0  0  0  0  0  0  0  0
    0.5200   -0.2722   -2.3659 C   0  0  0  0  0  0  0  0  0  0  0  0
    1.5531   -1.1801   -2.2850 N   0  0  0  0  0  0  0  0  0  0  0  0
    2.3171   -1.1701   -1.6131 H   0  0  0  0  0  0  0  0  0  0  0  0
    1.3208   -2.1847   -3.2060 C   0  0  0  0  0  0  0  0  0  0  0  0
    1.9573   -3.0520   -3.3569 H   0  0  0  0  0  0  0  0  0  0  0  0
    0.2201   -1.9405   -3.8758 N   0  0  0  0  0  0  0  0  0  0  0  0
   -0.2888   -0.7533   -3.3617 C   0  0  0  0  0  0  0  0  0  0  0  0
   -1.2003   -0.2735   -3.7052 H   0  0  0  0  0  0  0  0  0  0  0  0
   -0.1369    1.9828    0.7224 C   0  0  0  0  0  0  0  0  0  0  0  0
   -1.1384    2.2681    1.3693 O   0  0  0  0  0  0  0  0  0  0  0  0
    0.8926    2.9078    0.6670 N   0  0  0  0  0  0  0  0  0  0  0  0
    1.7335    2.6463    0.1617 H   0  0  0  0  0  0  0  0  0  0  0  0
    0.8936    4.1513    1.4297 C   0  0  0  0  0  0  0  0  0  0  0  0
    0.8651    3.9421    2.5043 H   0  0  0  0  0  0  0  0  0  0  0  0
    1.7984    4.7271    1.2128 H   0  0  0  0  0  0  0  0  0  0  0  0
    0.0245    4.7639    1.1672 H   0  0  0  0  0  0  0  0  0  0  0  0
  1  2  1  0  0  0  0
  2  3  1  0  0  0  0
  2  4  1  0  0  0  0
  2  5  1  0  0  0  0
  5  6  2  0  0  0  0
  5  7  1  0  0  0  0
  7  8  1  0  0  0  0
  7  9  1  0  0  0  0
  9 10  1  0  0  0  0
  9 11  1  0  0  0  0
  9 22  1  0  0  0  0
 11 12  1  0  0  0  0
 11 13  1  0  0  0  0
 11 14  1  0  0  0  0
 14 15  1  0  0  0  0
 14 20  2  0  0  0  0
 15 16  1  0  0  0  0
 15 17  1  0  0  0  0
 17 18  1  0  0  0  0
 17 19  2  0  0  0  0
 19 20  1  0  0  0  0
 20 21  1  0  0  0  0
 22 23  2  0  0  0  0
 22 24  1  0  0  0  0
 24 25  1  0  0  0  0
 24 26  1  0  0  0  0
 26 27  1  0  0  0  0
 26 28  1  0  0  0  0
 26 29  1  0  0  0  0
M  END
$$$$

  -OEChem-01062216083D

 29 29  0     1  0  0  0  0  0999 V2000
   -3.2060   -2.3990    1.3380 H   0  0  0  0  0  0  0  0  0  0  0  0
   -3.1560   -1.4984    0.7197 C   0  0  0  0  0  0  0  0  0  0  0  0
   -3.6983   -0.6950    1.2243 H   0  0  0  0  0  0  0  0  0  0  0  0
   -3.6312   -1.7043   -0.2424 H   0  0  0  0  0  0  0  0  0  0  0  0
   -1.7106   -1.0910    0.5065 C   0  0  0  0  0  0  0  0  0  0  0  0
   -0.8131   -1.7858    0.9592 O   0  0  0  0  0  0  0  0  0  0  0  0
   -1.4283    0.0595   -0.2038 N   0  0  0  0  0  0  0  0  0  0  0  0
   -2.2273    0.6668   -0.3619 H   0  0  0  0  0  0  0  0  0  0  0  0
   -0.1033    0.7064   -0.1573 C   0  0  1  0  0  0  0  0  0  0  0  0
    0.6418    0.0454    0.2970 H   0  0  0  0  0  0  0  0  0  0  0  0
    0.3387    0.9962   -1.6042 C   0  0  0  0  0  0  0  0  0  0  0  0
   -0.4119    1.6239   -2.0962 H   0  0  0  0  0  0  0  0  0  0  0  0
    1.2881    1.5390   -1.6167 H   0  0  0  0  0  0  0  0  0  0  0  0
    0.5208   -0.2854   -2.3755 C   0  0  0  0  0  0  0  0  0  0  0  0
    1.5537   -1.1919   -2.2808 N   0  0  0  0  0  0  0  0  0  0  0  0
    2.3135   -1.1755   -1.6040 H   0  0  0  0  0  0  0  0  0  0  0  0
    1.3243   -2.2076   -3.1902 C   0  0  0  0  0  0  0  0  0  0  0  0
    1.9612   -3.0769   -3.3271 H   0  0  0  0  0  0  0  0  0  0  0  0
    0.2267   -1.9704   -3.8679 N   0  0  0  0  0  0  0  0  0  0  0  0
   -0.2842   -0.7775   -3.3691 C   0  0  0  0  0  0  0  0  0  0  0  0
   -1.1942   -0.3015   -3.7219 H   0  0  0  0  0  0  0  0  0  0  0  0
   -0.1404    1.9897    0.7108 C   0  0  0  0  0  0  0  0  0  0  0  0
   -1.0120    2.1304    1.5604 O   0  0  0  0  0  0  0  0  0  0  0  0
    0.6975    3.0644    0.4590 N   0  0  0  0  0  0  0  0  0  0  0  0
    1.4318    2.9400   -0.2307 H   0  0  0  0  0  0  0  0  0  0  0  0
    0.6648    4.3033    1.2291 C   0  0  0  0  0  0  0  0  0  0  0  0
    0.8902    4.1058    2.2825 H   0  0  0  0  0  0  0  0  0  0  0  0
    1.4068    5.0088    0.8429 H   0  0  0  0  0  0  0  0  0  0  0  0
   -0.3232    4.7712    1.1619 H   0  0  0  0  0  0  0  0  0  0  0  0
  1  2  1  0  0  0  0
  2  3  1  0  0  0  0
  2  4  1  0  0  0  0
  2  5  1  0  0  0  0
  5  6  2  0  0  0  0
  5  7  1  0  0  0  0
  7  8  1  0  0  0  0
  7  9  1  0  0  0  0
  9 10  1  0  0  0  0
  9 11  1  0  0  0  0
  9 22  1  0  0  0  0
 11 12  1  0  0  0  0
 11 13  1  0  0  0  0
 11 14  1  0  0  0  0
 14 15  1  0  0  0  0
 14 20  2  0  0  0  0
 15 16  1  0  0  0  0
 15 17  1  0  0  0  0
 17 18  1  0  0  0  0
 17 19  2  0  0  0  0
 19 20  1  0  0  0  0
 20 21  1  0  0  0  0
 22 23  2  0  0  0  0
 22 24  1  0  0  0  0
 24 25  1  0  0  0  0
 24 26  1  0  0  0  0
 26 27  1  0  0  0  0
 26 28  1  0  0  0  0
 26 29  1  0  0  0  0
M  END
$$$$

  -OEChem-01062216083D

 29 29  0     1  0  0  0  0  0999 V2000
   -3.1988   -2.4144    1.3197 H   0  0  0  0  0  0  0  0  0  0  0  0
   -3.1547   -1.5006    0.7204 C   0  0  0  0  0  0  0  0  0  0  0  0
   -3.6987   -0.7107    1.2440 H   0  0  0  0  0  0  0  0  0  0  0  0
   -3.6323   -1.6884   -0.2442 H   0  0  0  0  0  0  0  0  0  0  0  0
   -1.7116   -1.0830    0.5106 C   0  0  0  0  0  0  0  0  0  0  0  0
   -0.8111   -1.7813    0.9511 O   0  0  0  0  0  0  0  0  0  0  0  0
   -1.4353    0.0694   -0.1998 N   0  0  0  0  0  0  0  0  0  0  0  0
   -2.2377    0.6669   -0.3733 H   0  0  0  0  0  0  0  0  0  0  0  0
   -0.1099    0.7163   -0.1654 C   0  0  1  0  0  0  0  0  0  0  0  0
    0.6358    0.0571    0.2910 H   0  0  0  0  0  0  0  0  0  0  0  0
    0.3375    0.9944   -1.6126 C   0  0  0  0  0  0  0  0  0  0  0  0
   -0.4092    1.6200   -2.1132 H   0  0  0  0  0  0  0  0  0  0  0  0
    1.2894    1.5335   -1.6215 H   0  0  0  0  0  0  0  0  0  0  0  0
    0.5212   -0.2926   -2.3735 C   0  0  0  0  0  0  0  0  0  0  0  0
    1.5527   -1.1994   -2.2683 N   0  0  0  0  0  0  0  0  0  0  0  0
    2.3031   -1.1851   -1.5809 H   0  0  0  0  0  0  0  0  0  0  0  0
    1.3296   -2.2173   -3.1768 C   0  0  0  0  0  0  0  0  0  0  0  0
    1.9655   -3.0884   -3.3060 H   0  0  0  0  0  0  0  0  0  0  0  0
    0.2384   -1.9800   -3.8649 N   0  0  0  0  0  0  0  0  0  0  0  0
   -0.2750   -0.7854   -3.3734 C   0  0  0  0  0  0  0  0  0  0  0  0
   -1.1795   -0.3073   -3.7370 H   0  0  0  0  0  0  0  0  0  0  0  0
   -0.1438    1.9967    0.7066 C   0  0  0  0  0  0  0  0  0  0  0  0
   -0.8190    2.0214    1.7275 O   0  0  0  0  0  0  0  0  0  0  0  0
    0.4464    3.1807    0.2932 N   0  0  0  0  0  0  0  0  0  0  0  0
    0.9967    3.1632   -0.5593 H   0  0  0  0  0  0  0  0  0  0  0  0
    0.3855    4.4201    1.0602 C   0  0  0  0  0  0  0  0  0  0  0  0
    0.8471    4.2850    2.0442 H   0  0  0  0  0  0  0  0  0  0  0  0
    0.9200    5.2167    0.5338 H   0  0  0  0  0  0  0  0  0  0  0  0
   -0.6540    4.7355    1.1990 H   0  0  0  0  0  0  0  0  0  0  0  0
  1  2  1  0  0  0  0
  2  3  1  0  0  0  0
  2  4  1  0  0  0  0
  2  5  1  0  0  0  0
  5  6  2  0  0  0  0
  5  7  1  0  0  0  0
  7  8  1  0  0  0  0
  7  9  1  0  0  0  0
  9 10  1  0  0  0  0
  9 11  1  0  0  0  0
  9 22  1  0  0  0  0
 11 12  1  0  0  0  0
 11 13  1  0  0  0  0
 11 14  1  0  0  0  0
 14 15  1  0  0  0  0
 14 20  2  0  0  0  0
 15 16  1  0  0  0  0
 15 17  1  0  0  0  0
 17 18  1  0  0  0  0
 17 19  2  0  0  0  0
 19 20  1  0  0  0  0
 20 21  1  0  0  0  0
 22 23  2  0  0  0  0
 22 24  1  0  0  0  0
 24 25  1  0  0  0  0
 24 26  1  0  0  0  0
 26 27  1  0  0  0  0
 26 28  1  0  0  0  0
 26 29  1  0  0  0  0
M  END
$$$$

  -OEChem-01062216083D

 29 29  0     1  0  0  0  0  0999 V2000
   -3.1970   -2.4156    1.3235 H   0  0  0  0  0  0  0  0  0  0  0  0
   -3.1565   -1.5085    0.7140 C   0  0  0  0  0  0  0  0  0  0  0  0
   -3.7126   -0.7183    1.2242 H   0  0  0  0  0  0  0  0  0  0  0  0
   -3.6242   -1.7120   -0.2522 H   0  0  0  0  0  0  0  0  0  0  0  0
   -1.7154   -1.0800    0.5119 C   0  0  0  0  0  0  0  0  0  0  0  0
   -0.8130   -1.7752    0.9524 O   0  0  0  0  0  0  0  0  0  0  0  0
   -1.4435    0.0743   -0.1981 N   0  0  0  0  0  0  0  0  0  0  0  0
   -2.2495    0.6547   -0.4069 H   0  0  0  0  0  0  0  0  0  0  0  0
   -0.1205    0.7260   -0.1734 C   0  0  1  0  0  0  0  0  0  0  0  0
    0.6267    0.0684    0.2831 H   0  0  0  0  0  0  0  0  0  0  0  0
    0.3314    1.0004   -1.6187 C   0  0  0  0  0  0  0  0  0  0  0  0
   -0.4164    1.6177   -2.1275 H   0  0  0  0  0  0  0  0  0  0  0  0
    1.2803    1.5460   -1.6209 H   0  0  0  0  0  0  0  0  0  0  0  0
    0.5218   -0.2899   -2.3715 C   0  0  0  0  0  0  0  0  0  0  0  0
    1.5559   -1.1924   -2.2564 N   0  0  0  0  0  0  0  0  0  0  0  0
    2.3047   -1.1694   -1.5672 H   0  0  0  0  0  0  0  0  0  0  0  0
    1.3380   -2.2187   -3.1566 C   0  0  0  0  0  0  0  0  0  0  0  0
    1.9766   -3.0890   -3.2767 H   0  0  0  0  0  0  0  0  0  0  0  0
    0.2477   -1.9906   -3.8493 N   0  0  0  0  0  0  0  0  0  0  0  0
   -0.2705   -0.7937   -3.3689 C   0  0  0  0  0  0  0  0  0  0  0  0
   -1.1764   -0.3222   -3.7373 H   0  0  0  0  0  0  0  0  0  0  0  0
   -0.1514    2.0044    0.6984 C   0  0  0  0  0  0  0  0  0  0  0  0
   -0.5746    1.9476    1.8446 O   0  0  0  0  0  0  0  0  0  0  0  0
    0.1485    3.2541    0.1786 N   0  0  0  0  0  0  0  0  0  0  0  0
    0.4815    3.3026   -0.7790 H   0  0  0  0  0  0  0  0  0  0  0  0
    0.0718    4.4858    0.9564 C   0  0  0  0  0  0  0  0  0  0  0  0
    0.7557    4.4417    1.8106 H   0  0  0  0  0  0  0  0  0  0  0  0
    0.3482    5.3438    0.3358 H   0  0  0  0  0  0  0  0  0  0  0  0
   -0.9465    4.6425    1.3279 H   0  0  0  0  0  0  0  0  0  0  0  0
  1  2  1  0  0  0  0
  2  3  1  0  0  0  0
  2  4  1  0  0  0  0
  2  5  1  0  0  0  0
  5  6  2  0  0  0  0
  5  7  1  0  0  0  0
  7  8  1  0  0  0  0
  7  9  1  0  0  0  0
  9 10  1  0  0  0  0
  9 11  1  0  0  0  0
  9 22  1  0  0  0  0
 11 12  1  0  0  0  0
 11 13  1  0  0  0  0
 11 14  1  0  0  0  0
 14 15  1  0  0  0  0
 14 20  2  0  0  0  0
 15 16  1  0  0  0  0
 15 17  1  0  0  0  0
 17 18  1  0  0  0  0
 17 19  2  0  0  0  0
 19 20  1  0  0  0  0
 20 21  1  0  0  0  0
 22 23  2  0  0  0  0
 22 24  1  0  0  0  0
 24 25  1  0  0  0  0
 24 26  1  0  0  0  0
 26 27  1  0  0  0  0
 26 28  1  0  0  0  0
 26 29  1  0  0  0  0
M  END
$$$$

  -OEChem-01062216083D

 29 29  0     1  0  0  0  0  0999 V2000
   -3.2005   -2.4399    1.3066 H   0  0  0  0  0  0  0  0  0  0  0  0
   -3.1621   -1.5326    0.6972 C   0  0  0  0  0  0  0  0  0  0  0  0
   -3.7421   -0.7514    1.1942 H   0  0  0  0  0  0  0  0  0  0  0  0
   -3.6051   -1.7448   -0.2786 H   0  0  0  0  0  0  0  0  0  0  0  0
   -1.7242   -1.0808    0.5264 C   0  0  0  0  0  0  0  0  0  0  0  0
   -0.8216   -1.7596    0.9899 O   0  0  0  0  0  0  0  0  0  0  0  0
   -1.4545    0.0739   -0.1842 N   0  0  0  0  0  0  0  0  0  0  0  0
   -2.2626    0.6318   -0.4401 H   0  0  0  0  0  0  0  0  0  0  0  0
   -0.1346    0.7322   -0.1689 C   0  0  1  0  0  0  0  0  0  0  0  0
    0.6154    0.0766    0.2860 H   0  0  0  0  0  0  0  0  0  0  0  0
    0.3177    1.0082   -1.6132 C   0  0  0  0  0  0  0  0  0  0  0  0
   -0.4329    1.6180   -2.1266 H   0  0  0  0  0  0  0  0  0  0  0  0
    1.2613    1.5638   -1.6107 H   0  0  0  0  0  0  0  0  0  0  0  0
    0.5156   -0.2822   -2.3643 C   0  0  0  0  0  0  0  0  0  0  0  0
    1.5558   -1.1768   -2.2436 N   0  0  0  0  0  0  0  0  0  0  0  0
    2.3006   -1.1473   -1.5502 H   0  0  0  0  0  0  0  0  0  0  0  0
    1.3490   -2.2066   -3.1424 C   0  0  0  0  0  0  0  0  0  0  0  0
    1.9946   -3.0726   -3.2575 H   0  0  0  0  0  0  0  0  0  0  0  0
    0.2593   -1.9877   -3.8395 N   0  0  0  0  0  0  0  0  0  0  0  0
   -0.2688   -0.7932   -3.3644 C   0  0  0  0  0  0  0  0  0  0  0  0
   -1.1761   -0.3288   -3.7386 H   0  0  0  0  0  0  0  0  0  0  0  0
   -0.1607    2.0110    0.6988 C   0  0  0  0  0  0  0  0  0  0  0  0
   -0.2843    1.9230    1.9116 O   0  0  0  0  0  0  0  0  0  0  0  0
   -0.1726    3.2752    0.1300 N   0  0  0  0  0  0  0  0  0  0  0  0
   -0.0828    3.3430   -0.8787 H   0  0  0  0  0  0  0  0  0  0  0  0
   -0.2516    4.5044    0.9115 C   0  0  0  0  0  0  0  0  0  0  0  0
    0.6079    4.5849    1.5853 H   0  0  0  0  0  0  0  0  0  0  0  0
   -0.2546    5.3754    0.2491 H   0  0  0  0  0  0  0  0  0  0  0  0
   -1.1700    4.5213    1.5079 H   0  0  0  0  0  0  0  0  0  0  0  0
  1  2  1  0  0  0  0
  2  3  1  0  0  0  0
  2  4  1  0  0  0  0
  2  5  1  0  0  0  0
  5  6  2  0  0  0  0
  5  7  1  0  0  0  0
  7  8  1  0  0  0  0
  7  9  1  0  0  0  0
  9 10  1  0  0  0  0
  9 11  1  0  0  0  0
  9 22  1  0  0  0  0
 11 12  1  0  0  0  0
 11 13  1  0  0  0  0
 11 14  1  0  0  0  0
 14 15  1  0  0  0  0
 14 20  2  0  0  0  0
 15 16  1  0  0  0  0
 15 17  1  0  0  0  0
 17 18  1  0  0  0  0
 17 19  2  0  0  0  0
 19 20  1  0  0  0  0
 20 21  1  0  0  0  0
 22 23  2  0  0  0  0
 22 24  1  0  0  0  0
 24 25  1  0  0  0  0
 24 26  1  0  0  0  0
 26 27  1  0  0  0  0
 26 28  1  0  0  0  0
 26 29  1  0  0  0  0
M  END
$$$$

  -OEChem-01062216083D

 29 29  0     1  0  0  0  0  0999 V2000
   -3.2086   -2.4926    1.2582 H   0  0  0  0  0  0  0  0  0  0  0  0
   -3.1657   -1.5866    0.6469 C   0  0  0  0  0  0  0  0  0  0  0  0
   -3.8009   -0.8244    1.1042 H   0  0  0  0  0  0  0  0  0  0  0  0
   -3.5431   -1.8183   -0.3519 H   0  0  0  0  0  0  0  0  0  0  0  0
   -1.7364   -1.0857    0.5572 C   0  0  0  0  0  0  0  0  0  0  0  0
   -0.8411   -1.7251    1.0845 O   0  0  0  0  0  0  0  0  0  0  0  0
   -1.4647    0.0678   -0.1542 N   0  0  0  0  0  0  0  0  0  0  0  0
   -2.2689    0.5818   -0.4981 H   0  0  0  0  0  0  0  0  0  0  0  0
   -0.1501    0.7372   -0.1482 C   0  0  1  0  0  0  0  0  0  0  0  0
    0.6054    0.0837    0.3020 H   0  0  0  0  0  0  0  0  0  0  0  0
    0.2950    1.0204   -1.5928 C   0  0  0  0  0  0  0  0  0  0  0  0
   -0.4606    1.6247   -2.1047 H   0  0  0  0  0  0  0  0  0  0  0  0
    1.2325    1.5867   -1.5900 H   0  0  0  0  0  0  0  0  0  0  0  0
    0.5007   -0.2669   -2.3466 C   0  0  0  0  0  0  0  0  0  0  0  0
    1.5493   -1.1518   -2.2295 N   0  0  0  0  0  0  0  0  0  0  0  0
    2.3018   -1.1095   -1.5448 H   0  0  0  0  0  0  0  0  0  0  0  0
    1.3481   -2.1847   -3.1260 C   0  0  0  0  0  0  0  0  0  0  0  0
    2.0023   -3.0439   -3.2444 H   0  0  0  0  0  0  0  0  0  0  0  0
    0.2513   -1.9781   -3.8160 N   0  0  0  0  0  0  0  0  0  0  0  0
   -0.2846   -0.7871   -3.3410 C   0  0  0  0  0  0  0  0  0  0  0  0
   -1.1991   -0.3323   -3.7096 H   0  0  0  0  0  0  0  0  0  0  0  0
   -0.1729    2.0199    0.7113 C   0  0  0  0  0  0  0  0  0  0  0  0
    0.0543    1.9624    1.9104 O   0  0  0  0  0  0  0  0  0  0  0  0
   -0.5013    3.2481    0.1592 N   0  0  0  0  0  0  0  0  0  0  0  0
   -0.6876    3.2859   -0.8376 H   0  0  0  0  0  0  0  0  0  0  0  0
   -0.5493    4.4852    0.9308 C   0  0  0  0  0  0  0  0  0  0  0  0
    0.4318    4.7035    1.3657 H   0  0  0  0  0  0  0  0  0  0  0  0
   -0.8359    5.3227    0.2874 H   0  0  0  0  0  0  0  0  0  0  0  0
   -1.2831    4.4046    1.7397 H   0  0  0  0  0  0  0  0  0  0  0  0
  1  2  1  0  0  0  0
  2  3  1  0  0  0  0
  2  4  1  0  0  0  0
  2  5  1  0  0  0  0
  5  6  2  0  0  0  0
  5  7  1  0  0  0  0
  7  8  1  0  0  0  0
  7  9  1  0  0  0  0
  9 10  1  0  0  0  0
  9 11  1  0  0  0  0
  9 22  1  0  0  0  0
 11 12  1  0  0  0  0
 11 13  1  0  0  0  0
 11 14  1  0  0  0  0
 14 15  1  0  0  0  0
 14 20  2  0  0  0  0
 15 16  1  0  0  0  0
 15 17  1  0  0  0  0
 17 18  1  0  0  0  0
 17 19  2  0  0  0  0
 19 20  1  0  0  0  0
 20 21  1  0  0  0  0
 22 23  2  0  0  0  0
 22 24  1  0  0  0  0
 24 25  1  0  0  0  0
 24 26  1  0  0  0  0
 26 27  1  0  0  0  0
 26 28  1  0  0  0  0
 26 29  1  0  0  0  0
M  END
$$$$

  -OEChem-01062216083D

 29 29  0     1  0  0  0  0  0999 V2000
   -3.1940   -2.5707    1.1732 H   0  0  0  0  0  0  0  0  0  0  0  0
   -3.1503   -1.6588    0.5711 C   0  0  0  0  0  0  0  0  0  0  0  0
   -3.8648   -0.9373    0.9742 H   0  0  0  0  0  0  0  0  0  0  0  0
   -3.4268   -1.9037   -0.4572 H   0  0  0  0  0  0  0  0  0  0  0  0
   -1.7495   -1.0777    0.6073 C   0  0  0  0  0  0  0  0  0  0  0  0
   -0.8801   -1.6415    1.2500 O   0  0  0  0  0  0  0  0  0  0  0  0
   -1.4734    0.0713   -0.1088 N   0  0  0  0  0  0  0  0  0  0  0  0
   -2.2446    0.4870   -0.6195 H   0  0  0  0  0  0  0  0  0  0  0  0
   -0.1600    0.7437   -0.1190 C   0  0  1  0  0  0  0  0  0  0  0  0
    0.5990    0.0873    0.3218 H   0  0  0  0  0  0  0  0  0  0  0  0
    0.2728    1.0350   -1.5646 C   0  0  0  0  0  0  0  0  0  0  0  0
   -0.4840    1.6445   -2.0680 H   0  0  0  0  0  0  0  0  0  0  0  0
    1.2104    1.6011   -1.5642 H   0  0  0  0  0  0  0  0  0  0  0  0
    0.4735   -0.2512   -2.3223 C   0  0  0  0  0  0  0  0  0  0  0  0
    1.5249   -1.1339   -2.2132 N   0  0  0  0  0  0  0  0  0  0  0  0
    2.2894   -1.0830   -1.5421 H   0  0  0  0  0  0  0  0  0  0  0  0
    1.3186   -2.1683   -3.1068 C   0  0  0  0  0  0  0  0  0  0  0  0
    1.9738   -3.0258   -3.2307 H   0  0  0  0  0  0  0  0  0  0  0  0
    0.2143   -1.9657   -3.7861 N   0  0  0  0  0  0  0  0  0  0  0  0
   -0.3178   -0.7732   -3.3109 C   0  0  0  0  0  0  0  0  0  0  0  0
   -1.2350   -0.3197   -3.6742 H   0  0  0  0  0  0  0  0  0  0  0  0
   -0.1684    2.0315    0.7300 C   0  0  0  0  0  0  0  0  0  0  0  0
    0.4220    2.0723    1.7991 O   0  0  0  0  0  0  0  0  0  0  0  0
   -0.7879    3.1816    0.2678 N   0  0  0  0  0  0  0  0  0  0  0  0
   -1.2784    3.1322   -0.6189 H   0  0  0  0  0  0  0  0  0  0  0  0
   -0.8218    4.4288    1.0237 C   0  0  0  0  0  0  0  0  0  0  0  0
    0.1943    4.7867    1.2202 H   0  0  0  0  0  0  0  0  0  0  0  0
   -1.3558    5.1997    0.4601 H   0  0  0  0  0  0  0  0  0  0  0  0
   -1.3338    4.2825    1.9806 H   0  0  0  0  0  0  0  0  0  0  0  0
  1  2  1  0  0  0  0
  2  3  1  0  0  0  0
  2  4  1  0  0  0  0
  2  5  1  0  0  0  0
  5  6  2  0  0  0  0
  5  7  1  0  0  0  0
  7  8  1  0  0  0  0
  7  9  1  0  0  0  0
  9 10  1  0  0  0  0
  9 11  1  0  0  0  0
  9 22  1  0  0  0  0
 11 12  1  0  0  0  0
 11 13  1  0  0  0  0
 11 14  1  0  0  0  0
 14 15  1  0  0  0  0
 14 20  2  0  0  0  0
 15 16  1  0  0  0  0
 15 17  1  0  0  0  0
 17 18  1  0  0  0  0
 17 19  2  0  0  0  0
 19 20  1  0  0  0  0
 20 21  1  0  0  0  0
 22 23  2  0  0  0  0
 22 24  1  0  0  0  0
 24 25  1  0  0  0  0
 24 26  1  0  0  0  0
 26 27  1  0  0  0  0
 26 28  1  0  0  0  0
 26 29  1  0  0  0  0
M  END
$$$$

  -OEChem-01062216083D

 29 29  0     1  0  0  0  0  0999 V2000
   -3.1363   -2.6765    1.0798 H   0  0  0  0  0  0  0  0  0  0  0  0
   -3.0907   -1.7853    0.4474 C   0  0  0  0  0  0  0  0  0  0  0  0
   -3.9323   -1.1346    0.6959 H   0  0  0  0  0  0  0  0  0  0  0  0
   -3.1698   -2.0929   -0.5981 H   0  0  0  0  0  0  0  0  0  0  0  0
   -1.7820   -1.0523    0.6739 C   0  0  0  0  0  0  0  0  0  0  0  0
   -0.9814   -1.4844    1.4852 O   0  0  0  0  0  0  0  0  0  0  0  0
   -1.5067    0.0886   -0.0552 N   0  0  0  0  0  0  0  0  0  0  0  0
   -2.1603    0.3078   -0.7993 H   0  0  0  0  0  0  0  0  0  0  0  0
   -0.1864    0.7490   -0.0652 C   0  0  1  0  0  0  0  0  0  0  0  0
    0.5674    0.0827    0.3696 H   0  0  0  0  0  0  0  0  0  0  0  0
    0.2399    1.0513   -1.5094 C   0  0  0  0  0  0  0  0  0  0  0  0
   -0.5121    1.6778   -1.9993 H   0  0  0  0  0  0  0  0  0  0  0  0
    1.1838    1.6075   -1.5079 H   0  0  0  0  0  0  0  0  0  0  0  0
    0.4231   -0.2291   -2.2807 C   0  0  0  0  0  0  0  0  0  0  0  0
    1.4678   -1.1210   -2.1849 N   0  0  0  0  0  0  0  0  0  0  0  0
    2.2476   -1.0706   -1.5311 H   0  0  0  0  0  0  0  0  0  0  0  0
    1.2485   -2.1458   -3.0863 C   0  0  0  0  0  0  0  0  0  0  0  0
    1.8986   -3.0049   -3.2251 H   0  0  0  0  0  0  0  0  0  0  0  0
    0.1379   -1.9315   -3.7518 N   0  0  0  0  0  0  0  0  0  0  0  0
   -0.3793   -0.7363   -3.2679 C   0  0  0  0  0  0  0  0  0  0  0  0
   -1.2949   -0.2723   -3.6220 H   0  0  0  0  0  0  0  0  0  0  0  0
   -0.1701    2.0436    0.7708 C   0  0  0  0  0  0  0  0  0  0  0  0
    0.7103    2.2286    1.5987 O   0  0  0  0  0  0  0  0  0  0  0  0
   -1.0190    3.0911    0.4541 N   0  0  0  0  0  0  0  0  0  0  0  0
   -1.7694    2.9002   -0.2011 H   0  0  0  0  0  0  0  0  0  0  0  0
   -1.0124    4.3649    1.1643 C   0  0  0  0  0  0  0  0  0  0  0  0
   -0.0320    4.8459    1.0801 H   0  0  0  0  0  0  0  0  0  0  0  0
   -1.7637    5.0385    0.7407 H   0  0  0  0  0  0  0  0  0  0  0  0
   -1.2404    4.2134    2.2248 H   0  0  0  0  0  0  0  0  0  0  0  0
  1  2  1  0  0  0  0
  2  3  1  0  0  0  0
  2  4  1  0  0  0  0
  2  5  1  0  0  0  0
  5  6  2  0  0  0  0
  5  7  1  0  0  0  0
  7  8  1  0  0  0  0
  7  9  1  0  0  0  0
  9 10  1  0  0  0  0
  9 11  1  0  0  0  0
  9 22  1  0  0  0  0
 11 12  1  0  0  0  0
 11 13  1  0  0  0  0
 11 14  1  0  0  0  0
 14 15  1  0  0  0  0
 14 20  2  0  0  0  0
 15 16  1  0  0  0  0
 15 17  1  0  0  0  0
 17 18  1  0  0  0  0
 17 19  2  0  0  0  0
 19 20  1  0  0  0  0
 20 21  1  0  0  0  0
 22 23  2  0  0  0  0
 22 24  1  0  0  0  0
 24 25  1  0  0  0  0
 24 26  1  0  0  0  0
 26 27  1  0  0  0  0
 26 28  1  0  0  0  0
 26 29  1  0  0  0  0
M  END
$$$$

  -OEChem-01062216083D

 29 29  0     1  0  0  0  0  0999 V2000
   -3.1020   -2.7177    1.0410 H   0  0  0  0  0  0  0  0  0  0  0  0
   -3.0535   -1.8374    0.3937 C   0  0  0  0  0  0  0  0  0  0  0  0
   -3.9380   -1.2212    0.5709 H   0  0  0  0  0  0  0  0  0  0  0  0
   -3.0481   -2.1681   -0.6479 H   0  0  0  0  0  0  0  0  0  0  0  0
   -1.7971   -1.0409    0.6907 C   0  0  0  0  0  0  0  0  0  0  0  0
   -1.0404   -1.4101    1.5721 O   0  0  0  0  0  0  0  0  0  0  0  0
   -1.5215    0.0956   -0.0445 N   0  0  0  0  0  0  0  0  0  0  0  0
   -2.1157    0.2425   -0.8539 H   0  0  0  0  0  0  0  0  0  0  0  0
   -0.1955    0.7459   -0.0434 C   0  0  1  0  0  0  0  0  0  0  0  0
    0.5525    0.0735    0.3918 H   0  0  0  0  0  0  0  0  0  0  0  0
    0.2306    1.0555   -1.4854 C   0  0  0  0  0  0  0  0  0  0  0  0
   -0.5176    1.6936   -1.9666 H   0  0  0  0  0  0  0  0  0  0  0  0
    1.1788    1.6047   -1.4817 H   0  0  0  0  0  0  0  0  0  0  0  0
    0.4027   -0.2211   -2.2661 C   0  0  0  0  0  0  0  0  0  0  0  0
    1.4415   -1.1203   -2.1766 N   0  0  0  0  0  0  0  0  0  0  0  0
    2.2277   -1.0723   -1.5304 H   0  0  0  0  0  0  0  0  0  0  0  0
    1.2142   -2.1397   -3.0822 C   0  0  0  0  0  0  0  0  0  0  0  0
    1.8584   -3.0025   -3.2261 H   0  0  0  0  0  0  0  0  0  0  0  0
    0.1031   -1.9153   -3.7437 N   0  0  0  0  0  0  0  0  0  0  0  0
   -0.4037   -0.7174   -3.2554 C   0  0  0  0  0  0  0  0  0  0  0  0
   -1.3164   -0.2460   -3.6069 H   0  0  0  0  0  0  0  0  0  0  0  0
   -0.1672    2.0424    0.7869 C   0  0  0  0  0  0  0  0  0  0  0  0
    0.8543    2.3627    1.3785 O   0  0  0  0  0  0  0  0  0  0  0  0
   -1.1914    2.9660    0.6692 N   0  0  0  0  0  0  0  0  0  0  0  0
   -2.0512    2.6401    0.2401 H   0  0  0  0  0  0  0  0  0  0  0  0
   -1.2020    4.2349    1.3874 C   0  0  0  0  0  0  0  0  0  0  0  0
   -0.3309    4.8390    1.1123 H   0  0  0  0  0  0  0  0  0  0  0  0
   -2.1048    4.8019    1.1413 H   0  0  0  0  0  0  0  0  0  0  0  0
   -1.1834    4.0629    2.4688 H   0  0  0  0  0  0  0  0  0  0  0  0
  1  2  1  0  0  0  0
  2  3  1  0  0  0  0
  2  4  1  0  0  0  0
  2  5  1  0  0  0  0
  5  6  2  0  0  0  0
  5  7  1  0  0  0  0
  7  8  1  0  0  0  0
  7  9  1  0  0  0  0
  9 10  1  0  0  0  0
  9 11  1  0  0  0  0
  9 22  1  0  0  0  0
 11 12  1  0  0  0  0
 11 13  1  0  0  0  0
 11 14  1  0  0  0  0
 14 15  1  0  0  0  0
 14 20  2  0  0  0  0
 15 16  1  0  0  0  0
 15 17  1  0  0  0  0
 17 18  1  0  0  0  0
 17 19  2  0  0  0  0
 19 20  1  0  0  0  0
 20 21  1  0  0  0  0
 22 23  2  0  0  0  0
 22 24  1  0  0  0  0
 24 25  1  0  0  0  0
 24 26  1  0  0  0  0
 26 27  1  0  0  0  0
 26 28  1  0  0  0  0
 26 29  1  0  0  0  0
M  END
$$$$

  -OEChem-01062216083D

 29 29  0     1  0  0  0  0  0999 V2000
   -3.0904   -2.7346    1.0214 H   0  0  0  0  0  0  0  0  0  0  0  0
   -3.0389   -1.8589    0.3680 C   0  0  0  0  0  0  0  0  0  0  0  0
   -3.9372   -1.2555    0.5174 H   0  0  0  0  0  0  0  0  0  0  0  0
   -3.0015   -2.1982   -0.6702 H   0  0  0  0  0  0  0  0  0  0  0  0
   -1.8029   -1.0402    0.6891 C   0  0  0  0  0  0  0  0  0  0  0  0
   -1.0646   -1.3863    1.5953 O   0  0  0  0  0  0  0  0  0  0  0  0
   -1.5261    0.0958   -0.0463 N   0  0  0  0  0  0  0  0  0  0  0  0
   -2.1007    0.2252   -0.8732 H   0  0  0  0  0  0  0  0  0  0  0  0
   -0.1982    0.7442   -0.0372 C   0  0  1  0  0  0  0  0  0  0  0  0
    0.5485    0.0705    0.3980 H   0  0  0  0  0  0  0  0  0  0  0  0
    0.2260    1.0541   -1.4805 C   0  0  0  0  0  0  0  0  0  0  0  0
   -0.5232    1.6939   -1.9586 H   0  0  0  0  0  0  0  0  0  0  0  0
    1.1749    1.6021   -1.4807 H   0  0  0  0  0  0  0  0  0  0  0  0
    0.3955   -0.2219   -2.2630 C   0  0  0  0  0  0  0  0  0  0  0  0
    1.4336   -1.1223   -2.1761 N   0  0  0  0  0  0  0  0  0  0  0  0
    2.2248   -1.0723   -1.5360 H   0  0  0  0  0  0  0  0  0  0  0  0
    1.2041   -2.1394   -3.0836 C   0  0  0  0  0  0  0  0  0  0  0  0
    1.8476   -3.0023   -3.2306 H   0  0  0  0  0  0  0  0  0  0  0  0
    0.0917   -1.9137   -3.7423 N   0  0  0  0  0  0  0  0  0  0  0  0
   -0.4125   -0.7152   -3.2525 C   0  0  0  0  0  0  0  0  0  0  0  0
   -1.3239   -0.2409   -3.6036 H   0  0  0  0  0  0  0  0  0  0  0  0
   -0.1647    2.0421    0.7920 C   0  0  0  0  0  0  0  0  0  0  0  0
    0.9081    2.4863    1.1778 O   0  0  0  0  0  0  0  0  0  0  0  0
   -1.3007    2.8221    0.9162 N   0  0  0  0  0  0  0  0  0  0  0  0
   -2.1801    2.3773    0.6731 H   0  0  0  0  0  0  0  0  0  0  0  0
   -1.3295    4.0696    1.6703 C   0  0  0  0  0  0  0  0  0  0  0  0
   -0.6135    4.7863    1.2541 H   0  0  0  0  0  0  0  0  0  0  0  0
   -2.3276    4.5159    1.6260 H   0  0  0  0  0  0  0  0  0  0  0  0
   -1.0762    3.8879    2.7201 H   0  0  0  0  0  0  0  0  0  0  0  0
  1  2  1  0  0  0  0
  2  3  1  0  0  0  0
  2  4  1  0  0  0  0
  2  5  1  0  0  0  0
  5  6  2  0  0  0  0
  5  7  1  0  0  0  0
  7  8  1  0  0  0  0
  7  9  1  0  0  0  0
  9 10  1  0  0  0  0
  9 11  1  0  0  0  0
  9 22  1  0  0  0  0
 11 12  1  0  0  0  0
 11 13  1  0  0  0  0
 11 14  1  0  0  0  0
 14 15  1  0  0  0  0
 14 20  2  0  0  0  0
 15 16  1  0  0  0  0
 15 17  1  0  0  0  0
 17 18  1  0  0  0  0
 17 19  2  0  0  0  0
 19 20  1  0  0  0  0
 20 21  1  0  0  0  0
 22 23  2  0  0  0  0
 22 24  1  0  0  0  0
 24 25  1  0  0  0  0
 24 26  1  0  0  0  0
 26 27  1  0  0  0  0
 26 28  1  0  0  0  0
 26 29  1  0  0  0  0
M  END
$$$$

  -OEChem-01062216083D

 29 29  0     1  0  0  0  0  0999 V2000
   -3.0686   -2.7477    0.9888 H   0  0  0  0  0  0  0  0  0  0  0  0
   -3.0214   -1.8699    0.3380 C   0  0  0  0  0  0  0  0  0  0  0  0
   -3.9313   -1.2811    0.4747 H   0  0  0  0  0  0  0  0  0  0  0  0
   -2.9634   -2.2066   -0.7001 H   0  0  0  0  0  0  0  0  0  0  0  0
   -1.8027   -1.0336    0.6793 C   0  0  0  0  0  0  0  0  0  0  0  0
   -1.0800   -1.3612    1.6048 O   0  0  0  0  0  0  0  0  0  0  0  0
   -1.5245    0.1036   -0.0532 N   0  0  0  0  0  0  0  0  0  0  0  0
   -2.0928    0.2342   -0.8847 H   0  0  0  0  0  0  0  0  0  0  0  0
   -0.1947    0.7494   -0.0380 C   0  0  1  0  0  0  0  0  0  0  0  0
    0.5505    0.0743    0.3973 H   0  0  0  0  0  0  0  0  0  0  0  0
    0.2257    1.0553   -1.4844 C   0  0  0  0  0  0  0  0  0  0  0  0
   -0.5234    1.6962   -1.9610 H   0  0  0  0  0  0  0  0  0  0  0  0
    1.1764    1.5998   -1.4919 H   0  0  0  0  0  0  0  0  0  0  0  0
    0.3896   -0.2243   -2.2625 C   0  0  0  0  0  0  0  0  0  0  0  0
    1.4254   -1.1271   -2.1762 N   0  0  0  0  0  0  0  0  0  0  0  0
    2.2205   -1.0751   -1.5413 H   0  0  0  0  0  0  0  0  0  0  0  0
    1.1888   -2.1477   -3.0777 C   0  0  0  0  0  0  0  0  0  0  0  0
    1.8298   -3.0124   -3.2242 H   0  0  0  0  0  0  0  0  0  0  0  0
    0.0732   -1.9223   -3.7315 N   0  0  0  0  0  0  0  0  0  0  0  0
   -0.4247   -0.7196   -3.2457 C   0  0  0  0  0  0  0  0  0  0  0  0
   -1.3367   -0.2437   -3.5933 H   0  0  0  0  0  0  0  0  0  0  0  0
   -0.1610    2.0461    0.7955 C   0  0  0  0  0  0  0  0  0  0  0  0
    0.9046    2.6152    0.9924 O   0  0  0  0  0  0  0  0  0  0  0  0
   -1.3373    2.6648    1.1790 N   0  0  0  0  0  0  0  0  0  0  0  0
   -2.1818    2.1068    1.0954 H   0  0  0  0  0  0  0  0  0  0  0  0
   -1.3733    3.8798    1.9838 C   0  0  0  0  0  0  0  0  0  0  0  0
   -0.8484    4.6941    1.4732 H   0  0  0  0  0  0  0  0  0  0  0  0
   -2.4085    4.1912    2.1529 H   0  0  0  0  0  0  0  0  0  0  0  0
   -0.8982    3.7087    2.9555 H   0  0  0  0  0  0  0  0  0  0  0  0
  1  2  1  0  0  0  0
  2  3  1  0  0  0  0
  2  4  1  0  0  0  0
  2  5  1  0  0  0  0
  5  6  2  0  0  0  0
  5  7  1  0  0  0  0
  7  8  1  0  0  0  0
  7  9  1  0  0  0  0
  9 10  1  0  0  0  0
  9 11  1  0  0  0  0
  9 22  1  0  0  0  0
 11 12  1  0  0  0  0
 11 13  1  0  0  0  0
 11 14  1  0  0  0  0
 14 15  1  0  0  0  0
 14 20  2  0  0  0  0
 15 16  1  0  0  0  0
 15 17  1  0  0  0  0
 17 18  1  0  0  0  0
 17 19  2  0  0  0  0
 19 20  1  0  0  0  0
 20 21  1  0  0  0  0
 22 23  2  0  0  0  0
 22 24  1  0  0  0  0
 24 25  1  0  0  0  0
 24 26  1  0  0  0  0
 26 27  1  0  0  0  0
 26 28  1  0  0  0  0
 26 29  1  0  0  0  0
M  END
$$$$

  -OEChem-01062216083D

 29 29  0     1  0  0  0  0  0999 V2000
   -3.0799   -2.7340    0.9835 H   0  0  0  0  0  0  0  0  0  0  0  0
   -3.0263   -1.8591    0.3295 C   0  0  0  0  0  0  0  0  0  0  0  0
   -3.9314   -1.2625    0.4650 H   0  0  0  0  0  0  0  0  0  0  0  0
   -2.9726   -2.1999   -0.7075 H   0  0  0  0  0  0  0  0  0  0  0  0
   -1.8006   -1.0311    0.6660 C   0  0  0  0  0  0  0  0  0  0  0  0
   -1.0811   -1.3561    1.5951 O   0  0  0  0  0  0  0  0  0  0  0  0
   -1.5202    0.1087   -0.0607 N   0  0  0  0  0  0  0  0  0  0  0  0
   -2.0995    0.2584   -0.8815 H   0  0  0  0  0  0  0  0  0  0  0  0
   -0.1912    0.7569   -0.0446 C   0  0  1  0  0  0  0  0  0  0  0  0
    0.5542    0.0833    0.3922 H   0  0  0  0  0  0  0  0  0  0  0  0
    0.2250    1.0538   -1.4958 C   0  0  0  0  0  0  0  0  0  0  0  0
   -0.5267    1.6906   -1.9737 H   0  0  0  0  0  0  0  0  0  0  0  0
    1.1751    1.5992   -1.5127 H   0  0  0  0  0  0  0  0  0  0  0  0
    0.3902   -0.2295   -2.2681 C   0  0  0  0  0  0  0  0  0  0  0  0
    1.4289   -1.1289   -2.1800 N   0  0  0  0  0  0  0  0  0  0  0  0
    2.2279   -1.0687   -1.5511 H   0  0  0  0  0  0  0  0  0  0  0  0
    1.1945   -2.1533   -3.0781 C   0  0  0  0  0  0  0  0  0  0  0  0
    1.8388   -3.0158   -3.2235 H   0  0  0  0  0  0  0  0  0  0  0  0
    0.0770   -1.9343   -3.7305 N   0  0  0  0  0  0  0  0  0  0  0  0
   -0.4241   -0.7314   -3.2480 C   0  0  0  0  0  0  0  0  0  0  0  0
   -1.3379   -0.2597   -3.5965 H   0  0  0  0  0  0  0  0  0  0  0  0
   -0.1618    2.0521    0.7953 C   0  0  0  0  0  0  0  0  0  0  0  0
    0.8452    2.7481    0.8177 O   0  0  0  0  0  0  0  0  0  0  0  0
   -1.3017    2.4971    1.4395 N   0  0  0  0  0  0  0  0  0  0  0  0
   -2.0679    1.8323    1.4955 H   0  0  0  0  0  0  0  0  0  0  0  0
   -1.3250    3.6734    2.3000 C   0  0  0  0  0  0  0  0  0  0  0  0
   -1.0224    4.5647    1.7402 H   0  0  0  0  0  0  0  0  0  0  0  0
   -2.3347    3.8378    2.6884 H   0  0  0  0  0  0  0  0  0  0  0  0
   -0.6439    3.5413    3.1473 H   0  0  0  0  0  0  0  0  0  0  0  0
  1  2  1  0  0  0  0
  2  3  1  0  0  0  0
  2  4  1  0  0  0  0
  2  5  1  0  0  0  0
  5  6  2  0  0  0  0
  5  7  1  0  0  0  0
  7  8  1  0  0  0  0
  7  9  1  0  0  0  0
  9 10  1  0  0  0  0
  9 11  1  0  0  0  0
  9 22  1  0  0  0  0
 11 12  1  0  0  0  0
 11 13  1  0  0  0  0
 11 14  1  0  0  0  0
 14 15  1  0  0  0  0
 14 20  2  0  0  0  0
 15 16  1  0  0  0  0
 15 17  1  0  0  0  0
 17 18  1  0  0  0  0
 17 19  2  0  0  0  0
 19 20  1  0  0  0  0
 20 21  1  0  0  0  0
 22 23  2  0  0  0  0
 22 24  1  0  0  0  0
 24 25  1  0  0  0  0
 24 26  1  0  0  0  0
 26 27  1  0  0  0  0
 26 28  1  0  0  0  0
 26 29  1  0  0  0  0
M  END
$$$$

  -OEChem-01062216083D

 29 29  0     1  0  0  0  0  0999 V2000
   -3.0821   -2.7163    0.9697 H   0  0  0  0  0  0  0  0  0  0  0  0
   -3.0143   -1.8500    0.3058 C   0  0  0  0  0  0  0  0  0  0  0  0
   -3.9207   -1.2499    0.4151 H   0  0  0  0  0  0  0  0  0  0  0  0
   -2.9401   -2.2041   -0.7256 H   0  0  0  0  0  0  0  0  0  0  0  0
   -1.7949   -1.0191    0.6555 C   0  0  0  0  0  0  0  0  0  0  0  0
   -1.0871   -1.3343    1.5971 O   0  0  0  0  0  0  0  0  0  0  0  0
   -1.5125    0.1240   -0.0635 N   0  0  0  0  0  0  0  0  0  0  0  0
   -2.0971    0.2865   -0.8779 H   0  0  0  0  0  0  0  0  0  0  0  0
   -0.1827    0.7688   -0.0485 C   0  0  1  0  0  0  0  0  0  0  0  0
    0.5622    0.0933    0.3857 H   0  0  0  0  0  0  0  0  0  0  0  0
    0.2284    1.0587   -1.5039 C   0  0  0  0  0  0  0  0  0  0  0  0
   -0.5239    1.6952   -1.9809 H   0  0  0  0  0  0  0  0  0  0  0  0
    1.1799    1.6006   -1.5296 H   0  0  0  0  0  0  0  0  0  0  0  0
    0.3868   -0.2300   -2.2692 C   0  0  0  0  0  0  0  0  0  0  0  0
    1.4225   -1.1331   -2.1816 N   0  0  0  0  0  0  0  0  0  0  0  0
    2.2267   -1.0712   -1.5597 H   0  0  0  0  0  0  0  0  0  0  0  0
    1.1774   -2.1634   -3.0700 C   0  0  0  0  0  0  0  0  0  0  0  0
    1.8172   -3.0295   -3.2136 H   0  0  0  0  0  0  0  0  0  0  0  0
    0.0556   -1.9454   -3.7150 N   0  0  0  0  0  0  0  0  0  0  0  0
   -0.4370   -0.7364   -3.2389 C   0  0  0  0  0  0  0  0  0  0  0  0
   -1.3522   -0.2648   -3.5840 H   0  0  0  0  0  0  0  0  0  0  0  0
   -0.1580    2.0579    0.8031 C   0  0  0  0  0  0  0  0  0  0  0  0
    0.7367    2.8822    0.6626 O   0  0  0  0  0  0  0  0  0  0  0  0
   -1.1855    2.3270    1.6887 N   0  0  0  0  0  0  0  0  0  0  0  0
   -1.8247    1.5577    1.8720 H   0  0  0  0  0  0  0  0  0  0  0  0
   -1.1896    3.4756    2.5862 C   0  0  0  0  0  0  0  0  0  0  0  0
   -1.1274    4.4087    2.0164 H   0  0  0  0  0  0  0  0  0  0  0  0
   -2.1126    3.4926    3.1735 H   0  0  0  0  0  0  0  0  0  0  0  0
   -0.3398    3.4261    3.2752 H   0  0  0  0  0  0  0  0  0  0  0  0
  1  2  1  0  0  0  0
  2  3  1  0  0  0  0
  2  4  1  0  0  0  0
  2  5  1  0  0  0  0
  5  6  2  0  0  0  0
  5  7  1  0  0  0  0
  7  8  1  0  0  0  0
  7  9  1  0  0  0  0
  9 10  1  0  0  0  0
  9 11  1  0  0  0  0
  9 22  1  0  0  0  0
 11 12  1  0  0  0  0
 11 13  1  0  0  0  0
 11 14  1  0  0  0  0
 14 15  1  0  0  0  0
 14 20  2  0  0  0  0
 15 16  1  0  0  0  0
 15 17  1  0  0  0  0
 17 18  1  0  0  0  0
 17 19  2  0  0  0  0
 19 20  1  0  0  0  0
 20 21  1  0  0  0  0
 22 23  2  0  0  0  0
 22 24  1  0  0  0  0
 24 25  1  0  0  0  0
 24 26  1  0  0  0  0
 26 27  1  0  0  0  0
 26 28  1  0  0  0  0
 26 29  1  0  0  0  0
M  END
$$$$

  -OEChem-01062216083D

 29 29  0     1  0  0  0  0  0999 V2000
   -3.0579   -2.7150    0.9392 H   0  0  0  0  0  0  0  0  0  0  0  0
   -3.0123   -1.8241    0.3065 C   0  0  0  0  0  0  0  0  0  0  0  0
   -3.9181   -1.2334    0.4625 H   0  0  0  0  0  0  0  0  0  0  0  0
   -2.9655   -2.1395   -0.7388 H   0  0  0  0  0  0  0  0  0  0  0  0
   -1.7875   -0.9998    0.6537 C   0  0  0  0  0  0  0  0  0  0  0  0
   -1.0879   -1.3067    1.6050 O   0  0  0  0  0  0  0  0  0  0  0  0
   -1.4981    0.1430   -0.0618 N   0  0  0  0  0  0  0  0  0  0  0  0
   -2.0904    0.3223   -0.8672 H   0  0  0  0  0  0  0  0  0  0  0  0
   -0.1636    0.7764   -0.0512 C   0  0  1  0  0  0  0  0  0  0  0  0
    0.5778    0.0970    0.3827 H   0  0  0  0  0  0  0  0  0  0  0  0
    0.2485    1.0608   -1.5079 C   0  0  0  0  0  0  0  0  0  0  0  0
   -0.4989    1.7031   -1.9856 H   0  0  0  0  0  0  0  0  0  0  0  0
    1.2049    1.5945   -1.5347 H   0  0  0  0  0  0  0  0  0  0  0  0
    0.3953   -0.2306   -2.2715 C   0  0  0  0  0  0  0  0  0  0  0  0
    1.4217   -1.1448   -2.1869 N   0  0  0  0  0  0  0  0  0  0  0  0
    2.2328   -1.0881   -1.5736 H   0  0  0  0  0  0  0  0  0  0  0  0
    1.1593   -2.1760   -3.0693 C   0  0  0  0  0  0  0  0  0  0  0  0
    1.7886   -3.0496   -3.2141 H   0  0  0  0  0  0  0  0  0  0  0  0
    0.0355   -1.9486   -3.7074 N   0  0  0  0  0  0  0  0  0  0  0  0
   -0.4411   -0.7327   -3.2325 C   0  0  0  0  0  0  0  0  0  0  0  0
   -1.3553   -0.2538   -3.5702 H   0  0  0  0  0  0  0  0  0  0  0  0
   -0.1463    2.0589    0.8107 C   0  0  0  0  0  0  0  0  0  0  0  0
    0.5747    3.0073    0.5261 O   0  0  0  0  0  0  0  0  0  0  0  0
   -0.9950    2.1605    1.8974 N   0  0  0  0  0  0  0  0  0  0  0  0
   -1.4713    1.3030    2.1706 H   0  0  0  0  0  0  0  0  0  0  0  0
   -0.9942    3.2922    2.8153 C   0  0  0  0  0  0  0  0  0  0  0  0
   -1.2119    4.2211    2.2777 H   0  0  0  0  0  0  0  0  0  0  0  0
   -1.7578    3.1536    3.5866 H   0  0  0  0  0  0  0  0  0  0  0  0
   -0.0192    3.3873    3.3045 H   0  0  0  0  0  0  0  0  0  0  0  0
  1  2  1  0  0  0  0
  2  3  1  0  0  0  0
  2  4  1  0  0  0  0
  2  5  1  0  0  0  0
  5  6  2  0  0  0  0
  5  7  1  0  0  0  0
  7  8  1  0  0  0  0
  7  9  1  0  0  0  0
  9 10  1  0  0  0  0
  9 11  1  0  0  0  0
  9 22  1  0  0  0  0
 11 12  1  0  0  0  0
 11 13  1  0  0  0  0
 11 14  1  0  0  0  0
 14 15  1  0  0  0  0
 14 20  2  0  0  0  0
 15 16  1  0  0  0  0
 15 17  1  0  0  0  0
 17 18  1  0  0  0  0
 17 19  2  0  0  0  0
 19 20  1  0  0  0  0
 20 21  1  0  0  0  0
 22 23  2  0  0  0  0
 22 24  1  0  0  0  0
 24 25  1  0  0  0  0
 24 26  1  0  0  0  0
 26 27  1  0  0  0  0
 26 28  1  0  0  0  0
 26 29  1  0  0  0  0
M  END
$$$$

  -OEChem-01062216083D

 29 29  0     1  0  0  0  0  0999 V2000
   -3.0564   -2.6816    0.9637 H   0  0  0  0  0  0  0  0  0  0  0  0
   -3.0038   -1.7972    0.3226 C   0  0  0  0  0  0  0  0  0  0  0  0
   -3.9051   -1.1979    0.4723 H   0  0  0  0  0  0  0  0  0  0  0  0
   -2.9580   -2.1221   -0.7199 H   0  0  0  0  0  0  0  0  0  0  0  0
   -1.7737   -0.9786    0.6629 C   0  0  0  0  0  0  0  0  0  0  0  0
   -1.0724   -1.2821    1.6151 O   0  0  0  0  0  0  0  0  0  0  0  0
   -1.4818    0.1613   -0.0551 N   0  0  0  0  0  0  0  0  0  0  0  0
   -2.0811    0.3492   -0.8533 H   0  0  0  0  0  0  0  0  0  0  0  0
   -0.1425    0.7811   -0.0543 C   0  0  1  0  0  0  0  0  0  0  0  0
    0.5977    0.0979    0.3757 H   0  0  0  0  0  0  0  0  0  0  0  0
    0.2681    1.0632   -1.5116 C   0  0  0  0  0  0  0  0  0  0  0  0
   -0.4746    1.7126   -1.9871 H   0  0  0  0  0  0  0  0  0  0  0  0
    1.2284    1.5894   -1.5383 H   0  0  0  0  0  0  0  0  0  0  0  0
    0.3995   -0.2295   -2.2754 C   0  0  0  0  0  0  0  0  0  0  0  0
    1.4165   -1.1546   -2.1939 N   0  0  0  0  0  0  0  0  0  0  0  0
    2.2309   -1.1054   -1.5845 H   0  0  0  0  0  0  0  0  0  0  0  0
    1.1386   -2.1845   -3.0731 C   0  0  0  0  0  0  0  0  0  0  0  0
    1.7572   -3.0655   -3.2188 H   0  0  0  0  0  0  0  0  0  0  0  0
    0.0147   -1.9458   -3.7067 N   0  0  0  0  0  0  0  0  0  0  0  0
   -0.4467   -0.7238   -3.2319 C   0  0  0  0  0  0  0  0  0  0  0  0
   -1.3576   -0.2359   -3.5655 H   0  0  0  0  0  0  0  0  0  0  0  0
   -0.1279    2.0579    0.8126 C   0  0  0  0  0  0  0  0  0  0  0  0
    0.3841    3.0997    0.4211 O   0  0  0  0  0  0  0  0  0  0  0  0
   -0.7344    2.0228    2.0538 N   0  0  0  0  0  0  0  0  0  0  0  0
   -1.0665    1.1109    2.3672 H   0  0  0  0  0  0  0  0  0  0  0  0
   -0.7390    3.1426    2.9856 C   0  0  0  0  0  0  0  0  0  0  0  0
   -1.2244    4.0145    2.5348 H   0  0  0  0  0  0  0  0  0  0  0  0
   -1.2865    2.8747    3.8943 H   0  0  0  0  0  0  0  0  0  0  0  0
    0.2849    3.4131    3.2639 H   0  0  0  0  0  0  0  0  0  0  0  0
  1  2  1  0  0  0  0
  2  3  1  0  0  0  0
  2  4  1  0  0  0  0
  2  5  1  0  0  0  0
  5  6  2  0  0  0  0
  5  7  1  0  0  0  0
  7  8  1  0  0  0  0
  7  9  1  0  0  0  0
  9 10  1  0  0  0  0
  9 11  1  0  0  0  0
  9 22  1  0  0  0  0
 11 12  1  0  0  0  0
 11 13  1  0  0  0  0
 11 14  1  0  0  0  0
 14 15  1  0  0  0  0
 14 20  2  0  0  0  0
 15 16  1  0  0  0  0
 15 17  1  0  0  0  0
 17 18  1  0  0  0  0
 17 19  2  0  0  0  0
 19 20  1  0  0  0  0
 20 21  1  0  0  0  0
 22 23  2  0  0  0  0
 22 24  1  0  0  0  0
 24 25  1  0  0  0  0
 24 26  1  0  0  0  0
 26 27  1  0  0  0  0
 26 28  1  0  0  0  0
 26 29  1  0  0  0  0
M  END
$$$$

  -OEChem-01062216083D

 29 29  0     1  0  0  0  0  0999 V2000
   -3.0559   -2.6520    1.0000 H   0  0  0  0  0  0  0  0  0  0  0  0
   -3.0073   -1.7620    0.3662 C   0  0  0  0  0  0  0  0  0  0  0  0
   -3.8941   -1.1502    0.5476 H   0  0  0  0  0  0  0  0  0  0  0  0
   -2.9968   -2.0770   -0.6802 H   0  0  0  0  0  0  0  0  0  0  0  0
   -1.7546   -0.9664    0.6781 C   0  0  0  0  0  0  0  0  0  0  0  0
   -1.0344   -1.2862    1.6117 O   0  0  0  0  0  0  0  0  0  0  0  0
   -1.4570    0.1687   -0.0455 N   0  0  0  0  0  0  0  0  0  0  0  0
   -2.0693    0.3760   -0.8290 H   0  0  0  0  0  0  0  0  0  0  0  0
   -0.1129    0.7737   -0.0530 C   0  0  1  0  0  0  0  0  0  0  0  0
    0.6264    0.0867    0.3719 H   0  0  0  0  0  0  0  0  0  0  0  0
    0.2948    1.0555   -1.5105 C   0  0  0  0  0  0  0  0  0  0  0  0
   -0.4447    1.7127   -1.9803 H   0  0  0  0  0  0  0  0  0  0  0  0
    1.2582    1.5760   -1.5366 H   0  0  0  0  0  0  0  0  0  0  0  0
    0.4109   -0.2342   -2.2824 C   0  0  0  0  0  0  0  0  0  0  0  0
    1.4184   -1.1706   -2.2115 N   0  0  0  0  0  0  0  0  0  0  0  0
    2.2338   -1.1370   -1.6026 H   0  0  0  0  0  0  0  0  0  0  0  0
    1.1295   -2.1881   -3.1016 C   0  0  0  0  0  0  0  0  0  0  0  0
    1.7400   -3.0730   -3.2579 H   0  0  0  0  0  0  0  0  0  0  0  0
    0.0071   -1.9322   -3.7309 N   0  0  0  0  0  0  0  0  0  0  0  0
   -0.4420   -0.7111   -3.2421 C   0  0  0  0  0  0  0  0  0  0  0  0
   -1.3478   -0.2107   -3.5710 H   0  0  0  0  0  0  0  0  0  0  0  0
   -0.0978    2.0486    0.8133 C   0  0  0  0  0  0  0  0  0  0  0  0
    0.1837    3.1479    0.3513 O   0  0  0  0  0  0  0  0  0  0  0  0
   -0.4171    1.9299    2.1523 N   0  0  0  0  0  0  0  0  0  0  0  0
   -0.6531    0.9939    2.4836 H   0  0  0  0  0  0  0  0  0  0  0  0
   -0.4552    3.0504    3.0824 C   0  0  0  0  0  0  0  0  0  0  0  0
   -1.2043    3.7841    2.7671 H   0  0  0  0  0  0  0  0  0  0  0  0
   -0.7149    2.6993    4.0858 H   0  0  0  0  0  0  0  0  0  0  0  0
    0.5221    3.5418    3.1306 H   0  0  0  0  0  0  0  0  0  0  0  0
  1  2  1  0  0  0  0
  2  3  1  0  0  0  0
  2  4  1  0  0  0  0
  2  5  1  0  0  0  0
  5  6  2  0  0  0  0
  5  7  1  0  0  0  0
  7  8  1  0  0  0  0
  7  9  1  0  0  0  0
  9 10  1  0  0  0  0
  9 11  1  0  0  0  0
  9 22  1  0  0  0  0
 11 12  1  0  0  0  0
 11 13  1  0  0  0  0
 11 14  1  0  0  0  0
 14 15  1  0  0  0  0
 14 20  2  0  0  0  0
 15 16  1  0  0  0  0
 15 17  1  0  0  0  0
 17 18  1  0  0  0  0
 17 19  2  0  0  0  0
 19 20  1  0  0  0  0
 20 21  1  0  0  0  0
 22 23  2  0  0  0  0
 22 24  1  0  0  0  0
 24 25  1  0  0  0  0
 24 26  1  0  0  0  0
 26 27  1  0  0  0  0
 26 28  1  0  0  0  0
 26 29  1  0  0  0  0
M  END
$$$$

  -OEChem-01062216083D

 29 29  0     1  0  0  0  0  0999 V2000
   -3.0809   -2.6150    1.0460 H   0  0  0  0  0  0  0  0  0  0  0  0
   -3.0276   -1.7235    0.4147 C   0  0  0  0  0  0  0  0  0  0  0  0
   -3.8836   -1.0818    0.6370 H   0  0  0  0  0  0  0  0  0  0  0  0
   -3.0729   -2.0321   -0.6327 H   0  0  0  0  0  0  0  0  0  0  0  0
   -1.7355   -0.9744    0.6770 C   0  0  0  0  0  0  0  0  0  0  0  0
   -0.9798   -1.3384    1.5657 O   0  0  0  0  0  0  0  0  0  0  0  0
   -1.4352    0.1604   -0.0464 N   0  0  0  0  0  0  0  0  0  0  0  0
   -2.0785    0.4142   -0.7905 H   0  0  0  0  0  0  0  0  0  0  0  0
   -0.0922    0.7643   -0.0592 C   0  0  1  0  0  0  0  0  0  0  0  0
    0.6506    0.0766    0.3585 H   0  0  0  0  0  0  0  0  0  0  0  0
    0.3115    1.0511   -1.5163 C   0  0  0  0  0  0  0  0  0  0  0  0
   -0.4315    1.7070   -1.9830 H   0  0  0  0  0  0  0  0  0  0  0  0
    1.2729    1.5753   -1.5422 H   0  0  0  0  0  0  0  0  0  0  0  0
    0.4254   -0.2357   -2.2934 C   0  0  0  0  0  0  0  0  0  0  0  0
    1.4331   -1.1724   -2.2286 N   0  0  0  0  0  0  0  0  0  0  0  0
    2.2486   -1.1430   -1.6197 H   0  0  0  0  0  0  0  0  0  0  0  0
    1.1412   -2.1868   -3.1211 C   0  0  0  0  0  0  0  0  0  0  0  0
    1.7508   -3.0715   -3.2817 H   0  0  0  0  0  0  0  0  0  0  0  0
    0.0176   -1.9286   -3.7469 N   0  0  0  0  0  0  0  0  0  0  0  0
   -0.4305   -0.7094   -3.2521 C   0  0  0  0  0  0  0  0  0  0  0  0
   -1.3371   -0.2077   -3.5769 H   0  0  0  0  0  0  0  0  0  0  0  0
   -0.0759    2.0384    0.8060 C   0  0  0  0  0  0  0  0  0  0  0  0
   -0.0488    3.1587    0.3104 O   0  0  0  0  0  0  0  0  0  0  0  0
   -0.0775    1.8932    2.1798 N   0  0  0  0  0  0  0  0  0  0  0  0
   -0.2002    0.9449    2.5355 H   0  0  0  0  0  0  0  0  0  0  0  0
   -0.1370    3.0134    3.1095 C   0  0  0  0  0  0  0  0  0  0  0  0
   -1.0677    3.5743    2.9746 H   0  0  0  0  0  0  0  0  0  0  0  0
   -0.0971    2.6497    4.1408 H   0  0  0  0  0  0  0  0  0  0  0  0
    0.7092    3.6899    2.9499 H   0  0  0  0  0  0  0  0  0  0  0  0
  1  2  1  0  0  0  0
  2  3  1  0  0  0  0
  2  4  1  0  0  0  0
  2  5  1  0  0  0  0
  5  6  2  0  0  0  0
  5  7  1  0  0  0  0
  7  8  1  0  0  0  0
  7  9  1  0  0  0  0
  9 10  1  0  0  0  0
  9 11  1  0  0  0  0
  9 22  1  0  0  0  0
 11 12  1  0  0  0  0
 11 13  1  0  0  0  0
 11 14  1  0  0  0  0
 14 15  1  0  0  0  0
 14 20  2  0  0  0  0
 15 16  1  0  0  0  0
 15 17  1  0  0  0  0
 17 18  1  0  0  0  0
 17 19  2  0  0  0  0
 19 20  1  0  0  0  0
 20 21  1  0  0  0  0
 22 23  2  0  0  0  0
 22 24  1  0  0  0  0
 24 25  1  0  0  0  0
 24 26  1  0  0  0  0
 26 27  1  0  0  0  0
 26 28  1  0  0  0  0
 26 29  1  0  0  0  0
M  END
$$$$

  -OEChem-01062216083D

 29 29  0     1  0  0  0  0  0999 V2000
   -3.1288   -2.5854    1.0931 H   0  0  0  0  0  0  0  0  0  0  0  0
   -3.0682   -1.6877    0.4716 C   0  0  0  0  0  0  0  0  0  0  0  0
   -3.8777   -1.0093    0.7516 H   0  0  0  0  0  0  0  0  0  0  0  0
   -3.1882   -1.9768   -0.5755 H   0  0  0  0  0  0  0  0  0  0  0  0
   -1.7283   -1.0049    0.6684 C   0  0  0  0  0  0  0  0  0  0  0  0
   -0.9351   -1.4303    1.4953 O   0  0  0  0  0  0  0  0  0  0  0  0
   -1.4207    0.1298   -0.0526 N   0  0  0  0  0  0  0  0  0  0  0  0
   -2.1079    0.4576   -0.7253 H   0  0  0  0  0  0  0  0  0  0  0  0
   -0.0829    0.7425   -0.0644 C   0  0  1  0  0  0  0  0  0  0  0  0
    0.6640    0.0578    0.3503 H   0  0  0  0  0  0  0  0  0  0  0  0
    0.3217    1.0413   -1.5185 C   0  0  0  0  0  0  0  0  0  0  0  0
   -0.4263    1.6931   -1.9831 H   0  0  0  0  0  0  0  0  0  0  0  0
    1.2777    1.5748   -1.5384 H   0  0  0  0  0  0  0  0  0  0  0  0
    0.4468   -0.2375   -2.3064 C   0  0  0  0  0  0  0  0  0  0  0  0
    1.4606   -1.1682   -2.2489 N   0  0  0  0  0  0  0  0  0  0  0  0
    2.2716   -1.1425   -1.6342 H   0  0  0  0  0  0  0  0  0  0  0  0
    1.1776   -2.1751   -3.1528 C   0  0  0  0  0  0  0  0  0  0  0  0
    1.7935   -3.0540   -3.3209 H   0  0  0  0  0  0  0  0  0  0  0  0
    0.0545   -1.9171   -3.7796 N   0  0  0  0  0  0  0  0  0  0  0  0
   -0.4043   -0.7073   -3.2712 C   0  0  0  0  0  0  0  0  0  0  0  0
   -1.3142   -0.2083   -3.5912 H   0  0  0  0  0  0  0  0  0  0  0  0
   -0.0720    2.0197    0.7953 C   0  0  0  0  0  0  0  0  0  0  0  0
   -0.3146    3.1181    0.3094 O   0  0  0  0  0  0  0  0  0  0  0  0
    0.2401    1.9160    2.1374 N   0  0  0  0  0  0  0  0  0  0  0  0
    0.2904    0.9726    2.5191 H   0  0  0  0  0  0  0  0  0  0  0  0
    0.1928    3.0452    3.0574 C   0  0  0  0  0  0  0  0  0  0  0  0
   -0.8256    3.4415    3.1249 H   0  0  0  0  0  0  0  0  0  0  0  0
    0.5111    2.7319    4.0563 H   0  0  0  0  0  0  0  0  0  0  0  0
    0.8605    3.8442    2.7185 H   0  0  0  0  0  0  0  0  0  0  0  0
  1  2  1  0  0  0  0
  2  3  1  0  0  0  0
  2  4  1  0  0  0  0
  2  5  1  0  0  0  0
  5  6  2  0  0  0  0
  5  7  1  0  0  0  0
  7  8  1  0  0  0  0
  7  9  1  0  0  0  0
  9 10  1  0  0  0  0
  9 11  1  0  0  0  0
  9 22  1  0  0  0  0
 11 12  1  0  0  0  0
 11 13  1  0  0  0  0
 11 14  1  0  0  0  0
 14 15  1  0  0  0  0
 14 20  2  0  0  0  0
 15 16  1  0  0  0  0
 15 17  1  0  0  0  0
 17 18  1  0  0  0  0
 17 19  2  0  0  0  0
 19 20  1  0  0  0  0
 20 21  1  0  0  0  0
 22 23  2  0  0  0  0
 22 24  1  0  0  0  0
 24 25  1  0  0  0  0
 24 26  1  0  0  0  0
 26 27  1  0  0  0  0
 26 28  1  0  0  0  0
 26 29  1  0  0  0  0
M  END
$$$$

  -OEChem-01062216083D

 29 29  0     1  0  0  0  0  0999 V2000
   -3.1713   -2.5639    1.1305 H   0  0  0  0  0  0  0  0  0  0  0  0
   -3.1131   -1.6447    0.5412 C   0  0  0  0  0  0  0  0  0  0  0  0
   -3.8565   -0.9370    0.9159 H   0  0  0  0  0  0  0  0  0  0  0  0
   -3.3370   -1.8815   -0.5019 H   0  0  0  0  0  0  0  0  0  0  0  0
   -1.7250   -1.0433    0.6480 C   0  0  0  0  0  0  0  0  0  0  0  0
   -0.8959   -1.5419    1.3944 O   0  0  0  0  0  0  0  0  0  0  0  0
   -1.4122    0.0923   -0.0692 N   0  0  0  0  0  0  0  0  0  0  0  0
   -2.1497    0.5193   -0.6228 H   0  0  0  0  0  0  0  0  0  0  0  0
   -0.0805    0.7168   -0.0749 C   0  0  1  0  0  0  0  0  0  0  0  0
    0.6688    0.0352    0.3400 H   0  0  0  0  0  0  0  0  0  0  0  0
    0.3296    1.0287   -1.5238 C   0  0  0  0  0  0  0  0  0  0  0  0
   -0.4223    1.6762   -1.9883 H   0  0  0  0  0  0  0  0  0  0  0  0
    1.2805    1.5715   -1.5343 H   0  0  0  0  0  0  0  0  0  0  0  0
    0.4714   -0.2420   -2.3216 C   0  0  0  0  0  0  0  0  0  0  0  0
    1.4928   -1.1642   -2.2666 N   0  0  0  0  0  0  0  0  0  0  0  0
    2.2951   -1.1417   -1.6410 H   0  0  0  0  0  0  0  0  0  0  0  0
    1.2264   -2.1627   -3.1847 C   0  0  0  0  0  0  0  0  0  0  0  0
    1.8514   -3.0343   -3.3576 H   0  0  0  0  0  0  0  0  0  0  0  0
    0.1076   -1.9067   -3.8198 N   0  0  0  0  0  0  0  0  0  0  0  0
   -0.3677   -0.7086   -3.2985 C   0  0  0  0  0  0  0  0  0  0  0  0
   -1.2791   -0.2137   -3.6202 H   0  0  0  0  0  0  0  0  0  0  0  0
   -0.0778    1.9973    0.7794 C   0  0  0  0  0  0  0  0  0  0  0  0
   -0.5810    3.0311    0.3560 O   0  0  0  0  0  0  0  0  0  0  0  0
    0.5194    1.9858    2.0258 N   0  0  0  0  0  0  0  0  0  0  0  0
    0.7826    1.0754    2.3970 H   0  0  0  0  0  0  0  0  0  0  0  0
    0.4944    3.1290    2.9296 C   0  0  0  0  0  0  0  0  0  0  0  0
   -0.5368    3.3867    3.1930 H   0  0  0  0  0  0  0  0  0  0  0  0
    1.0399    2.8959    3.8490 H   0  0  0  0  0  0  0  0  0  0  0  0
    0.9662    3.9989    2.4606 H   0  0  0  0  0  0  0  0  0  0  0  0
  1  2  1  0  0  0  0
  2  3  1  0  0  0  0
  2  4  1  0  0  0  0
  2  5  1  0  0  0  0
  5  6  2  0  0  0  0
  5  7  1  0  0  0  0
  7  8  1  0  0  0  0
  7  9  1  0  0  0  0
  9 10  1  0  0  0  0
  9 11  1  0  0  0  0
  9 22  1  0  0  0  0
 11 12  1  0  0  0  0
 11 13  1  0  0  0  0
 11 14  1  0  0  0  0
 14 15  1  0  0  0  0
 14 20  2  0  0  0  0
 15 16  1  0  0  0  0
 15 17  1  0  0  0  0
 17 18  1  0  0  0  0
 17 19  2  0  0  0  0
 19 20  1  0  0  0  0
 20 21  1  0  0  0  0
 22 23  2  0  0  0  0
 22 24  1  0  0  0  0
 24 25  1  0  0  0  0
 24 26  1  0  0  0  0
 26 27  1  0  0  0  0
 26 28  1  0  0  0  0
 26 29  1  0  0  0  0
M  END
$$$$

  -OEChem-01062216083D

 29 29  0     1  0  0  0  0  0999 V2000
   -3.2012   -2.5372    1.1679 H   0  0  0  0  0  0  0  0  0  0  0  0
   -3.1328   -1.6222    0.5732 C   0  0  0  0  0  0  0  0  0  0  0  0
   -3.8426   -0.8909    0.9669 H   0  0  0  0  0  0  0  0  0  0  0  0
   -3.3949   -1.8552   -0.4618 H   0  0  0  0  0  0  0  0  0  0  0  0
   -1.7245   -1.0632    0.6345 C   0  0  0  0  0  0  0  0  0  0  0  0
   -0.8800   -1.6057    1.3313 O   0  0  0  0  0  0  0  0  0  0  0  0
   -1.4067    0.0706   -0.0835 N   0  0  0  0  0  0  0  0  0  0  0  0
   -2.1665    0.5586   -0.5500 H   0  0  0  0  0  0  0  0  0  0  0  0
   -0.0771    0.6998   -0.0799 C   0  0  1  0  0  0  0  0  0  0  0  0
    0.6706    0.0198    0.3399 H   0  0  0  0  0  0  0  0  0  0  0  0
    0.3367    1.0216   -1.5243 C   0  0  0  0  0  0  0  0  0  0  0  0
   -0.4167    1.6694   -1.9859 H   0  0  0  0  0  0  0  0  0  0  0  0
    1.2855    1.5677   -1.5290 H   0  0  0  0  0  0  0  0  0  0  0  0
    0.4858   -0.2437   -2.3299 C   0  0  0  0  0  0  0  0  0  0  0  0
    1.5090   -1.1646   -2.2794 N   0  0  0  0  0  0  0  0  0  0  0  0
    2.3065   -1.1495   -1.6476 H   0  0  0  0  0  0  0  0  0  0  0  0
    1.2441   -2.1586   -3.2027 C   0  0  0  0  0  0  0  0  0  0  0  0
    1.8691   -3.0293   -3.3788 H   0  0  0  0  0  0  0  0  0  0  0  0
    0.1265   -1.9003   -3.8386 N   0  0  0  0  0  0  0  0  0  0  0  0
   -0.3521   -0.7068   -3.3099 C   0  0  0  0  0  0  0  0  0  0  0  0
   -1.2650   -0.2131   -3.6290 H   0  0  0  0  0  0  0  0  0  0  0  0
   -0.0801    1.9849    0.7669 C   0  0  0  0  0  0  0  0  0  0  0  0
   -0.8001    2.9252    0.4525 O   0  0  0  0  0  0  0  0  0  0  0  0
    0.7549    2.0982    1.8629 N   0  0  0  0  0  0  0  0  0  0  0  0
    1.2259    1.2518    2.1721 H   0  0  0  0  0  0  0  0  0  0  0  0
    0.7550    3.2597    2.7438 C   0  0  0  0  0  0  0  0  0  0  0  0
   -0.2246    3.3809    3.2180 H   0  0  0  0  0  0  0  0  0  0  0  0
    1.5082    3.1392    3.5284 H   0  0  0  0  0  0  0  0  0  0  0  0
    0.9882    4.1689    2.1796 H   0  0  0  0  0  0  0  0  0  0  0  0
  1  2  1  0  0  0  0
  2  3  1  0  0  0  0
  2  4  1  0  0  0  0
  2  5  1  0  0  0  0
  5  6  2  0  0  0  0
  5  7  1  0  0  0  0
  7  8  1  0  0  0  0
  7  9  1  0  0  0  0
  9 10  1  0  0  0  0
  9 11  1  0  0  0  0
  9 22  1  0  0  0  0
 11 12  1  0  0  0  0
 11 13  1  0  0  0  0
 11 14  1  0  0  0  0
 14 15  1  0  0  0  0
 14 20  2  0  0  0  0
 15 16  1  0  0  0  0
 15 17  1  0  0  0  0
 17 18  1  0  0  0  0
 17 19  2  0  0  0  0
 19 20  1  0  0  0  0
 20 21  1  0  0  0  0
 22 23  2  0  0  0  0
 22 24  1  0  0  0  0
 24 25  1  0  0  0  0
 24 26  1  0  0  0  0
 26 27  1  0  0  0  0
 26 28  1  0  0  0  0
 26 29  1  0  0  0  0
M  END
$$$$

  -OEChem-01062216083D

 29 29  0     1  0  0  0  0  0999 V2000
   -3.2351   -2.4833    1.2498 H   0  0  0  0  0  0  0  0  0  0  0  0
   -3.1579   -1.5843    0.6320 C   0  0  0  0  0  0  0  0  0  0  0  0
   -3.8156   -0.8154    1.0442 H   0  0  0  0  0  0  0  0  0  0  0  0
   -3.4816   -1.8264   -0.3832 H   0  0  0  0  0  0  0  0  0  0  0  0
   -1.7260   -1.0849    0.6119 C   0  0  0  0  0  0  0  0  0  0  0  0
   -0.8659   -1.6720    1.2509 O   0  0  0  0  0  0  0  0  0  0  0  0
   -1.4072    0.0474   -0.1086 N   0  0  0  0  0  0  0  0  0  0  0  0
   -2.1831    0.5928   -0.4757 H   0  0  0  0  0  0  0  0  0  0  0  0
   -0.0787    0.6808   -0.0915 C   0  0  1  0  0  0  0  0  0  0  0  0
    0.6664    0.0038    0.3381 H   0  0  0  0  0  0  0  0  0  0  0  0
    0.3458    1.0116   -1.5300 C   0  0  0  0  0  0  0  0  0  0  0  0
   -0.4063    1.6606   -1.9922 H   0  0  0  0  0  0  0  0  0  0  0  0
    1.2934    1.5598   -1.5241 H   0  0  0  0  0  0  0  0  0  0  0  0
    0.5061   -0.2464   -2.3443 C   0  0  0  0  0  0  0  0  0  0  0  0
    1.5318   -1.1642   -2.2930 N   0  0  0  0  0  0  0  0  0  0  0  0
    2.3229   -1.1530   -1.6534 H   0  0  0  0  0  0  0  0  0  0  0  0
    1.2782   -2.1515   -3.2269 C   0  0  0  0  0  0  0  0  0  0  0  0
    1.9083   -3.0181   -3.4057 H   0  0  0  0  0  0  0  0  0  0  0  0
    0.1650   -1.8917   -3.8698 N   0  0  0  0  0  0  0  0  0  0  0  0
   -0.3239   -0.7058   -3.3328 C   0  0  0  0  0  0  0  0  0  0  0  0
   -1.2380   -0.2145   -3.6528 H   0  0  0  0  0  0  0  0  0  0  0  0
   -0.0931    1.9702    0.7496 C   0  0  0  0  0  0  0  0  0  0  0  0
   -0.9829    2.7965    0.5829 O   0  0  0  0  0  0  0  0  0  0  0  0
    0.9210    2.2306    1.6529 N   0  0  0  0  0  0  0  0  0  0  0  0
    1.5745    1.4771    1.8482 H   0  0  0  0  0  0  0  0  0  0  0  0
    0.9405    3.4127    2.5063 C   0  0  0  0  0  0  0  0  0  0  0  0
    0.0735    3.4171    3.1754 H   0  0  0  0  0  0  0  0  0  0  0  0
    1.8491    3.4245    3.1159 H   0  0  0  0  0  0  0  0  0  0  0  0
    0.9220    4.3242    1.8993 H   0  0  0  0  0  0  0  0  0  0  0  0
  1  2  1  0  0  0  0
  2  3  1  0  0  0  0
  2  4  1  0  0  0  0
  2  5  1  0  0  0  0
  5  6  2  0  0  0  0
  5  7  1  0  0  0  0
  7  8  1  0  0  0  0
  7  9  1  0  0  0  0
  9 10  1  0  0  0  0
  9 11  1  0  0  0  0
  9 22  1  0  0  0  0
 11 12  1  0  0  0  0
 11 13  1  0  0  0  0
 11 14  1  0  0  0  0
 14 15  1  0  0  0  0
 14 20  2  0  0  0  0
 15 16  1  0  0  0  0
 15 17  1  0  0  0  0
 17 18  1  0  0  0  0
 17 19  2  0  0  0  0
 19 20  1  0  0  0  0
 20 21  1  0  0  0  0
 22 23  2  0  0  0  0
 22 24  1  0  0  0  0
 24 25  1  0  0  0  0
 24 26  1  0  0  0  0
 26 27  1  0  0  0  0
 26 28  1  0  0  0  0
 26 29  1  0  0  0  0
M  END
$$$$

  -OEChem-01062216083D

 29 29  0     1  0  0  0  0  0999 V2000
   -3.2464   -2.4636    1.2802 H   0  0  0  0  0  0  0  0  0  0  0  0
   -3.1696   -1.5656    0.6610 C   0  0  0  0  0  0  0  0  0  0  0  0
   -3.7979   -0.7837    1.0943 H   0  0  0  0  0  0  0  0  0  0  0  0
   -3.5293   -1.7987   -0.3442 H   0  0  0  0  0  0  0  0  0  0  0  0
   -1.7286   -1.0967    0.5967 C   0  0  0  0  0  0  0  0  0  0  0  0
   -0.8604   -1.7107    1.1985 O   0  0  0  0  0  0  0  0  0  0  0  0
   -1.4123    0.0351   -0.1259 N   0  0  0  0  0  0  0  0  0  0  0  0
   -2.1954    0.6107   -0.4260 H   0  0  0  0  0  0  0  0  0  0  0  0
   -0.0859    0.6737   -0.0966 C   0  0  1  0  0  0  0  0  0  0  0  0
    0.6584    0.0010    0.3410 H   0  0  0  0  0  0  0  0  0  0  0  0
    0.3451    1.0066   -1.5324 C   0  0  0  0  0  0  0  0  0  0  0  0
   -0.4080    1.6526   -1.9971 H   0  0  0  0  0  0  0  0  0  0  0  0
    1.2900    1.5590   -1.5225 H   0  0  0  0  0  0  0  0  0  0  0  0
    0.5153   -0.2494   -2.3484 C   0  0  0  0  0  0  0  0  0  0  0  0
    1.5439   -1.1644   -2.2949 N   0  0  0  0  0  0  0  0  0  0  0  0
    2.3273   -1.1579   -1.6457 H   0  0  0  0  0  0  0  0  0  0  0  0
    1.2985   -2.1487   -3.2342 C   0  0  0  0  0  0  0  0  0  0  0  0
    1.9315   -3.0134   -3.4115 H   0  0  0  0  0  0  0  0  0  0  0  0
    0.1897   -1.8886   -3.8842 N   0  0  0  0  0  0  0  0  0  0  0  0
   -0.3066   -0.7072   -3.3443 C   0  0  0  0  0  0  0  0  0  0  0  0
   -1.2194   -0.2165   -3.6685 H   0  0  0  0  0  0  0  0  0  0  0  0
   -0.1083    1.9670    0.7399 C   0  0  0  0  0  0  0  0  0  0  0  0
   -1.1098    2.6742    0.7462 O   0  0  0  0  0  0  0  0  0  0  0  0
    1.0249    2.3861    1.4133 N   0  0  0  0  0  0  0  0  0  0  0  0
    1.8076    1.7398    1.4598 H   0  0  0  0  0  0  0  0  0  0  0  0
    1.0632    3.5925    2.2316 C   0  0  0  0  0  0  0  0  0  0  0  0
    0.3578    3.5123    3.0653 H   0  0  0  0  0  0  0  0  0  0  0  0
    2.0676    3.7411    2.6397 H   0  0  0  0  0  0  0  0  0  0  0  0
    0.8021    4.4711    1.6324 H   0  0  0  0  0  0  0  0  0  0  0  0
  1  2  1  0  0  0  0
  2  3  1  0  0  0  0
  2  4  1  0  0  0  0
  2  5  1  0  0  0  0
  5  6  2  0  0  0  0
  5  7  1  0  0  0  0
  7  8  1  0  0  0  0
  7  9  1  0  0  0  0
  9 10  1  0  0  0  0
  9 11  1  0  0  0  0
  9 22  1  0  0  0  0
 11 12  1  0  0  0  0
 11 13  1  0  0  0  0
 11 14  1  0  0  0  0
 14 15  1  0  0  0  0
 14 20  2  0  0  0  0
 15 16  1  0  0  0  0
 15 17  1  0  0  0  0
 17 18  1  0  0  0  0
 17 19  2  0  0  0  0
 19 20  1  0  0  0  0
 20 21  1  0  0  0  0
 22 23  2  0  0  0  0
 22 24  1  0  0  0  0
 24 25  1  0  0  0  0
 24 26  1  0  0  0  0
 26 27  1  0  0  0  0
 26 28  1  0  0  0  0
 26 29  1  0  0  0  0
M  END
$$$$

  -OEChem-01062216083D

 29 29  0     1  0  0  0  0  0999 V2000
   -3.2463   -2.4449    1.3083 H   0  0  0  0  0  0  0  0  0  0  0  0
   -3.1745   -1.5482    0.6866 C   0  0  0  0  0  0  0  0  0  0  0  0
   -3.7731   -0.7553    1.1415 H   0  0  0  0  0  0  0  0  0  0  0  0
   -3.5731   -1.7743   -0.3052 H   0  0  0  0  0  0  0  0  0  0  0  0
   -1.7286   -1.1044    0.5731 C   0  0  0  0  0  0  0  0  0  0  0  0
   -0.8509   -1.7435    1.1339 O   0  0  0  0  0  0  0  0  0  0  0  0
   -1.4204    0.0308   -0.1483 N   0  0  0  0  0  0  0  0  0  0  0  0
   -2.2090    0.6261   -0.3897 H   0  0  0  0  0  0  0  0  0  0  0  0
   -0.0956    0.6741   -0.1065 C   0  0  1  0  0  0  0  0  0  0  0  0
    0.6479    0.0061    0.3389 H   0  0  0  0  0  0  0  0  0  0  0  0
    0.3432    1.0051   -1.5412 C   0  0  0  0  0  0  0  0  0  0  0  0
   -0.4099    1.6465   -2.0118 H   0  0  0  0  0  0  0  0  0  0  0  0
    1.2867    1.5596   -1.5304 H   0  0  0  0  0  0  0  0  0  0  0  0
    0.5225   -0.2522   -2.3525 C   0  0  0  0  0  0  0  0  0  0  0  0
    1.5528   -1.1650   -2.2916 N   0  0  0  0  0  0  0  0  0  0  0  0
    2.3267   -1.1622   -1.6312 H   0  0  0  0  0  0  0  0  0  0  0  0
    1.3154   -2.1505   -3.2316 C   0  0  0  0  0  0  0  0  0  0  0  0
    1.9500   -3.0153   -3.4029 H   0  0  0  0  0  0  0  0  0  0  0  0
    0.2118   -1.8917   -3.8910 N   0  0  0  0  0  0  0  0  0  0  0  0
   -0.2910   -0.7118   -3.3544 C   0  0  0  0  0  0  0  0  0  0  0  0
   -1.2023   -0.2229   -3.6851 H   0  0  0  0  0  0  0  0  0  0  0  0
   -0.1245    1.9678    0.7330 C   0  0  0  0  0  0  0  0  0  0  0  0
   -1.1867    2.5423    0.9455 O   0  0  0  0  0  0  0  0  0  0  0  0
    1.0554    2.5531    1.1573 N   0  0  0  0  0  0  0  0  0  0  0  0
    1.9146    2.0274    1.0252 H   0  0  0  0  0  0  0  0  0  0  0  0
    1.0982    3.7802    1.9440 C   0  0  0  0  0  0  0  0  0  0  0  0
    0.5924    3.6374    2.9047 H   0  0  0  0  0  0  0  0  0  0  0  0
    2.1355    4.0696    2.1379 H   0  0  0  0  0  0  0  0  0  0  0  0
    0.6077    4.5983    1.4060 H   0  0  0  0  0  0  0  0  0  0  0  0
  1  2  1  0  0  0  0
  2  3  1  0  0  0  0
  2  4  1  0  0  0  0
  2  5  1  0  0  0  0
  5  6  2  0  0  0  0
  5  7  1  0  0  0  0
  7  8  1  0  0  0  0
  7  9  1  0  0  0  0
  9 10  1  0  0  0  0
  9 11  1  0  0  0  0
  9 22  1  0  0  0  0
 11 12  1  0  0  0  0
 11 13  1  0  0  0  0
 11 14  1  0  0  0  0
 14 15  1  0  0  0  0
 14 20  2  0  0  0  0
 15 16  1  0  0  0  0
 15 17  1  0  0  0  0
 17 18  1  0  0  0  0
 17 19  2  0  0  0  0
 19 20  1  0  0  0  0
 20 21  1  0  0  0  0
 22 23  2  0  0  0  0
 22 24  1  0  0  0  0
 24 25  1  0  0  0  0
 24 26  1  0  0  0  0
 26 27  1  0  0  0  0
 26 28  1  0  0  0  0
 26 29  1  0  0  0  0
M  END
$$$$

  -OEChem-01062216083D

 29 29  0     1  0  0  0  0  0999 V2000
   -3.1967   -2.4400    1.3563 H   0  0  0  0  0  0  0  0  0  0  0  0
   -3.1533   -1.5410    0.7353 C   0  0  0  0  0  0  0  0  0  0  0  0
   -3.7145   -0.7444    1.2298 H   0  0  0  0  0  0  0  0  0  0  0  0
   -3.6132   -1.7579   -0.2319 H   0  0  0  0  0  0  0  0  0  0  0  0
   -1.7123   -1.1115    0.5382 C   0  0  0  0  0  0  0  0  0  0  0  0
   -0.8073   -1.7785    1.0176 O   0  0  0  0  0  0  0  0  0  0  0  0
   -1.4349    0.0326   -0.1825 N   0  0  0  0  0  0  0  0  0  0  0  0
   -2.2342    0.6372   -0.3497 H   0  0  0  0  0  0  0  0  0  0  0  0
   -0.1115    0.6794   -0.1336 C   0  0  1  0  0  0  0  0  0  0  0  0
    0.6713   -0.0634    0.0517 H   0  0  0  0  0  0  0  0  0  0  0  0
    0.1599    1.3367   -1.4975 C   0  0  0  0  0  0  0  0  0  0  0  0
   -0.6407    2.0497   -1.7221 H   0  0  0  0  0  0  0  0  0  0  0  0
    1.1000    1.8959   -1.4726 H   0  0  0  0  0  0  0  0  0  0  0  0
    0.2432    0.3002   -2.5883 C   0  0  0  0  0  0  0  0  0  0  0  0
    1.2738   -0.5757   -2.8508 N   0  0  0  0  0  0  0  0  0  0  0  0
    2.1205   -0.6978   -2.3000 H   0  0  0  0  0  0  0  0  0  0  0  0
    0.9325   -1.3283   -3.9593 C   0  0  0  0  0  0  0  0  0  0  0  0
    1.5440   -2.1150   -4.3919 H   0  0  0  0  0  0  0  0  0  0  0  0
   -0.2384   -0.9553   -4.4169 N   0  0  0  0  0  0  0  0  0  0  0  0
   -0.6777    0.0594   -3.5739 C   0  0  0  0  0  0  0  0  0  0  0  0
   -1.6197    0.5883   -3.6842 H   0  0  0  0  0  0  0  0  0  0  0  0
   -0.0297    1.7361    0.9929 C   0  0  0  0  0  0  0  0  0  0  0  0
   -1.0342    2.0578    1.6183 O   0  0  0  0  0  0  0  0  0  0  0  0
    1.1371    2.4519    1.2015 N   0  0  0  0  0  0  0  0  0  0  0  0
    1.9719    2.1402    0.7145 H   0  0  0  0  0  0  0  0  0  0  0  0
    1.2677    3.4857    2.2224 C   0  0  0  0  0  0  0  0  0  0  0  0
    1.1145    3.0610    3.2201 H   0  0  0  0  0  0  0  0  0  0  0  0
    2.2667    3.9304    2.1847 H   0  0  0  0  0  0  0  0  0  0  0  0
    0.5315    4.2801    2.0611 H   0  0  0  0  0  0  0  0  0  0  0  0
  1  2  1  0  0  0  0
  2  3  1  0  0  0  0
  2  4  1  0  0  0  0
  2  5  1  0  0  0  0
  5  6  2  0  0  0  0
  5  7  1  0  0  0  0
  7  8  1  0  0  0  0
  7  9  1  0  0  0  0
  9 10  1  0  0  0  0
  9 11  1  0  0  0  0
  9 22  1  0  0  0  0
 11 12  1  0  0  0  0
 11 13  1  0  0  0  0
 11 14  1  0  0  0  0
 14 15  1  0  0  0  0
 14 20  2  0  0  0  0
 15 16  1  0  0  0  0
 15 17  1  0  0  0  0
 17 18  1  0  0  0  0
 17 19  2  0  0  0  0
 19 20  1  0  0  0  0
 20 21  1  0  0  0  0
 22 23  2  0  0  0  0
 22 24  1  0  0  0  0
 24 25  1  0  0  0  0
 24 26  1  0  0  0  0
 26 27  1  0  0  0  0
 26 28  1  0  0  0  0
 26 29  1  0  0  0  0
M  END
$$$$

  -OEChem-01062216083D

 29 29  0     1  0  0  0  0  0999 V2000
   -3.1791   -2.4222    1.3719 H   0  0  0  0  0  0  0  0  0  0  0  0
   -3.1454   -1.5178    0.7579 C   0  0  0  0  0  0  0  0  0  0  0  0
   -3.6770   -0.7186    1.2804 H   0  0  0  0  0  0  0  0  0  0  0  0
   -3.6426   -1.7184   -0.1941 H   0  0  0  0  0  0  0  0  0  0  0  0
   -1.7063   -1.1061    0.5142 C   0  0  0  0  0  0  0  0  0  0  0  0
   -0.7956   -1.7975    0.9453 O   0  0  0  0  0  0  0  0  0  0  0  0
   -1.4384    0.0443   -0.2011 N   0  0  0  0  0  0  0  0  0  0  0  0
   -2.2406    0.6504   -0.3440 H   0  0  0  0  0  0  0  0  0  0  0  0
   -0.1156    0.6938   -0.1492 C   0  0  1  0  0  0  0  0  0  0  0  0
    0.6695   -0.0460    0.0385 H   0  0  0  0  0  0  0  0  0  0  0  0
    0.1543    1.3375   -1.5218 C   0  0  0  0  0  0  0  0  0  0  0  0
   -0.6479    2.0460   -1.7549 H   0  0  0  0  0  0  0  0  0  0  0  0
    1.0943    1.8964   -1.5085 H   0  0  0  0  0  0  0  0  0  0  0  0
    0.2419    0.2892   -2.6007 C   0  0  0  0  0  0  0  0  0  0  0  0
    1.2765   -0.5853   -2.8519 N   0  0  0  0  0  0  0  0  0  0  0  0
    2.1193   -0.7039   -2.2940 H   0  0  0  0  0  0  0  0  0  0  0  0
    0.9410   -1.3489   -3.9545 C   0  0  0  0  0  0  0  0  0  0  0  0
    1.5573   -2.1365   -4.3786 H   0  0  0  0  0  0  0  0  0  0  0  0
   -0.2302   -0.9848   -4.4185 N   0  0  0  0  0  0  0  0  0  0  0  0
   -0.6762    0.0348   -3.5854 C   0  0  0  0  0  0  0  0  0  0  0  0
   -1.6200    0.5589   -3.7025 H   0  0  0  0  0  0  0  0  0  0  0  0
   -0.0354    1.7447    0.9870 C   0  0  0  0  0  0  0  0  0  0  0  0
   -0.9580    1.8704    1.7844 O   0  0  0  0  0  0  0  0  0  0  0  0
    0.9891    2.6765    1.0252 N   0  0  0  0  0  0  0  0  0  0  0  0
    1.7691    2.5438    0.3891 H   0  0  0  0  0  0  0  0  0  0  0  0
    1.0912    3.7107    2.0490 C   0  0  0  0  0  0  0  0  0  0  0  0
    1.1807    3.2588    3.0425 H   0  0  0  0  0  0  0  0  0  0  0  0
    1.9731    4.3335    1.8712 H   0  0  0  0  0  0  0  0  0  0  0  0
    0.2059    4.3552    2.0334 H   0  0  0  0  0  0  0  0  0  0  0  0
  1  2  1  0  0  0  0
  2  3  1  0  0  0  0
  2  4  1  0  0  0  0
  2  5  1  0  0  0  0
  5  6  2  0  0  0  0
  5  7  1  0  0  0  0
  7  8  1  0  0  0  0
  7  9  1  0  0  0  0
  9 10  1  0  0  0  0
  9 11  1  0  0  0  0
  9 22  1  0  0  0  0
 11 12  1  0  0  0  0
 11 13  1  0  0  0  0
 11 14  1  0  0  0  0
 14 15  1  0  0  0  0
 14 20  2  0  0  0  0
 15 16  1  0  0  0  0
 15 17  1  0  0  0  0
 17 18  1  0  0  0  0
 17 19  2  0  0  0  0
 19 20  1  0  0  0  0
 20 21  1  0  0  0  0
 22 23  2  0  0  0  0
 22 24  1  0  0  0  0
 24 25  1  0  0  0  0
 24 26  1  0  0  0  0
 26 27  1  0  0  0  0
 26 28  1  0  0  0  0
 26 29  1  0  0  0  0
M  END
$$$$

  -OEChem-01062216083D

 29 29  0     1  0  0  0  0  0999 V2000
   -3.1683   -2.4324    1.3486 H   0  0  0  0  0  0  0  0  0  0  0  0
   -3.1408   -1.5078    0.7654 C   0  0  0  0  0  0  0  0  0  0  0  0
   -3.6562   -0.7237    1.3252 H   0  0  0  0  0  0  0  0  0  0  0  0
   -3.6581   -1.6727   -0.1826 H   0  0  0  0  0  0  0  0  0  0  0  0
   -1.7039   -1.0969    0.5071 C   0  0  0  0  0  0  0  0  0  0  0  0
   -0.7901   -1.8032    0.9063 O   0  0  0  0  0  0  0  0  0  0  0  0
   -1.4437    0.0590   -0.2035 N   0  0  0  0  0  0  0  0  0  0  0  0
   -2.2492    0.6612   -0.3410 H   0  0  0  0  0  0  0  0  0  0  0  0
   -0.1209    0.7099   -0.1603 C   0  0  1  0  0  0  0  0  0  0  0  0
    0.6641   -0.0297    0.0282 H   0  0  0  0  0  0  0  0  0  0  0  0
    0.1509    1.3371   -1.5409 C   0  0  0  0  0  0  0  0  0  0  0  0
   -0.6486    2.0456   -1.7833 H   0  0  0  0  0  0  0  0  0  0  0  0
    1.0946    1.8895   -1.5342 H   0  0  0  0  0  0  0  0  0  0  0  0
    0.2395    0.2765   -2.6077 C   0  0  0  0  0  0  0  0  0  0  0  0
    1.2752   -0.6004   -2.8461 N   0  0  0  0  0  0  0  0  0  0  0  0
    2.1113   -0.7193   -2.2781 H   0  0  0  0  0  0  0  0  0  0  0  0
    0.9461   -1.3725   -3.9447 C   0  0  0  0  0  0  0  0  0  0  0  0
    1.5634   -2.1651   -4.3579 H   0  0  0  0  0  0  0  0  0  0  0  0
   -0.2211   -1.0096   -4.4201 N   0  0  0  0  0  0  0  0  0  0  0  0
   -0.6717    0.0163   -3.5974 C   0  0  0  0  0  0  0  0  0  0  0  0
   -1.6129    0.5421   -3.7271 H   0  0  0  0  0  0  0  0  0  0  0  0
   -0.0355    1.7544    0.9842 C   0  0  0  0  0  0  0  0  0  0  0  0
   -0.8040    1.6945    1.9365 O   0  0  0  0  0  0  0  0  0  0  0  0
    0.7777    2.8724    0.8844 N   0  0  0  0  0  0  0  0  0  0  0  0
    1.4256    2.9171    0.1046 H   0  0  0  0  0  0  0  0  0  0  0  0
    0.8465    3.9085    1.9089 C   0  0  0  0  0  0  0  0  0  0  0  0
    1.1805    3.4834    2.8612 H   0  0  0  0  0  0  0  0  0  0  0  0
    1.5535    4.6889    1.6114 H   0  0  0  0  0  0  0  0  0  0  0  0
   -0.1356    4.3707    2.0541 H   0  0  0  0  0  0  0  0  0  0  0  0
  1  2  1  0  0  0  0
  2  3  1  0  0  0  0
  2  4  1  0  0  0  0
  2  5  1  0  0  0  0
  5  6  2  0  0  0  0
  5  7  1  0  0  0  0
  7  8  1  0  0  0  0
  7  9  1  0  0  0  0
  9 10  1  0  0  0  0
  9 11  1  0  0  0  0
  9 22  1  0  0  0  0
 11 12  1  0  0  0  0
 11 13  1  0  0  0  0
 11 14  1  0  0  0  0
 14 15  1  0  0  0  0
 14 20  2  0  0  0  0
 15 16  1  0  0  0  0
 15 17  1  0  0  0  0
 17 18  1  0  0  0  0
 17 19  2  0  0  0  0
 19 20  1  0  0  0  0
 20 21  1  0  0  0  0
 22 23  2  0  0  0  0
 22 24  1  0  0  0  0
 24 25  1  0  0  0  0
 24 26  1  0  0  0  0
 26 27  1  0  0  0  0
 26 28  1  0  0  0  0
 26 29  1  0  0  0  0
M  END
$$$$

  -OEChem-01062216083D

 29 29  0     1  0  0  0  0  0999 V2000
   -3.1602   -2.4186    1.3653 H   0  0  0  0  0  0  0  0  0  0  0  0
   -3.1389   -1.4991    0.7738 C   0  0  0  0  0  0  0  0  0  0  0  0
   -3.6510   -0.7113    1.3315 H   0  0  0  0  0  0  0  0  0  0  0  0
   -3.6635   -1.6732   -0.1685 H   0  0  0  0  0  0  0  0  0  0  0  0
   -1.7045   -1.0890    0.5000 C   0  0  0  0  0  0  0  0  0  0  0  0
   -0.7887   -1.8063    0.8731 O   0  0  0  0  0  0  0  0  0  0  0  0
   -1.4503    0.0705   -0.2081 N   0  0  0  0  0  0  0  0  0  0  0  0
   -2.2592    0.6650   -0.3558 H   0  0  0  0  0  0  0  0  0  0  0  0
   -0.1283    0.7244   -0.1737 C   0  0  1  0  0  0  0  0  0  0  0  0
    0.6570   -0.0141    0.0185 H   0  0  0  0  0  0  0  0  0  0  0  0
    0.1507    1.3414   -1.5571 C   0  0  0  0  0  0  0  0  0  0  0  0
   -0.6460    2.0485   -1.8109 H   0  0  0  0  0  0  0  0  0  0  0  0
    1.0972    1.8900   -1.5470 H   0  0  0  0  0  0  0  0  0  0  0  0
    0.2434    0.2717   -2.6138 C   0  0  0  0  0  0  0  0  0  0  0  0
    1.2796   -0.6080   -2.8389 N   0  0  0  0  0  0  0  0  0  0  0  0
    2.1109   -0.7244   -2.2631 H   0  0  0  0  0  0  0  0  0  0  0  0
    0.9545   -1.3911   -3.9309 C   0  0  0  0  0  0  0  0  0  0  0  0
    1.5728   -2.1888   -4.3327 H   0  0  0  0  0  0  0  0  0  0  0  0
   -0.2098   -1.0309   -4.4158 N   0  0  0  0  0  0  0  0  0  0  0  0
   -0.6633    0.0034   -3.6052 C   0  0  0  0  0  0  0  0  0  0  0  0
   -1.6035    0.5289   -3.7433 H   0  0  0  0  0  0  0  0  0  0  0  0
   -0.0419    1.7638    0.9749 C   0  0  0  0  0  0  0  0  0  0  0  0
   -0.5960    1.5472    2.0447 O   0  0  0  0  0  0  0  0  0  0  0  0
    0.5053    3.0228    0.7805 N   0  0  0  0  0  0  0  0  0  0  0  0
    0.9557    3.2115   -0.1091 H   0  0  0  0  0  0  0  0  0  0  0  0
    0.5478    4.0491    1.8167 C   0  0  0  0  0  0  0  0  0  0  0  0
    1.1201    3.6970    2.6815 H   0  0  0  0  0  0  0  0  0  0  0  0
    1.0251    4.9555    1.4322 H   0  0  0  0  0  0  0  0  0  0  0  0
   -0.4649    4.3059    2.1453 H   0  0  0  0  0  0  0  0  0  0  0  0
  1  2  1  0  0  0  0
  2  3  1  0  0  0  0
  2  4  1  0  0  0  0
  2  5  1  0  0  0  0
  5  6  2  0  0  0  0
  5  7  1  0  0  0  0
  7  8  1  0  0  0  0
  7  9  1  0  0  0  0
  9 10  1  0  0  0  0
  9 11  1  0  0  0  0
  9 22  1  0  0  0  0
 11 12  1  0  0  0  0
 11 13  1  0  0  0  0
 11 14  1  0  0  0  0
 14 15  1  0  0  0  0
 14 20  2  0  0  0  0
 15 16  1  0  0  0  0
 15 17  1  0  0  0  0
 17 18  1  0  0  0  0
 17 19  2  0  0  0  0
 19 20  1  0  0  0  0
 20 21  1  0  0  0  0
 22 23  2  0  0  0  0
 22 24  1  0  0  0  0
 24 25  1  0  0  0  0
 24 26  1  0  0  0  0
 26 27  1  0  0  0  0
 26 28  1  0  0  0  0
 26 29  1  0  0  0  0
M  END
$$$$

  -OEChem-01062216083D

 29 29  0     1  0  0  0  0  0999 V2000
   -3.1670   -2.4226    1.3596 H   0  0  0  0  0  0  0  0  0  0  0  0
   -3.1450   -1.5070    0.7618 C   0  0  0  0  0  0  0  0  0  0  0  0
   -3.6727   -0.7202    1.3059 H   0  0  0  0  0  0  0  0  0  0  0  0
   -3.6538   -1.6927   -0.1870 H   0  0  0  0  0  0  0  0  0  0  0  0
   -1.7104   -1.0856    0.5065 C   0  0  0  0  0  0  0  0  0  0  0  0
   -0.7949   -1.8011    0.8821 O   0  0  0  0  0  0  0  0  0  0  0  0
   -1.4579    0.0754   -0.2000 N   0  0  0  0  0  0  0  0  0  0  0  0
   -2.2708    0.6545   -0.3819 H   0  0  0  0  0  0  0  0  0  0  0  0
   -0.1393    0.7354   -0.1748 C   0  0  1  0  0  0  0  0  0  0  0  0
    0.6475   -0.0016    0.0188 H   0  0  0  0  0  0  0  0  0  0  0  0
    0.1435    1.3475   -1.5587 C   0  0  0  0  0  0  0  0  0  0  0  0
   -0.6544    2.0499   -1.8212 H   0  0  0  0  0  0  0  0  0  0  0  0
    1.0880    1.9004   -1.5404 H   0  0  0  0  0  0  0  0  0  0  0  0
    0.2429    0.2738   -2.6103 C   0  0  0  0  0  0  0  0  0  0  0  0
    1.2833   -0.6032   -2.8256 N   0  0  0  0  0  0  0  0  0  0  0  0
    2.1137   -0.7110   -2.2466 H   0  0  0  0  0  0  0  0  0  0  0  0
    0.9658   -1.3953   -3.9134 C   0  0  0  0  0  0  0  0  0  0  0  0
    1.5882   -2.1942   -4.3067 H   0  0  0  0  0  0  0  0  0  0  0  0
   -0.1978   -1.0425   -4.4057 N   0  0  0  0  0  0  0  0  0  0  0  0
   -0.6584   -0.0046   -3.6039 C   0  0  0  0  0  0  0  0  0  0  0  0
   -1.6005    0.5155   -3.7495 H   0  0  0  0  0  0  0  0  0  0  0  0
   -0.0488    1.7741    0.9717 C   0  0  0  0  0  0  0  0  0  0  0  0
   -0.3304    1.4523    2.1174 O   0  0  0  0  0  0  0  0  0  0  0  0
    0.1978    3.1155    0.7215 N   0  0  0  0  0  0  0  0  0  0  0  0
    0.4103    3.3891   -0.2324 H   0  0  0  0  0  0  0  0  0  0  0  0
    0.2284    4.1345    1.7653 C   0  0  0  0  0  0  0  0  0  0  0  0
    1.0093    3.9078    2.4989 H   0  0  0  0  0  0  0  0  0  0  0  0
    0.4379    5.1164    1.3302 H   0  0  0  0  0  0  0  0  0  0  0  0
   -0.7361    4.1848    2.2816 H   0  0  0  0  0  0  0  0  0  0  0  0
  1  2  1  0  0  0  0
  2  3  1  0  0  0  0
  2  4  1  0  0  0  0
  2  5  1  0  0  0  0
  5  6  2  0  0  0  0
  5  7  1  0  0  0  0
  7  8  1  0  0  0  0
  7  9  1  0  0  0  0
  9 10  1  0  0  0  0
  9 11  1  0  0  0  0
  9 22  1  0  0  0  0
 11 12  1  0  0  0  0
 11 13  1  0  0  0  0
 11 14  1  0  0  0  0
 14 15  1  0  0  0  0
 14 20  2  0  0  0  0
 15 16  1  0  0  0  0
 15 17  1  0  0  0  0
 17 18  1  0  0  0  0
 17 19  2  0  0  0  0
 19 20  1  0  0  0  0
 20 21  1  0  0  0  0
 22 23  2  0  0  0  0
 22 24  1  0  0  0  0
 24 25  1  0  0  0  0
 24 26  1  0  0  0  0
 26 27  1  0  0  0  0
 26 28  1  0  0  0  0
 26 29  1  0  0  0  0
M  END
$$$$

  -OEChem-01062216083D

 29 29  0     1  0  0  0  0  0999 V2000
   -3.1820   -2.4513    1.3271 H   0  0  0  0  0  0  0  0  0  0  0  0
   -3.1569   -1.5368    0.7275 C   0  0  0  0  0  0  0  0  0  0  0  0
   -3.7221   -0.7604    1.2484 H   0  0  0  0  0  0  0  0  0  0  0  0
   -3.6250   -1.7365   -0.2393 H   0  0  0  0  0  0  0  0  0  0  0  0
   -1.7227   -1.0856    0.5255 C   0  0  0  0  0  0  0  0  0  0  0  0
   -0.8091   -1.7789    0.9422 O   0  0  0  0  0  0  0  0  0  0  0  0
   -1.4673    0.0746   -0.1810 N   0  0  0  0  0  0  0  0  0  0  0  0
   -2.2812    0.6287   -0.4250 H   0  0  0  0  0  0  0  0  0  0  0  0
   -0.1528    0.7426   -0.1639 C   0  0  1  0  0  0  0  0  0  0  0  0
    0.6355    0.0067    0.0297 H   0  0  0  0  0  0  0  0  0  0  0  0
    0.1296    1.3542   -1.5469 C   0  0  0  0  0  0  0  0  0  0  0  0
   -0.6726    2.0492   -1.8152 H   0  0  0  0  0  0  0  0  0  0  0  0
    1.0693    1.9161   -1.5228 H   0  0  0  0  0  0  0  0  0  0  0  0
    0.2358    0.2799   -2.5969 C   0  0  0  0  0  0  0  0  0  0  0  0
    1.2824   -0.5908   -2.8062 N   0  0  0  0  0  0  0  0  0  0  0  0
    2.1111   -0.6917   -2.2231 H   0  0  0  0  0  0  0  0  0  0  0  0
    0.9752   -1.3856   -3.8949 C   0  0  0  0  0  0  0  0  0  0  0  0
    1.6054   -2.1797   -4.2853 H   0  0  0  0  0  0  0  0  0  0  0  0
   -0.1895   -1.0422   -4.3914 N   0  0  0  0  0  0  0  0  0  0  0  0
   -0.6598   -0.0060   -3.5933 C   0  0  0  0  0  0  0  0  0  0  0  0
   -1.6044    0.5078   -3.7436 H   0  0  0  0  0  0  0  0  0  0  0  0
   -0.0577    1.7854    0.9754 C   0  0  0  0  0  0  0  0  0  0  0  0
   -0.0157    1.4238    2.1418 O   0  0  0  0  0  0  0  0  0  0  0  0
   -0.1266    3.1460    0.7173 N   0  0  0  0  0  0  0  0  0  0  0  0
   -0.1747    3.4439   -0.2516 H   0  0  0  0  0  0  0  0  0  0  0  0
   -0.0875    4.1631    1.7622 C   0  0  0  0  0  0  0  0  0  0  0  0
    0.8542    4.1045    2.3182 H   0  0  0  0  0  0  0  0  0  0  0  0
   -0.1676    5.1617    1.3223 H   0  0  0  0  0  0  0  0  0  0  0  0
   -0.9190    4.0265    2.4618 H   0  0  0  0  0  0  0  0  0  0  0  0
  1  2  1  0  0  0  0
  2  3  1  0  0  0  0
  2  4  1  0  0  0  0
  2  5  1  0  0  0  0
  5  6  2  0  0  0  0
  5  7  1  0  0  0  0
  7  8  1  0  0  0  0
  7  9  1  0  0  0  0
  9 10  1  0  0  0  0
  9 11  1  0  0  0  0
  9 22  1  0  0  0  0
 11 12  1  0  0  0  0
 11 13  1  0  0  0  0
 11 14  1  0  0  0  0
 14 15  1  0  0  0  0
 14 20  2  0  0  0  0
 15 16  1  0  0  0  0
 15 17  1  0  0  0  0
 17 18  1  0  0  0  0
 17 19  2  0  0  0  0
 19 20  1  0  0  0  0
 20 21  1  0  0  0  0
 22 23  2  0  0  0  0
 22 24  1  0  0  0  0
 24 25  1  0  0  0  0
 24 26  1  0  0  0  0
 26 27  1  0  0  0  0
 26 28  1  0  0  0  0
 26 29  1  0  0  0  0
M  END
$$$$

  -OEChem-01062216083D

 29 29  0     1  0  0  0  0  0999 V2000
   -3.1992   -2.5275    1.2306 H   0  0  0  0  0  0  0  0  0  0  0  0
   -3.1643   -1.6190    0.6228 C   0  0  0  0  0  0  0  0  0  0  0  0
   -3.8266   -0.8733    1.0685 H   0  0  0  0  0  0  0  0  0  0  0  0
   -3.5149   -1.8565   -0.3844 H   0  0  0  0  0  0  0  0  0  0  0  0
   -1.7454   -1.0854    0.5645 C   0  0  0  0  0  0  0  0  0  0  0  0
   -0.8454   -1.7107    1.0984 O   0  0  0  0  0  0  0  0  0  0  0  0
   -1.4826    0.0742   -0.1396 N   0  0  0  0  0  0  0  0  0  0  0  0
   -2.2828    0.5557   -0.5352 H   0  0  0  0  0  0  0  0  0  0  0  0
   -0.1738    0.7541   -0.1331 C   0  0  1  0  0  0  0  0  0  0  0  0
    0.6174    0.0195    0.0549 H   0  0  0  0  0  0  0  0  0  0  0  0
    0.0993    1.3700   -1.5158 C   0  0  0  0  0  0  0  0  0  0  0  0
   -0.7079    2.0590   -1.7835 H   0  0  0  0  0  0  0  0  0  0  0  0
    1.0336    1.9414   -1.4913 H   0  0  0  0  0  0  0  0  0  0  0  0
    0.2095    0.2942   -2.5638 C   0  0  0  0  0  0  0  0  0  0  0  0
    1.2636   -0.5672   -2.7713 N   0  0  0  0  0  0  0  0  0  0  0  0
    2.1007   -0.6477   -2.1969 H   0  0  0  0  0  0  0  0  0  0  0  0
    0.9595   -1.3735   -3.8521 C   0  0  0  0  0  0  0  0  0  0  0  0
    1.5966   -2.1630   -4.2403 H   0  0  0  0  0  0  0  0  0  0  0  0
   -0.2122   -1.0469   -4.3442 N   0  0  0  0  0  0  0  0  0  0  0  0
   -0.6876   -0.0071   -3.5543 C   0  0  0  0  0  0  0  0  0  0  0  0
   -1.6382    0.4962   -3.7040 H   0  0  0  0  0  0  0  0  0  0  0  0
   -0.0662    1.8035    0.9961 C   0  0  0  0  0  0  0  0  0  0  0  0
    0.3691    1.4929    2.0945 O   0  0  0  0  0  0  0  0  0  0  0  0
   -0.4454    3.1202    0.7872 N   0  0  0  0  0  0  0  0  0  0  0  0
   -0.8049    3.3715   -0.1275 H   0  0  0  0  0  0  0  0  0  0  0  0
   -0.3459    4.1537    1.8118 C   0  0  0  0  0  0  0  0  0  0  0  0
    0.6930    4.2707    2.1382 H   0  0  0  0  0  0  0  0  0  0  0  0
   -0.6938    5.1133    1.4177 H   0  0  0  0  0  0  0  0  0  0  0  0
   -0.9603    3.8929    2.6801 H   0  0  0  0  0  0  0  0  0  0  0  0
  1  2  1  0  0  0  0
  2  3  1  0  0  0  0
  2  4  1  0  0  0  0
  2  5  1  0  0  0  0
  5  6  2  0  0  0  0
  5  7  1  0  0  0  0
  7  8  1  0  0  0  0
  7  9  1  0  0  0  0
  9 10  1  0  0  0  0
  9 11  1  0  0  0  0
  9 22  1  0  0  0  0
 11 12  1  0  0  0  0
 11 13  1  0  0  0  0
 11 14  1  0  0  0  0
 14 15  1  0  0  0  0
 14 20  2  0  0  0  0
 15 16  1  0  0  0  0
 15 17  1  0  0  0  0
 17 18  1  0  0  0  0
 17 19  2  0  0  0  0
 19 20  1  0  0  0  0
 20 21  1  0  0  0  0
 22 23  2  0  0  0  0
 22 24  1  0  0  0  0
 24 25  1  0  0  0  0
 24 26  1  0  0  0  0
 26 27  1  0  0  0  0
 26 28  1  0  0  0  0
 26 29  1  0  0  0  0
M  END
$$$$

  -OEChem-01062216083D

 29 29  0     1  0  0  0  0  0999 V2000
   -3.1768   -2.6373    1.0875 H   0  0  0  0  0  0  0  0  0  0  0  0
   -3.1341   -1.7320    0.4753 C   0  0  0  0  0  0  0  0  0  0  0  0
   -3.9339   -1.0573    0.7895 H   0  0  0  0  0  0  0  0  0  0  0  0
   -3.2865   -2.0081   -0.5709 H   0  0  0  0  0  0  0  0  0  0  0  0
   -1.7873   -1.0536    0.6414 C   0  0  0  0  0  0  0  0  0  0  0  0
   -0.9529   -1.5422    1.3825 O   0  0  0  0  0  0  0  0  0  0  0  0
   -1.5099    0.0940   -0.0754 N   0  0  0  0  0  0  0  0  0  0  0  0
   -2.2011    0.3765   -0.7619 H   0  0  0  0  0  0  0  0  0  0  0  0
   -0.1932    0.7582   -0.0803 C   0  0  1  0  0  0  0  0  0  0  0  0
    0.5867    0.0100    0.1033 H   0  0  0  0  0  0  0  0  0  0  0  0
    0.0807    1.3794   -1.4591 C   0  0  0  0  0  0  0  0  0  0  0  0
   -0.7143    2.0860   -1.7171 H   0  0  0  0  0  0  0  0  0  0  0  0
    1.0239    1.9359   -1.4334 H   0  0  0  0  0  0  0  0  0  0  0  0
    0.1694    0.3078   -2.5134 C   0  0  0  0  0  0  0  0  0  0  0  0
    1.2104   -0.5672   -2.7310 N   0  0  0  0  0  0  0  0  0  0  0  0
    2.0564   -0.6524   -2.1698 H   0  0  0  0  0  0  0  0  0  0  0  0
    0.8911   -1.3619   -3.8161 C   0  0  0  0  0  0  0  0  0  0  0  0
    1.5162   -2.1566   -4.2135 H   0  0  0  0  0  0  0  0  0  0  0  0
   -0.2799   -1.0177   -4.2982 N   0  0  0  0  0  0  0  0  0  0  0  0
   -0.7338    0.0281   -3.5043 C   0  0  0  0  0  0  0  0  0  0  0  0
   -1.6750    0.5493   -3.6506 H   0  0  0  0  0  0  0  0  0  0  0  0
   -0.0603    1.8186    1.0336 C   0  0  0  0  0  0  0  0  0  0  0  0
    0.7408    1.6627    1.9435 O   0  0  0  0  0  0  0  0  0  0  0  0
   -0.6992    3.0427    0.9182 N   0  0  0  0  0  0  0  0  0  0  0  0
   -1.3898    3.1422    0.1818 H   0  0  0  0  0  0  0  0  0  0  0  0
   -0.5684    4.1068    1.9070 C   0  0  0  0  0  0  0  0  0  0  0  0
    0.4775    4.4187    1.9988 H   0  0  0  0  0  0  0  0  0  0  0  0
   -1.1620    4.9762    1.6086 H   0  0  0  0  0  0  0  0  0  0  0  0
   -0.9210    3.7651    2.8859 H   0  0  0  0  0  0  0  0  0  0  0  0
  1  2  1  0  0  0  0
  2  3  1  0  0  0  0
  2  4  1  0  0  0  0
  2  5  1  0  0  0  0
  5  6  2  0  0  0  0
  5  7  1  0  0  0  0
  7  8  1  0  0  0  0
  7  9  1  0  0  0  0
  9 10  1  0  0  0  0
  9 11  1  0  0  0  0
  9 22  1  0  0  0  0
 11 12  1  0  0  0  0
 11 13  1  0  0  0  0
 11 14  1  0  0  0  0
 14 15  1  0  0  0  0
 14 20  2  0  0  0  0
 15 16  1  0  0  0  0
 15 17  1  0  0  0  0
 17 18  1  0  0  0  0
 17 19  2  0  0  0  0
 19 20  1  0  0  0  0
 20 21  1  0  0  0  0
 22 23  2  0  0  0  0
 22 24  1  0  0  0  0
 24 25  1  0  0  0  0
 24 26  1  0  0  0  0
 26 27  1  0  0  0  0
 26 28  1  0  0  0  0
 26 29  1  0  0  0  0
M  END
$$$$

  -OEChem-01062216083D

 29 29  0     1  0  0  0  0  0999 V2000
   -3.1501   -2.6808    1.0394 H   0  0  0  0  0  0  0  0  0  0  0  0
   -3.0985   -1.7948    0.4002 C   0  0  0  0  0  0  0  0  0  0  0  0
   -3.9611   -1.1583    0.6113 H   0  0  0  0  0  0  0  0  0  0  0  0
   -3.1335   -2.1134   -0.6445 H   0  0  0  0  0  0  0  0  0  0  0  0
   -1.8141   -1.0336    0.6672 C   0  0  0  0  0  0  0  0  0  0  0  0
   -1.0332   -1.4383    1.5102 O   0  0  0  0  0  0  0  0  0  0  0  0
   -1.5339    0.1070   -0.0587 N   0  0  0  0  0  0  0  0  0  0  0  0
   -2.1441    0.2848   -0.8500 H   0  0  0  0  0  0  0  0  0  0  0  0
   -0.2068    0.7506   -0.0547 C   0  0  1  0  0  0  0  0  0  0  0  0
    0.5621   -0.0091    0.1284 H   0  0  0  0  0  0  0  0  0  0  0  0
    0.0773    1.3837   -1.4245 C   0  0  0  0  0  0  0  0  0  0  0  0
   -0.7052    2.1083   -1.6715 H   0  0  0  0  0  0  0  0  0  0  0  0
    1.0300    1.9238   -1.3921 H   0  0  0  0  0  0  0  0  0  0  0  0
    0.1487    0.3199   -2.4883 C   0  0  0  0  0  0  0  0  0  0  0  0
    1.1767   -0.5688   -2.7110 N   0  0  0  0  0  0  0  0  0  0  0  0
    2.0262   -0.6615   -2.1563 H   0  0  0  0  0  0  0  0  0  0  0  0
    0.8461   -1.3528   -3.8004 C   0  0  0  0  0  0  0  0  0  0  0  0
    1.4593   -2.1545   -4.2023 H   0  0  0  0  0  0  0  0  0  0  0  0
   -0.3204   -0.9891   -4.2793 N   0  0  0  0  0  0  0  0  0  0  0  0
   -0.7573    0.0614   -3.4823 C   0  0  0  0  0  0  0  0  0  0  0  0
   -1.6897    0.5985   -3.6268 H   0  0  0  0  0  0  0  0  0  0  0  0
   -0.0617    1.8109    1.0543 C   0  0  0  0  0  0  0  0  0  0  0  0
    0.9394    1.8260    1.7566 O   0  0  0  0  0  0  0  0  0  0  0  0
   -0.9117    2.9035    1.0844 N   0  0  0  0  0  0  0  0  0  0  0  0
   -1.7648    2.8348    0.5391 H   0  0  0  0  0  0  0  0  0  0  0  0
   -0.7899    3.9769    2.0640 C   0  0  0  0  0  0  0  0  0  0  0  0
    0.1844    4.4688    1.9751 H   0  0  0  0  0  0  0  0  0  0  0  0
   -1.5698    4.7271    1.9029 H   0  0  0  0  0  0  0  0  0  0  0  0
   -0.8928    3.5810    3.0799 H   0  0  0  0  0  0  0  0  0  0  0  0
  1  2  1  0  0  0  0
  2  3  1  0  0  0  0
  2  4  1  0  0  0  0
  2  5  1  0  0  0  0
  5  6  2  0  0  0  0
  5  7  1  0  0  0  0
  7  8  1  0  0  0  0
  7  9  1  0  0  0  0
  9 10  1  0  0  0  0
  9 11  1  0  0  0  0
  9 22  1  0  0  0  0
 11 12  1  0  0  0  0
 11 13  1  0  0  0  0
 11 14  1  0  0  0  0
 14 15  1  0  0  0  0
 14 20  2  0  0  0  0
 15 16  1  0  0  0  0
 15 17  1  0  0  0  0
 17 18  1  0  0  0  0
 17 19  2  0  0  0  0
 19 20  1  0  0  0  0
 20 21  1  0  0  0  0
 22 23  2  0  0  0  0
 22 24  1  0  0  0  0
 24 25  1  0  0  0  0
 24 26  1  0  0  0  0
 26 27  1  0  0  0  0
 26 28  1  0  0  0  0
 26 29  1  0  0  0  0
M  END
$$$$

  -OEChem-01062216083D

 29 29  0     1  0  0  0  0  0999 V2000
   -3.1466   -2.6958    1.0211 H   0  0  0  0  0  0  0  0  0  0  0  0
   -3.0865   -1.8192    0.3697 C   0  0  0  0  0  0  0  0  0  0  0  0
   -3.9668   -1.1944    0.5378 H   0  0  0  0  0  0  0  0  0  0  0  0
   -3.0776   -2.1547   -0.6704 H   0  0  0  0  0  0  0  0  0  0  0  0
   -1.8259   -1.0320    0.6721 C   0  0  0  0  0  0  0  0  0  0  0  0
   -1.0741   -1.4029    1.5564 O   0  0  0  0  0  0  0  0  0  0  0  0
   -1.5376    0.1043   -0.0569 N   0  0  0  0  0  0  0  0  0  0  0  0
   -2.1131    0.2495   -0.8807 H   0  0  0  0  0  0  0  0  0  0  0  0
   -0.2044    0.7370   -0.0404 C   0  0  1  0  0  0  0  0  0  0  0  0
    0.5598   -0.0272    0.1428 H   0  0  0  0  0  0  0  0  0  0  0  0
    0.0807    1.3804   -1.4049 C   0  0  0  0  0  0  0  0  0  0  0  0
   -0.6975    2.1135   -1.6411 H   0  0  0  0  0  0  0  0  0  0  0  0
    1.0367    1.9146   -1.3705 H   0  0  0  0  0  0  0  0  0  0  0  0
    0.1434    0.3264   -2.4786 C   0  0  0  0  0  0  0  0  0  0  0  0
    1.1664   -0.5654   -2.7107 N   0  0  0  0  0  0  0  0  0  0  0  0
    2.0213   -0.6599   -2.1644 H   0  0  0  0  0  0  0  0  0  0  0  0
    0.8279   -1.3407   -3.8038 C   0  0  0  0  0  0  0  0  0  0  0  0
    1.4374   -2.1404   -4.2151 H   0  0  0  0  0  0  0  0  0  0  0  0
   -0.3411   -0.9721   -4.2725 N   0  0  0  0  0  0  0  0  0  0  0  0
   -0.7700    0.0760   -3.4679 C   0  0  0  0  0  0  0  0  0  0  0  0
   -1.7032    0.6148   -3.6025 H   0  0  0  0  0  0  0  0  0  0  0  0
   -0.0550    1.7989    1.0650 C   0  0  0  0  0  0  0  0  0  0  0  0
    1.0367    1.9821    1.5862 O   0  0  0  0  0  0  0  0  0  0  0  0
   -1.0637    2.7225    1.2759 N   0  0  0  0  0  0  0  0  0  0  0  0
   -1.9734    2.4934    0.8884 H   0  0  0  0  0  0  0  0  0  0  0  0
   -0.9706    3.7860    2.2685 C   0  0  0  0  0  0  0  0  0  0  0  0
   -0.1223    4.4428    2.0486 H   0  0  0  0  0  0  0  0  0  0  0  0
   -1.8832    4.3894    2.2628 H   0  0  0  0  0  0  0  0  0  0  0  0
   -0.8389    3.3641    3.2705 H   0  0  0  0  0  0  0  0  0  0  0  0
  1  2  1  0  0  0  0
  2  3  1  0  0  0  0
  2  4  1  0  0  0  0
  2  5  1  0  0  0  0
  5  6  2  0  0  0  0
  5  7  1  0  0  0  0
  7  8  1  0  0  0  0
  7  9  1  0  0  0  0
  9 10  1  0  0  0  0
  9 11  1  0  0  0  0
  9 22  1  0  0  0  0
 11 12  1  0  0  0  0
 11 13  1  0  0  0  0
 11 14  1  0  0  0  0
 14 15  1  0  0  0  0
 14 20  2  0  0  0  0
 15 16  1  0  0  0  0
 15 17  1  0  0  0  0
 17 18  1  0  0  0  0
 17 19  2  0  0  0  0
 19 20  1  0  0  0  0
 20 21  1  0  0  0  0
 22 23  2  0  0  0  0
 22 24  1  0  0  0  0
 24 25  1  0  0  0  0
 24 26  1  0  0  0  0
 26 27  1  0  0  0  0
 26 28  1  0  0  0  0
 26 29  1  0  0  0  0
M  END
$$$$

  -OEChem-01062216083D

 29 29  0     1  0  0  0  0  0999 V2000
   -3.1247   -2.7216    0.9890 H   0  0  0  0  0  0  0  0  0  0  0  0
   -3.0782   -1.8349    0.3504 C   0  0  0  0  0  0  0  0  0  0  0  0
   -3.9708   -1.2293    0.5233 H   0  0  0  0  0  0  0  0  0  0  0  0
   -3.0588   -2.1558   -0.6941 H   0  0  0  0  0  0  0  0  0  0  0  0
   -1.8334   -1.0288    0.6694 C   0  0  0  0  0  0  0  0  0  0  0  0
   -1.0984   -1.3760    1.5774 O   0  0  0  0  0  0  0  0  0  0  0  0
   -1.5425    0.1055   -0.0614 N   0  0  0  0  0  0  0  0  0  0  0  0
   -2.1029    0.2396   -0.8978 H   0  0  0  0  0  0  0  0  0  0  0  0
   -0.2062    0.7333   -0.0372 C   0  0  1  0  0  0  0  0  0  0  0  0
    0.5555   -0.0328    0.1478 H   0  0  0  0  0  0  0  0  0  0  0  0
    0.0796    1.3766   -1.4019 C   0  0  0  0  0  0  0  0  0  0  0  0
   -0.6976    2.1117   -1.6352 H   0  0  0  0  0  0  0  0  0  0  0  0
    1.0367    1.9089   -1.3700 H   0  0  0  0  0  0  0  0  0  0  0  0
    0.1397    0.3239   -2.4770 C   0  0  0  0  0  0  0  0  0  0  0  0
    1.1603   -0.5700   -2.7110 N   0  0  0  0  0  0  0  0  0  0  0  0
    2.0168   -0.6645   -2.1674 H   0  0  0  0  0  0  0  0  0  0  0  0
    0.8210   -1.3402   -3.8074 C   0  0  0  0  0  0  0  0  0  0  0  0
    1.4286   -2.1402   -4.2208 H   0  0  0  0  0  0  0  0  0  0  0  0
   -0.3461   -0.9661   -4.2766 N   0  0  0  0  0  0  0  0  0  0  0  0
   -0.7720    0.0813   -3.4694 C   0  0  0  0  0  0  0  0  0  0  0  0
   -1.7017    0.6256   -3.6044 H   0  0  0  0  0  0  0  0  0  0  0  0
   -0.0521    1.7975    1.0662 C   0  0  0  0  0  0  0  0  0  0  0  0
    1.0673    2.1458    1.4176 O   0  0  0  0  0  0  0  0  0  0  0  0
   -1.1495    2.5262    1.4888 N   0  0  0  0  0  0  0  0  0  0  0  0
   -2.0588    2.1438    1.2480 H   0  0  0  0  0  0  0  0  0  0  0  0
   -1.0702    3.5556    2.5178 C   0  0  0  0  0  0  0  0  0  0  0  0
   -0.3822    4.3511    2.2131 H   0  0  0  0  0  0  0  0  0  0  0  0
   -2.0561    3.9997    2.6855 H   0  0  0  0  0  0  0  0  0  0  0  0
   -0.7168    3.1263    3.4611 H   0  0  0  0  0  0  0  0  0  0  0  0
  1  2  1  0  0  0  0
  2  3  1  0  0  0  0
  2  4  1  0  0  0  0
  2  5  1  0  0  0  0
  5  6  2  0  0  0  0
  5  7  1  0  0  0  0
  7  8  1  0  0  0  0
  7  9  1  0  0  0  0
  9 10  1  0  0  0  0
  9 11  1  0  0  0  0
  9 22  1  0  0  0  0
 11 12  1  0  0  0  0
 11 13  1  0  0  0  0
 11 14  1  0  0  0  0
 14 15  1  0  0  0  0
 14 20  2  0  0  0  0
 15 16  1  0  0  0  0
 15 17  1  0  0  0  0
 17 18  1  0  0  0  0
 17 19  2  0  0  0  0
 19 20  1  0  0  0  0
 20 21  1  0  0  0  0
 22 23  2  0  0  0  0
 22 24  1  0  0  0  0
 24 25  1  0  0  0  0
 24 26  1  0  0  0  0
 26 27  1  0  0  0  0
 26 28  1  0  0  0  0
 26 29  1  0  0  0  0
M  END
$$$$

  -OEChem-01062216083D

 29 29  0     1  0  0  0  0  0999 V2000
   -3.1325   -2.7099    0.9826 H   0  0  0  0  0  0  0  0  0  0  0  0
   -3.0682   -1.8400    0.3227 C   0  0  0  0  0  0  0  0  0  0  0  0
   -3.9679   -1.2336    0.4506 H   0  0  0  0  0  0  0  0  0  0  0  0
   -3.0138   -2.1879   -0.7120 H   0  0  0  0  0  0  0  0  0  0  0  0
   -1.8364   -1.0215    0.6589 C   0  0  0  0  0  0  0  0  0  0  0  0
   -1.1162   -1.3521    1.5849 O   0  0  0  0  0  0  0  0  0  0  0  0
   -1.5435    0.1137   -0.0690 N   0  0  0  0  0  0  0  0  0  0  0  0
   -2.0995    0.2491   -0.9082 H   0  0  0  0  0  0  0  0  0  0  0  0
   -0.2067    0.7417   -0.0394 C   0  0  1  0  0  0  0  0  0  0  0  0
    0.5547   -0.0239    0.1468 H   0  0  0  0  0  0  0  0  0  0  0  0
    0.0737    1.3795   -1.4096 C   0  0  0  0  0  0  0  0  0  0  0  0
   -0.7063    2.1117   -1.6431 H   0  0  0  0  0  0  0  0  0  0  0  0
    1.0295    1.9147   -1.3860 H   0  0  0  0  0  0  0  0  0  0  0  0
    0.1335    0.3211   -2.4800 C   0  0  0  0  0  0  0  0  0  0  0  0
    1.1555   -0.5716   -2.7130 N   0  0  0  0  0  0  0  0  0  0  0  0
    2.0155   -0.6589   -2.1738 H   0  0  0  0  0  0  0  0  0  0  0  0
    0.8147   -1.3484   -3.8043 C   0  0  0  0  0  0  0  0  0  0  0  0
    1.4230   -2.1488   -4.2159 H   0  0  0  0  0  0  0  0  0  0  0  0
   -0.3553   -0.9805   -4.2710 N   0  0  0  0  0  0  0  0  0  0  0  0
   -0.7812    0.0705   -3.4681 C   0  0  0  0  0  0  0  0  0  0  0  0
   -1.7128    0.6117   -3.6031 H   0  0  0  0  0  0  0  0  0  0  0  0
   -0.0504    1.8064    1.0659 C   0  0  0  0  0  0  0  0  0  0  0  0
    1.0461    2.3111    1.2709 O   0  0  0  0  0  0  0  0  0  0  0  0
   -1.1618    2.3197    1.7092 N   0  0  0  0  0  0  0  0  0  0  0  0
   -2.0209    1.7899    1.5964 H   0  0  0  0  0  0  0  0  0  0  0  0
   -1.0750    3.2951    2.7887 C   0  0  0  0  0  0  0  0  0  0  0  0
   -0.5742    4.2059    2.4439 H   0  0  0  0  0  0  0  0  0  0  0  0
   -2.0770    3.5643    3.1362 H   0  0  0  0  0  0  0  0  0  0  0  0
   -0.5132    2.8819    3.6330 H   0  0  0  0  0  0  0  0  0  0  0  0
  1  2  1  0  0  0  0
  2  3  1  0  0  0  0
  2  4  1  0  0  0  0
  2  5  1  0  0  0  0
  5  6  2  0  0  0  0
  5  7  1  0  0  0  0
  7  8  1  0  0  0  0
  7  9  1  0  0  0  0
  9 10  1  0  0  0  0
  9 11  1  0  0  0  0
  9 22  1  0  0  0  0
 11 12  1  0  0  0  0
 11 13  1  0  0  0  0
 11 14  1  0  0  0  0
 14 15  1  0  0  0  0
 14 20  2  0  0  0  0
 15 16  1  0  0  0  0
 15 17  1  0  0  0  0
 17 18  1  0  0  0  0
 17 19  2  0  0  0  0
 19 20  1  0  0  0  0
 20 21  1  0  0  0  0
 22 23  2  0  0  0  0
 22 24  1  0  0  0  0
 24 25  1  0  0  0  0
 24 26  1  0  0  0  0
 26 27  1  0  0  0  0
 26 28  1  0  0  0  0
 26 29  1  0  0  0  0
M  END
$$$$

  -OEChem-01062216083D

 29 29  0     1  0  0  0  0  0999 V2000
   -3.1401   -2.7009    0.9535 H   0  0  0  0  0  0  0  0  0  0  0  0
   -3.0650   -1.8325    0.2929 C   0  0  0  0  0  0  0  0  0  0  0  0
   -3.9641   -1.2225    0.4088 H   0  0  0  0  0  0  0  0  0  0  0  0
   -2.9996   -2.1824   -0.7404 H   0  0  0  0  0  0  0  0  0  0  0  0
   -1.8349   -1.0166    0.6418 C   0  0  0  0  0  0  0  0  0  0  0  0
   -1.1294   -1.3390    1.5821 O   0  0  0  0  0  0  0  0  0  0  0  0
   -1.5372    0.1231   -0.0756 N   0  0  0  0  0  0  0  0  0  0  0  0
   -2.0987    0.2754   -0.9083 H   0  0  0  0  0  0  0  0  0  0  0  0
   -0.2015    0.7537   -0.0419 C   0  0  1  0  0  0  0  0  0  0  0  0
    0.5613   -0.0106    0.1431 H   0  0  0  0  0  0  0  0  0  0  0  0
    0.0700    1.3860   -1.4182 C   0  0  0  0  0  0  0  0  0  0  0  0
   -0.7142    2.1140   -1.6517 H   0  0  0  0  0  0  0  0  0  0  0  0
    1.0238    1.9247   -1.4058 H   0  0  0  0  0  0  0  0  0  0  0  0
    0.1296    0.3202   -2.4821 C   0  0  0  0  0  0  0  0  0  0  0  0
    1.1543   -0.5697   -2.7147 N   0  0  0  0  0  0  0  0  0  0  0  0
    2.0213   -0.6445   -2.1850 H   0  0  0  0  0  0  0  0  0  0  0  0
    0.8076   -1.3593   -3.7949 C   0  0  0  0  0  0  0  0  0  0  0  0
    1.4170   -2.1603   -4.2042 H   0  0  0  0  0  0  0  0  0  0  0  0
   -0.3688   -1.0029   -4.2544 N   0  0  0  0  0  0  0  0  0  0  0  0
   -0.7928    0.0547   -3.4591 C   0  0  0  0  0  0  0  0  0  0  0  0
   -1.7293    0.5885   -3.5902 H   0  0  0  0  0  0  0  0  0  0  0  0
   -0.0480    1.8129    1.0724 C   0  0  0  0  0  0  0  0  0  0  0  0
    0.9732    2.4854    1.1407 O   0  0  0  0  0  0  0  0  0  0  0  0
   -1.0992    2.0954    1.9252 N   0  0  0  0  0  0  0  0  0  0  0  0
   -1.8479    1.4081    1.9362 H   0  0  0  0  0  0  0  0  0  0  0  0
   -0.9904    3.0286    3.0396 C   0  0  0  0  0  0  0  0  0  0  0  0
   -0.7011    4.0223    2.6816 H   0  0  0  0  0  0  0  0  0  0  0  0
   -1.9520    3.1154    3.5543 H   0  0  0  0  0  0  0  0  0  0  0  0
   -0.2409    2.6807    3.7582 H   0  0  0  0  0  0  0  0  0  0  0  0
  1  2  1  0  0  0  0
  2  3  1  0  0  0  0
  2  4  1  0  0  0  0
  2  5  1  0  0  0  0
  5  6  2  0  0  0  0
  5  7  1  0  0  0  0
  7  8  1  0  0  0  0
  7  9  1  0  0  0  0
  9 10  1  0  0  0  0
  9 11  1  0  0  0  0
  9 22  1  0  0  0  0
 11 12  1  0  0  0  0
 11 13  1  0  0  0  0
 11 14  1  0  0  0  0
 14 15  1  0  0  0  0
 14 20  2  0  0  0  0
 15 16  1  0  0  0  0
 15 17  1  0  0  0  0
 17 18  1  0  0  0  0
 17 19  2  0  0  0  0
 19 20  1  0  0  0  0
 20 21  1  0  0  0  0
 22 23  2  0  0  0  0
 22 24  1  0  0  0  0
 24 25  1  0  0  0  0
 24 26  1  0  0  0  0
 26 27  1  0  0  0  0
 26 28  1  0  0  0  0
 26 29  1  0  0  0  0
M  END
$$$$

  -OEChem-01062216083D

 29 29  0     1  0  0  0  0  0999 V2000
   -3.1382   -2.6942    0.9339 H   0  0  0  0  0  0  0  0  0  0  0  0
   -3.0621   -1.8234    0.2765 C   0  0  0  0  0  0  0  0  0  0  0  0
   -3.9655   -1.2186    0.3864 H   0  0  0  0  0  0  0  0  0  0  0  0
   -2.9863   -2.1700   -0.7572 H   0  0  0  0  0  0  0  0  0  0  0  0
   -1.8392   -1.0020    0.6370 C   0  0  0  0  0  0  0  0  0  0  0  0
   -1.1504   -1.3075    1.5959 O   0  0  0  0  0  0  0  0  0  0  0  0
   -1.5371    0.1400   -0.0733 N   0  0  0  0  0  0  0  0  0  0  0  0
   -2.1042    0.3056   -0.8996 H   0  0  0  0  0  0  0  0  0  0  0  0
   -0.1991    0.7657   -0.0428 C   0  0  1  0  0  0  0  0  0  0  0  0
    0.5604   -0.0019    0.1407 H   0  0  0  0  0  0  0  0  0  0  0  0
    0.0716    1.3892   -1.4248 C   0  0  0  0  0  0  0  0  0  0  0  0
   -0.7107    2.1185   -1.6596 H   0  0  0  0  0  0  0  0  0  0  0  0
    1.0275    1.9240   -1.4203 H   0  0  0  0  0  0  0  0  0  0  0  0
    0.1261    0.3180   -2.4835 C   0  0  0  0  0  0  0  0  0  0  0  0
    1.1477   -0.5761   -2.7139 N   0  0  0  0  0  0  0  0  0  0  0  0
    2.0157   -0.6505   -2.1860 H   0  0  0  0  0  0  0  0  0  0  0  0
    0.7985   -1.3674   -3.7919 C   0  0  0  0  0  0  0  0  0  0  0  0
    1.4051   -2.1715   -4.1990 H   0  0  0  0  0  0  0  0  0  0  0  0
   -0.3766   -1.0082   -4.2523 N   0  0  0  0  0  0  0  0  0  0  0  0
   -0.7970    0.0533   -3.4601 C   0  0  0  0  0  0  0  0  0  0  0  0
   -1.7306    0.5915   -3.5936 H   0  0  0  0  0  0  0  0  0  0  0  0
   -0.0443    1.8171    1.0812 C   0  0  0  0  0  0  0  0  0  0  0  0
    0.8474    2.6555    1.0303 O   0  0  0  0  0  0  0  0  0  0  0  0
   -0.9613    1.8733    2.1144 N   0  0  0  0  0  0  0  0  0  0  0  0
   -1.5396    1.0418    2.2205 H   0  0  0  0  0  0  0  0  0  0  0  0
   -0.8233    2.7737    3.2522 C   0  0  0  0  0  0  0  0  0  0  0  0
   -0.7758    3.8144    2.9150 H   0  0  0  0  0  0  0  0  0  0  0  0
   -1.6820    2.6686    3.9220 H   0  0  0  0  0  0  0  0  0  0  0  0
    0.0876    2.5436    3.8145 H   0  0  0  0  0  0  0  0  0  0  0  0
  1  2  1  0  0  0  0
  2  3  1  0  0  0  0
  2  4  1  0  0  0  0
  2  5  1  0  0  0  0
  5  6  2  0  0  0  0
  5  7  1  0  0  0  0
  7  8  1  0  0  0  0
  7  9  1  0  0  0  0
  9 10  1  0  0  0  0
  9 11  1  0  0  0  0
  9 22  1  0  0  0  0
 11 12  1  0  0  0  0
 11 13  1  0  0  0  0
 11 14  1  0  0  0  0
 14 15  1  0  0  0  0
 14 20  2  0  0  0  0
 15 16  1  0  0  0  0
 15 17  1  0  0  0  0
 17 18  1  0  0  0  0
 17 19  2  0  0  0  0
 19 20  1  0  0  0  0
 20 21  1  0  0  0  0
 22 23  2  0  0  0  0
 22 24  1  0  0  0  0
 24 25  1  0  0  0  0
 24 26  1  0  0  0  0
 26 27  1  0  0  0  0
 26 28  1  0  0  0  0
 26 29  1  0  0  0  0
M  END
$$$$

  -OEChem-01062216083D

 29 29  0     1  0  0  0  0  0999 V2000
   -3.1115   -2.6946    0.9097 H   0  0  0  0  0  0  0  0  0  0  0  0
   -3.0596   -1.7983    0.2851 C   0  0  0  0  0  0  0  0  0  0  0  0
   -3.9614   -1.2028    0.4462 H   0  0  0  0  0  0  0  0  0  0  0  0
   -3.0143   -2.1034   -0.7633 H   0  0  0  0  0  0  0  0  0  0  0  0
   -1.8300   -0.9851    0.6397 C   0  0  0  0  0  0  0  0  0  0  0  0
   -1.1356   -1.2966    1.5940 O   0  0  0  0  0  0  0  0  0  0  0  0
   -1.5257    0.1575   -0.0687 N   0  0  0  0  0  0  0  0  0  0  0  0
   -2.1029    0.3363   -0.8852 H   0  0  0  0  0  0  0  0  0  0  0  0
   -0.1845    0.7752   -0.0457 C   0  0  1  0  0  0  0  0  0  0  0  0
    0.5723    0.0045    0.1356 H   0  0  0  0  0  0  0  0  0  0  0  0
    0.0873    1.3930   -1.4303 C   0  0  0  0  0  0  0  0  0  0  0  0
   -0.6896    2.1283   -1.6652 H   0  0  0  0  0  0  0  0  0  0  0  0
    1.0473    1.9202   -1.4291 H   0  0  0  0  0  0  0  0  0  0  0  0
    0.1317    0.3167   -2.4849 C   0  0  0  0  0  0  0  0  0  0  0  0
    1.1445   -0.5873   -2.7170 N   0  0  0  0  0  0  0  0  0  0  0  0
    2.0143   -0.6678   -2.1933 H   0  0  0  0  0  0  0  0  0  0  0  0
    0.7828   -1.3798   -3.7904 C   0  0  0  0  0  0  0  0  0  0  0  0
    1.3797   -2.1914   -4.1973 H   0  0  0  0  0  0  0  0  0  0  0  0
   -0.3910   -1.0116   -4.2467 N   0  0  0  0  0  0  0  0  0  0  0  0
   -0.7980    0.0565   -3.4564 C   0  0  0  0  0  0  0  0  0  0  0  0
   -1.7275    0.6022   -3.5876 H   0  0  0  0  0  0  0  0  0  0  0  0
   -0.0341    1.8189    1.0873 C   0  0  0  0  0  0  0  0  0  0  0  0
    0.6772    2.8070    0.9492 O   0  0  0  0  0  0  0  0  0  0  0  0
   -0.7539    1.6670    2.2575 N   0  0  0  0  0  0  0  0  0  0  0  0
   -1.1667    0.7432    2.3944 H   0  0  0  0  0  0  0  0  0  0  0  0
   -0.6026    2.5438    3.4113 C   0  0  0  0  0  0  0  0  0  0  0  0
   -0.8295    3.5799    3.1388 H   0  0  0  0  0  0  0  0  0  0  0  0
   -1.2887    2.2397    4.2075 H   0  0  0  0  0  0  0  0  0  0  0  0
    0.4211    2.4966    3.7968 H   0  0  0  0  0  0  0  0  0  0  0  0
  1  2  1  0  0  0  0
  2  3  1  0  0  0  0
  2  4  1  0  0  0  0
  2  5  1  0  0  0  0
  5  6  2  0  0  0  0
  5  7  1  0  0  0  0
  7  8  1  0  0  0  0
  7  9  1  0  0  0  0
  9 10  1  0  0  0  0
  9 11  1  0  0  0  0
  9 22  1  0  0  0  0
 11 12  1  0  0  0  0
 11 13  1  0  0  0  0
 11 14  1  0  0  0  0
 14 15  1  0  0  0  0
 14 20  2  0  0  0  0
 15 16  1  0  0  0  0
 15 17  1  0  0  0  0
 17 18  1  0  0  0  0
 17 19  2  0  0  0  0
 19 20  1  0  0  0  0
 20 21  1  0  0  0  0
 22 23  2  0  0  0  0
 22 24  1  0  0  0  0
 24 25  1  0  0  0  0
 24 26  1  0  0  0  0
 26 27  1  0  0  0  0
 26 28  1  0  0  0  0
 26 29  1  0  0  0  0
M  END
$$$$

  -OEChem-01062216083D

 29 29  0     1  0  0  0  0  0999 V2000
   -3.1297   -2.6624    0.9499 H   0  0  0  0  0  0  0  0  0  0  0  0
   -3.0748   -1.7611    0.3330 C   0  0  0  0  0  0  0  0  0  0  0  0
   -3.9494   -1.1393    0.5380 H   0  0  0  0  0  0  0  0  0  0  0  0
   -3.0830   -2.0551   -0.7196 H   0  0  0  0  0  0  0  0  0  0  0  0
   -1.8067   -0.9905    0.6454 C   0  0  0  0  0  0  0  0  0  0  0  0
   -1.0795   -1.3402    1.5625 O   0  0  0  0  0  0  0  0  0  0  0  0
   -1.4995    0.1518   -0.0627 N   0  0  0  0  0  0  0  0  0  0  0  0
   -2.1062    0.3678   -0.8481 H   0  0  0  0  0  0  0  0  0  0  0  0
   -0.1595    0.7695   -0.0489 C   0  0  1  0  0  0  0  0  0  0  0  0
    0.6007    0.0016    0.1284 H   0  0  0  0  0  0  0  0  0  0  0  0
    0.1062    1.3882   -1.4341 C   0  0  0  0  0  0  0  0  0  0  0  0
   -0.6727    2.1228   -1.6650 H   0  0  0  0  0  0  0  0  0  0  0  0
    1.0650    1.9178   -1.4331 H   0  0  0  0  0  0  0  0  0  0  0  0
    0.1468    0.3158   -2.4930 C   0  0  0  0  0  0  0  0  0  0  0  0
    1.1575   -0.5880   -2.7354 N   0  0  0  0  0  0  0  0  0  0  0  0
    2.0324   -0.6694   -2.2206 H   0  0  0  0  0  0  0  0  0  0  0  0
    0.7879   -1.3751   -3.8103 C   0  0  0  0  0  0  0  0  0  0  0  0
    1.3824   -2.1834   -4.2268 H   0  0  0  0  0  0  0  0  0  0  0  0
   -0.3898   -1.0063   -4.2555 N   0  0  0  0  0  0  0  0  0  0  0  0
   -0.7917    0.0573   -3.4564 C   0  0  0  0  0  0  0  0  0  0  0  0
   -1.7239    0.6014   -3.5754 H   0  0  0  0  0  0  0  0  0  0  0  0
   -0.0181    1.8104    1.0865 C   0  0  0  0  0  0  0  0  0  0  0  0
    0.4788    2.9130    0.8895 O   0  0  0  0  0  0  0  0  0  0  0  0
   -0.4819    1.4961    2.3496 N   0  0  0  0  0  0  0  0  0  0  0  0
   -0.7834    0.5288    2.4864 H   0  0  0  0  0  0  0  0  0  0  0  0
   -0.3368    2.3675    3.5079 C   0  0  0  0  0  0  0  0  0  0  0  0
   -0.8379    3.3250    3.3321 H   0  0  0  0  0  0  0  0  0  0  0  0
   -0.7858    1.8999    4.3893 H   0  0  0  0  0  0  0  0  0  0  0  0
    0.7217    2.5556    3.7154 H   0  0  0  0  0  0  0  0  0  0  0  0
  1  2  1  0  0  0  0
  2  3  1  0  0  0  0
  2  4  1  0  0  0  0
  2  5  1  0  0  0  0
  5  6  2  0  0  0  0
  5  7  1  0  0  0  0
  7  8  1  0  0  0  0
  7  9  1  0  0  0  0
  9 10  1  0  0  0  0
  9 11  1  0  0  0  0
  9 22  1  0  0  0  0
 11 12  1  0  0  0  0
 11 13  1  0  0  0  0
 11 14  1  0  0  0  0
 14 15  1  0  0  0  0
 14 20  2  0  0  0  0
 15 16  1  0  0  0  0
 15 17  1  0  0  0  0
 17 18  1  0  0  0  0
 17 19  2  0  0  0  0
 19 20  1  0  0  0  0
 20 21  1  0  0  0  0
 22 23  2  0  0  0  0
 22 24  1  0  0  0  0
 24 25  1  0  0  0  0
 24 26  1  0  0  0  0
 26 27  1  0  0  0  0
 26 28  1  0  0  0  0
 26 29  1  0  0  0  0
M  END
$$$$

  -OEChem-01062216083D

 29 29  0     1  0  0  0  0  0999 V2000
   -3.1189   -2.6257    1.0089 H   0  0  0  0  0  0  0  0  0  0  0  0
   -3.0672   -1.7238    0.3926 C   0  0  0  0  0  0  0  0  0  0  0  0
   -3.9192   -1.0832    0.6325 H   0  0  0  0  0  0  0  0  0  0  0  0
   -3.1219   -2.0142   -0.6596 H   0  0  0  0  0  0  0  0  0  0  0  0
   -1.7706   -0.9834    0.6579 C   0  0  0  0  0  0  0  0  0  0  0  0
   -1.0079   -1.3656    1.5334 O   0  0  0  0  0  0  0  0  0  0  0  0
   -1.4660    0.1571   -0.0550 N   0  0  0  0  0  0  0  0  0  0  0  0
   -2.1025    0.4101   -0.8049 H   0  0  0  0  0  0  0  0  0  0  0  0
   -0.1226    0.7632   -0.0580 C   0  0  1  0  0  0  0  0  0  0  0  0
    0.6370   -0.0079    0.1093 H   0  0  0  0  0  0  0  0  0  0  0  0
    0.1380    1.3851   -1.4421 C   0  0  0  0  0  0  0  0  0  0  0  0
   -0.6368    2.1266   -1.6650 H   0  0  0  0  0  0  0  0  0  0  0  0
    1.1010    1.9073   -1.4432 H   0  0  0  0  0  0  0  0  0  0  0  0
    0.1592    0.3160   -2.5049 C   0  0  0  0  0  0  0  0  0  0  0  0
    1.1583   -0.5975   -2.7591 N   0  0  0  0  0  0  0  0  0  0  0  0
    2.0344   -0.6930   -2.2491 H   0  0  0  0  0  0  0  0  0  0  0  0
    0.7715   -1.3776   -3.8328 C   0  0  0  0  0  0  0  0  0  0  0  0
    1.3538   -2.1912   -4.2560 H   0  0  0  0  0  0  0  0  0  0  0  0
   -0.4052   -0.9943   -4.2678 N   0  0  0  0  0  0  0  0  0  0  0  0
   -0.7895    0.0708   -3.4619 C   0  0  0  0  0  0  0  0  0  0  0  0
   -1.7166    0.6253   -3.5727 H   0  0  0  0  0  0  0  0  0  0  0  0
    0.0217    1.7973    1.0801 C   0  0  0  0  0  0  0  0  0  0  0  0
    0.2803    2.9741    0.8566 O   0  0  0  0  0  0  0  0  0  0  0  0
   -0.1443    1.3734    2.3843 N   0  0  0  0  0  0  0  0  0  0  0  0
   -0.3855    0.3876    2.5134 H   0  0  0  0  0  0  0  0  0  0  0  0
   -0.0610    2.2498    3.5444 C   0  0  0  0  0  0  0  0  0  0  0  0
   -0.8316    3.0259    3.4938 H   0  0  0  0  0  0  0  0  0  0  0  0
   -0.2085    1.6739    4.4630 H   0  0  0  0  0  0  0  0  0  0  0  0
    0.9217    2.7303    3.5916 H   0  0  0  0  0  0  0  0  0  0  0  0
  1  2  1  0  0  0  0
  2  3  1  0  0  0  0
  2  4  1  0  0  0  0
  2  5  1  0  0  0  0
  5  6  2  0  0  0  0
  5  7  1  0  0  0  0
  7  8  1  0  0  0  0
  7  9  1  0  0  0  0
  9 10  1  0  0  0  0
  9 11  1  0  0  0  0
  9 22  1  0  0  0  0
 11 12  1  0  0  0  0
 11 13  1  0  0  0  0
 11 14  1  0  0  0  0
 14 15  1  0  0  0  0
 14 20  2  0  0  0  0
 15 16  1  0  0  0  0
 15 17  1  0  0  0  0
 17 18  1  0  0  0  0
 17 19  2  0  0  0  0
 19 20  1  0  0  0  0
 20 21  1  0  0  0  0
 22 23  2  0  0  0  0
 22 24  1  0  0  0  0
 24 25  1  0  0  0  0
 24 26  1  0  0  0  0
 26 27  1  0  0  0  0
 26 28  1  0  0  0  0
 26 29  1  0  0  0  0
M  END
$$$$

  -OEChem-01062216083D

 29 29  0     1  0  0  0  0  0999 V2000
   -3.1028   -2.5965    1.0667 H   0  0  0  0  0  0  0  0  0  0  0  0
   -3.0566   -1.6961    0.4479 C   0  0  0  0  0  0  0  0  0  0  0  0
   -3.8895   -1.0412    0.7146 H   0  0  0  0  0  0  0  0  0  0  0  0
   -3.1508   -1.9859   -0.6016 H   0  0  0  0  0  0  0  0  0  0  0  0
   -1.7402   -0.9771    0.6705 C   0  0  0  0  0  0  0  0  0  0  0  0
   -0.9550   -1.3716    1.5212 O   0  0  0  0  0  0  0  0  0  0  0  0
   -1.4397    0.1568   -0.0542 N   0  0  0  0  0  0  0  0  0  0  0  0
   -2.0922    0.4258   -0.7846 H   0  0  0  0  0  0  0  0  0  0  0  0
   -0.0947    0.7547   -0.0660 C   0  0  1  0  0  0  0  0  0  0  0  0
    0.6656   -0.0166    0.0972 H   0  0  0  0  0  0  0  0  0  0  0  0
    0.1609    1.3794   -1.4493 C   0  0  0  0  0  0  0  0  0  0  0  0
   -0.6132    2.1236   -1.6672 H   0  0  0  0  0  0  0  0  0  0  0  0
    1.1245    1.9001   -1.4513 H   0  0  0  0  0  0  0  0  0  0  0  0
    0.1700    0.3158   -2.5177 C   0  0  0  0  0  0  0  0  0  0  0  0
    1.1618   -0.6023   -2.7837 N   0  0  0  0  0  0  0  0  0  0  0  0
    2.0411   -0.7054   -2.2811 H   0  0  0  0  0  0  0  0  0  0  0  0
    0.7627   -1.3742   -3.8590 C   0  0  0  0  0  0  0  0  0  0  0  0
    1.3377   -2.1883   -4.2913 H   0  0  0  0  0  0  0  0  0  0  0  0
   -0.4151   -0.9822   -4.2833 N   0  0  0  0  0  0  0  0  0  0  0  0
   -0.7875    0.0803   -3.4683 C   0  0  0  0  0  0  0  0  0  0  0  0
   -1.7124    0.6406   -3.5682 H   0  0  0  0  0  0  0  0  0  0  0  0
    0.0459    1.7919    1.0665 C   0  0  0  0  0  0  0  0  0  0  0  0
    0.0727    2.9964    0.8419 O   0  0  0  0  0  0  0  0  0  0  0  0
    0.1884    1.3308    2.3606 N   0  0  0  0  0  0  0  0  0  0  0  0
    0.0126    0.3329    2.4983 H   0  0  0  0  0  0  0  0  0  0  0  0
    0.2436    2.2053    3.5242 C   0  0  0  0  0  0  0  0  0  0  0  0
   -0.6915    2.7654    3.6268 H   0  0  0  0  0  0  0  0  0  0  0  0
    0.3968    1.6147    4.4325 H   0  0  0  0  0  0  0  0  0  0  0  0
    1.0720    2.9152    3.4314 H   0  0  0  0  0  0  0  0  0  0  0  0
  1  2  1  0  0  0  0
  2  3  1  0  0  0  0
  2  4  1  0  0  0  0
  2  5  1  0  0  0  0
  5  6  2  0  0  0  0
  5  7  1  0  0  0  0
  7  8  1  0  0  0  0
  7  9  1  0  0  0  0
  9 10  1  0  0  0  0
  9 11  1  0  0  0  0
  9 22  1  0  0  0  0
 11 12  1  0  0  0  0
 11 13  1  0  0  0  0
 11 14  1  0  0  0  0
 14 15  1  0  0  0  0
 14 20  2  0  0  0  0
 15 16  1  0  0  0  0
 15 17  1  0  0  0  0
 17 18  1  0  0  0  0
 17 19  2  0  0  0  0
 19 20  1  0  0  0  0
 20 21  1  0  0  0  0
 22 23  2  0  0  0  0
 22 24  1  0  0  0  0
 24 25  1  0  0  0  0
 24 26  1  0  0  0  0
 26 27  1  0  0  0  0
 26 28  1  0  0  0  0
 26 29  1  0  0  0  0
M  END
$$$$

  -OEChem-01062216083D

 29 29  0     1  0  0  0  0  0999 V2000
   -3.1173   -2.5717    1.1270 H   0  0  0  0  0  0  0  0  0  0  0  0
   -3.0734   -1.6714    0.5081 C   0  0  0  0  0  0  0  0  0  0  0  0
   -3.8687   -0.9903    0.8198 H   0  0  0  0  0  0  0  0  0  0  0  0
   -3.2319   -1.9541   -0.5355 H   0  0  0  0  0  0  0  0  0  0  0  0
   -1.7242   -0.9968    0.6627 C   0  0  0  0  0  0  0  0  0  0  0  0
   -0.9032   -1.4290    1.4597 O   0  0  0  0  0  0  0  0  0  0  0  0
   -1.4293    0.1366   -0.0651 N   0  0  0  0  0  0  0  0  0  0  0  0
   -2.1233    0.4669   -0.7292 H   0  0  0  0  0  0  0  0  0  0  0  0
   -0.0898    0.7428   -0.0797 C   0  0  1  0  0  0  0  0  0  0  0  0
    0.6767   -0.0230    0.0794 H   0  0  0  0  0  0  0  0  0  0  0  0
    0.1659    1.3749   -1.4585 C   0  0  0  0  0  0  0  0  0  0  0  0
   -0.6127    2.1147   -1.6752 H   0  0  0  0  0  0  0  0  0  0  0  0
    1.1258    1.9020   -1.4542 H   0  0  0  0  0  0  0  0  0  0  0  0
    0.1830    0.3167   -2.5320 C   0  0  0  0  0  0  0  0  0  0  0  0
    1.1804   -0.5950   -2.7994 N   0  0  0  0  0  0  0  0  0  0  0  0
    2.0556   -0.7012   -2.2905 H   0  0  0  0  0  0  0  0  0  0  0  0
    0.7899   -1.3617   -3.8812 C   0  0  0  0  0  0  0  0  0  0  0  0
    1.3701   -2.1715   -4.3145 H   0  0  0  0  0  0  0  0  0  0  0  0
   -0.3865   -0.9711   -4.3102 N   0  0  0  0  0  0  0  0  0  0  0  0
   -0.7689    0.0832   -3.4888 C   0  0  0  0  0  0  0  0  0  0  0  0
   -1.6956    0.6399   -3.5907 H   0  0  0  0  0  0  0  0  0  0  0  0
    0.0408    1.7832    1.0488 C   0  0  0  0  0  0  0  0  0  0  0  0
   -0.1950    2.9702    0.8557 O   0  0  0  0  0  0  0  0  0  0  0  0
    0.4943    1.3619    2.2838 N   0  0  0  0  0  0  0  0  0  0  0  0
    0.4813    0.3527    2.4364 H   0  0  0  0  0  0  0  0  0  0  0  0
    0.5672    2.2408    3.4436 C   0  0  0  0  0  0  0  0  0  0  0  0
   -0.4307    2.6022    3.7129 H   0  0  0  0  0  0  0  0  0  0  0  0
    0.9852    1.7018    4.2993 H   0  0  0  0  0  0  0  0  0  0  0  0
    1.2092    3.1025    3.2326 H   0  0  0  0  0  0  0  0  0  0  0  0
  1  2  1  0  0  0  0
  2  3  1  0  0  0  0
  2  4  1  0  0  0  0
  2  5  1  0  0  0  0
  5  6  2  0  0  0  0
  5  7  1  0  0  0  0
  7  8  1  0  0  0  0
  7  9  1  0  0  0  0
  9 10  1  0  0  0  0
  9 11  1  0  0  0  0
  9 22  1  0  0  0  0
 11 12  1  0  0  0  0
 11 13  1  0  0  0  0
 11 14  1  0  0  0  0
 14 15  1  0  0  0  0
 14 20  2  0  0  0  0
 15 16  1  0  0  0  0
 15 17  1  0  0  0  0
 17 18  1  0  0  0  0
 17 19  2  0  0  0  0
 19 20  1  0  0  0  0
 20 21  1  0  0  0  0
 22 23  2  0  0  0  0
 22 24  1  0  0  0  0
 24 25  1  0  0  0  0
 24 26  1  0  0  0  0
 26 27  1  0  0  0  0
 26 28  1  0  0  0  0
 26 29  1  0  0  0  0
M  END
$$$$

  -OEChem-01062216083D

 29 29  0     1  0  0  0  0  0999 V2000
   -3.1523   -2.5569    1.1681 H   0  0  0  0  0  0  0  0  0  0  0  0
   -3.1098   -1.6400    0.5738 C   0  0  0  0  0  0  0  0  0  0  0  0
   -3.8399   -0.9294    0.9684 H   0  0  0  0  0  0  0  0  0  0  0  0
   -3.3659   -1.8799   -0.4610 H   0  0  0  0  0  0  0  0  0  0  0  0
   -1.7179   -1.0413    0.6366 C   0  0  0  0  0  0  0  0  0  0  0  0
   -0.8608   -1.5442    1.3488 O   0  0  0  0  0  0  0  0  0  0  0  0
   -1.4221    0.0948   -0.0864 N   0  0  0  0  0  0  0  0  0  0  0  0
   -2.1737    0.5378   -0.6068 H   0  0  0  0  0  0  0  0  0  0  0  0
   -0.0904    0.7172   -0.0932 C   0  0  1  0  0  0  0  0  0  0  0  0
    0.6827   -0.0420    0.0651 H   0  0  0  0  0  0  0  0  0  0  0  0
    0.1664    1.3611   -1.4659 C   0  0  0  0  0  0  0  0  0  0  0  0
   -0.6201    2.0924   -1.6827 H   0  0  0  0  0  0  0  0  0  0  0  0
    1.1192    1.9006   -1.4521 H   0  0  0  0  0  0  0  0  0  0  0  0
    0.2027    0.3138   -2.5492 C   0  0  0  0  0  0  0  0  0  0  0  0
    1.2119   -0.5838   -2.8196 N   0  0  0  0  0  0  0  0  0  0  0  0
    2.0819   -0.6899   -2.3023 H   0  0  0  0  0  0  0  0  0  0  0  0
    0.8382   -1.3416   -3.9138 C   0  0  0  0  0  0  0  0  0  0  0  0
    1.4314   -2.1388   -4.3530 H   0  0  0  0  0  0  0  0  0  0  0  0
   -0.3390   -0.9587   -4.3475 N   0  0  0  0  0  0  0  0  0  0  0  0
   -0.7411    0.0787   -3.5136 C   0  0  0  0  0  0  0  0  0  0  0  0
   -1.6744    0.6247   -3.6133 H   0  0  0  0  0  0  0  0  0  0  0  0
    0.0286    1.7621    1.0321 C   0  0  0  0  0  0  0  0  0  0  0  0
   -0.4700    2.8747    0.9084 O   0  0  0  0  0  0  0  0  0  0  0  0
    0.7608    1.4591    2.1644 N   0  0  0  0  0  0  0  0  0  0  0  0
    0.9776    0.4738    2.3049 H   0  0  0  0  0  0  0  0  0  0  0  0
    0.8594    2.3604    3.3056 C   0  0  0  0  0  0  0  0  0  0  0  0
   -0.1301    2.5380    3.7395 H   0  0  0  0  0  0  0  0  0  0  0  0
    1.5043    1.9261    4.0757 H   0  0  0  0  0  0  0  0  0  0  0  0
    1.2881    3.3208    3.0002 H   0  0  0  0  0  0  0  0  0  0  0  0
  1  2  1  0  0  0  0
  2  3  1  0  0  0  0
  2  4  1  0  0  0  0
  2  5  1  0  0  0  0
  5  6  2  0  0  0  0
  5  7  1  0  0  0  0
  7  8  1  0  0  0  0
  7  9  1  0  0  0  0
  9 10  1  0  0  0  0
  9 11  1  0  0  0  0
  9 22  1  0  0  0  0
 11 12  1  0  0  0  0
 11 13  1  0  0  0  0
 11 14  1  0  0  0  0
 14 15  1  0  0  0  0
 14 20  2  0  0  0  0
 15 16  1  0  0  0  0
 15 17  1  0  0  0  0
 17 18  1  0  0  0  0
 17 19  2  0  0  0  0
 19 20  1  0  0  0  0
 20 21  1  0  0  0  0
 22 23  2  0  0  0  0
 22 24  1  0  0  0  0
 24 25  1  0  0  0  0
 24 26  1  0  0  0  0
 26 27  1  0  0  0  0
 26 28  1  0  0  0  0
 26 29  1  0  0  0  0
M  END
$$$$

  -OEChem-01062216083D

 29 29  0     1  0  0  0  0  0999 V2000
   -3.1865   -2.5050    1.2566 H   0  0  0  0  0  0  0  0  0  0  0  0
   -3.1329   -1.6031    0.6406 C   0  0  0  0  0  0  0  0  0  0  0  0
   -3.8022   -0.8486    1.0608 H   0  0  0  0  0  0  0  0  0  0  0  0
   -3.4605   -1.8487   -0.3726 H   0  0  0  0  0  0  0  0  0  0  0  0
   -1.7112   -1.0759    0.6102 C   0  0  0  0  0  0  0  0  0  0  0  0
   -0.8332   -1.6393    1.2469 O   0  0  0  0  0  0  0  0  0  0  0  0
   -1.4140    0.0593   -0.1142 N   0  0  0  0  0  0  0  0  0  0  0  0
   -2.1937    0.5837   -0.5009 H   0  0  0  0  0  0  0  0  0  0  0  0
   -0.0856    0.6896   -0.1085 C   0  0  1  0  0  0  0  0  0  0  0  0
    0.6905   -0.0652    0.0542 H   0  0  0  0  0  0  0  0  0  0  0  0
    0.1753    1.3473   -1.4727 C   0  0  0  0  0  0  0  0  0  0  0  0
   -0.6147    2.0760   -1.6853 H   0  0  0  0  0  0  0  0  0  0  0  0
    1.1250    1.8913   -1.4486 H   0  0  0  0  0  0  0  0  0  0  0  0
    0.2241    0.3125   -2.5670 C   0  0  0  0  0  0  0  0  0  0  0  0
    1.2380   -0.5775   -2.8444 N   0  0  0  0  0  0  0  0  0  0  0  0
    2.1054   -0.6889   -2.3240 H   0  0  0  0  0  0  0  0  0  0  0  0
    0.8694   -1.3252   -3.9472 C   0  0  0  0  0  0  0  0  0  0  0  0
    1.4664   -2.1156   -4.3931 H   0  0  0  0  0  0  0  0  0  0  0  0
   -0.3078   -0.9426   -4.3806 N   0  0  0  0  0  0  0  0  0  0  0  0
   -0.7174    0.0823   -3.5350 C   0  0  0  0  0  0  0  0  0  0  0  0
   -1.6539    0.6236   -3.6295 H   0  0  0  0  0  0  0  0  0  0  0  0
    0.0197    1.7413    1.0114 C   0  0  0  0  0  0  0  0  0  0  0  0
   -0.7032    2.7308    0.9933 O   0  0  0  0  0  0  0  0  0  0  0  0
    0.9716    1.6055    2.0046 N   0  0  0  0  0  0  0  0  0  0  0  0
    1.4239    0.6975    2.0793 H   0  0  0  0  0  0  0  0  0  0  0  0
    1.0805    2.5302    3.1265 C   0  0  0  0  0  0  0  0  0  0  0  0
    0.1639    2.5153    3.7255 H   0  0  0  0  0  0  0  0  0  0  0  0
    1.9204    2.2478    3.7686 H   0  0  0  0  0  0  0  0  0  0  0  0
    1.2504    3.5509    2.7676 H   0  0  0  0  0  0  0  0  0  0  0  0
  1  2  1  0  0  0  0
  2  3  1  0  0  0  0
  2  4  1  0  0  0  0
  2  5  1  0  0  0  0
  5  6  2  0  0  0  0
  5  7  1  0  0  0  0
  7  8  1  0  0  0  0
  7  9  1  0  0  0  0
  9 10  1  0  0  0  0
  9 11  1  0  0  0  0
  9 22  1  0  0  0  0
 11 12  1  0  0  0  0
 11 13  1  0  0  0  0
 11 14  1  0  0  0  0
 14 15  1  0  0  0  0
 14 20  2  0  0  0  0
 15 16  1  0  0  0  0
 15 17  1  0  0  0  0
 17 18  1  0  0  0  0
 17 19  2  0  0  0  0
 19 20  1  0  0  0  0
 20 21  1  0  0  0  0
 22 23  2  0  0  0  0
 22 24  1  0  0  0  0
 24 25  1  0  0  0  0
 24 26  1  0  0  0  0
 26 27  1  0  0  0  0
 26 28  1  0  0  0  0
 26 29  1  0  0  0  0
M  END
$$$$

  -OEChem-01062216083D

 29 29  0     1  0  0  0  0  0999 V2000
   -3.1998   -2.4852    1.2944 H   0  0  0  0  0  0  0  0  0  0  0  0
   -3.1458   -1.5840    0.6775 C   0  0  0  0  0  0  0  0  0  0  0  0
   -3.7790   -0.8129    1.1229 H   0  0  0  0  0  0  0  0  0  0  0  0
   -3.5171   -1.8192   -0.3229 H   0  0  0  0  0  0  0  0  0  0  0  0
   -1.7133   -1.0931    0.5943 C   0  0  0  0  0  0  0  0  0  0  0  0
   -0.8258   -1.6891    1.1864 O   0  0  0  0  0  0  0  0  0  0  0  0
   -1.4183    0.0410   -0.1330 N   0  0  0  0  0  0  0  0  0  0  0  0
   -2.2075    0.6033   -0.4397 H   0  0  0  0  0  0  0  0  0  0  0  0
   -0.0915    0.6765   -0.1165 C   0  0  1  0  0  0  0  0  0  0  0  0
    0.6853   -0.0760    0.0535 H   0  0  0  0  0  0  0  0  0  0  0  0
    0.1753    1.3401   -1.4758 C   0  0  0  0  0  0  0  0  0  0  0  0
   -0.6172    2.0659   -1.6888 H   0  0  0  0  0  0  0  0  0  0  0  0
    1.1223    1.8884   -1.4448 H   0  0  0  0  0  0  0  0  0  0  0  0
    0.2350    0.3113   -2.5752 C   0  0  0  0  0  0  0  0  0  0  0  0
    1.2530   -0.5744   -2.8524 N   0  0  0  0  0  0  0  0  0  0  0  0
    2.1156   -0.6898   -2.3253 H   0  0  0  0  0  0  0  0  0  0  0  0
    0.8920   -1.3172   -3.9611 C   0  0  0  0  0  0  0  0  0  0  0  0
    1.4931   -2.1039   -4.4080 H   0  0  0  0  0  0  0  0  0  0  0  0
   -0.2835   -0.9347   -4.3991 N   0  0  0  0  0  0  0  0  0  0  0  0
   -0.7015    0.0826   -3.5484 C   0  0  0  0  0  0  0  0  0  0  0  0
   -1.6403    0.6201   -3.6430 H   0  0  0  0  0  0  0  0  0  0  0  0
    0.0055    1.7341    0.9989 C   0  0  0  0  0  0  0  0  0  0  0  0
   -0.8740    2.5800    1.1152 O   0  0  0  0  0  0  0  0  0  0  0  0
    1.1204    1.7902    1.8148 N   0  0  0  0  0  0  0  0  0  0  0  0
    1.7545    0.9966    1.7821 H   0  0  0  0  0  0  0  0  0  0  0  0
    1.2528    2.7431    2.9102 C   0  0  0  0  0  0  0  0  0  0  0  0
    0.4672    2.5815    3.6558 H   0  0  0  0  0  0  0  0  0  0  0  0
    2.2248    2.6250    3.3985 H   0  0  0  0  0  0  0  0  0  0  0  0
    1.1786    3.7700    2.5369 H   0  0  0  0  0  0  0  0  0  0  0  0
  1  2  1  0  0  0  0
  2  3  1  0  0  0  0
  2  4  1  0  0  0  0
  2  5  1  0  0  0  0
  5  6  2  0  0  0  0
  5  7  1  0  0  0  0
  7  8  1  0  0  0  0
  7  9  1  0  0  0  0
  9 10  1  0  0  0  0
  9 11  1  0  0  0  0
  9 22  1  0  0  0  0
 11 12  1  0  0  0  0
 11 13  1  0  0  0  0
 11 14  1  0  0  0  0
 14 15  1  0  0  0  0
 14 20  2  0  0  0  0
 15 16  1  0  0  0  0
 15 17  1  0  0  0  0
 17 18  1  0  0  0  0
 17 19  2  0  0  0  0
 19 20  1  0  0  0  0
 20 21  1  0  0  0  0
 22 23  2  0  0  0  0
 22 24  1  0  0  0  0
 24 25  1  0  0  0  0
 24 26  1  0  0  0  0
 26 27  1  0  0  0  0
 26 28  1  0  0  0  0
 26 29  1  0  0  0  0
M  END
$$$$

  -OEChem-01062216083D

 29 29  0     1  0  0  0  0  0999 V2000
   -3.2048   -2.4694    1.3253 H   0  0  0  0  0  0  0  0  0  0  0  0
   -3.1540   -1.5695    0.7064 C   0  0  0  0  0  0  0  0  0  0  0  0
   -3.7580   -0.7874    1.1725 H   0  0  0  0  0  0  0  0  0  0  0  0
   -3.5624   -1.7977   -0.2810 H   0  0  0  0  0  0  0  0  0  0  0  0
   -1.7161   -1.1051    0.5761 C   0  0  0  0  0  0  0  0  0  0  0  0
   -0.8211   -1.7267    1.1292 O   0  0  0  0  0  0  0  0  0  0  0  0
   -1.4267    0.0305   -0.1517 N   0  0  0  0  0  0  0  0  0  0  0  0
   -2.2207    0.6153   -0.3979 H   0  0  0  0  0  0  0  0  0  0  0  0
   -0.1017    0.6714   -0.1225 C   0  0  1  0  0  0  0  0  0  0  0  0
    0.6769   -0.0774    0.0542 H   0  0  0  0  0  0  0  0  0  0  0  0
    0.1704    1.3379   -1.4789 C   0  0  0  0  0  0  0  0  0  0  0  0
   -0.6245    2.0603   -1.6947 H   0  0  0  0  0  0  0  0  0  0  0  0
    1.1150    1.8903   -1.4430 H   0  0  0  0  0  0  0  0  0  0  0  0
    0.2416    0.3107   -2.5796 C   0  0  0  0  0  0  0  0  0  0  0  0
    1.2648   -0.5706   -2.8528 N   0  0  0  0  0  0  0  0  0  0  0  0
    2.1218   -0.6893   -2.3175 H   0  0  0  0  0  0  0  0  0  0  0  0
    0.9130   -1.3129   -3.9648 C   0  0  0  0  0  0  0  0  0  0  0  0
    1.5193   -2.0976   -4.4082 H   0  0  0  0  0  0  0  0  0  0  0  0
   -0.2603   -0.9330   -4.4103 N   0  0  0  0  0  0  0  0  0  0  0  0
   -0.6879    0.0801   -3.5592 C   0  0  0  0  0  0  0  0  0  0  0  0
   -1.6286    0.6134   -3.6581 H   0  0  0  0  0  0  0  0  0  0  0  0
   -0.0112    1.7320    0.9920 C   0  0  0  0  0  0  0  0  0  0  0  0
   -0.9888    2.4204    1.2632 O   0  0  0  0  0  0  0  0  0  0  0  0
    1.1992    1.9984    1.6063 N   0  0  0  0  0  0  0  0  0  0  0  0
    1.9596    1.3465    1.4362 H   0  0  0  0  0  0  0  0  0  0  0  0
    1.3483    2.9816    2.6728 C   0  0  0  0  0  0  0  0  0  0  0  0
    0.7401    2.7025    3.5397 H   0  0  0  0  0  0  0  0  0  0  0  0
    2.3945    3.0420    2.9878 H   0  0  0  0  0  0  0  0  0  0  0  0
    1.0352    3.9726    2.3275 H   0  0  0  0  0  0  0  0  0  0  0  0
  1  2  1  0  0  0  0
  2  3  1  0  0  0  0
  2  4  1  0  0  0  0
  2  5  1  0  0  0  0
  5  6  2  0  0  0  0
  5  7  1  0  0  0  0
  7  8  1  0  0  0  0
  7  9  1  0  0  0  0
  9 10  1  0  0  0  0
  9 11  1  0  0  0  0
  9 22  1  0  0  0  0
 11 12  1  0  0  0  0
 11 13  1  0  0  0  0
 11 14  1  0  0  0  0
 14 15  1  0  0  0  0
 14 20  2  0  0  0  0
 15 16  1  0  0  0  0
 15 17  1  0  0  0  0
 17 18  1  0  0  0  0
 17 19  2  0  0  0  0
 19 20  1  0  0  0  0
 20 21  1  0  0  0  0
 22 23  2  0  0  0  0
 22 24  1  0  0  0  0
 24 25  1  0  0  0  0
 24 26  1  0  0  0  0
 26 27  1  0  0  0  0
 26 28  1  0  0  0  0
 26 29  1  0  0  0  0
M  END
$$$$

  -OEChem-01062216083D

 29 29  0     1  0  0  0  0  0999 V2000
   -3.2073   -2.4578    1.3374 H   0  0  0  0  0  0  0  0  0  0  0  0
   -3.1576   -1.5591    0.7166 C   0  0  0  0  0  0  0  0  0  0  0  0
   -3.7447   -0.7697    1.1920 H   0  0  0  0  0  0  0  0  0  0  0  0
   -3.5849   -1.7835   -0.2636 H   0  0  0  0  0  0  0  0  0  0  0  0
   -1.7173   -1.1105    0.5617 C   0  0  0  0  0  0  0  0  0  0  0  0
   -0.8186   -1.7538    1.0833 O   0  0  0  0  0  0  0  0  0  0  0  0
   -1.4314    0.0275   -0.1641 N   0  0  0  0  0  0  0  0  0  0  0  0
   -2.2277    0.6246   -0.3690 H   0  0  0  0  0  0  0  0  0  0  0  0
   -0.1077    0.6719   -0.1229 C   0  0  1  0  0  0  0  0  0  0  0  0
    0.6731   -0.0733    0.0603 H   0  0  0  0  0  0  0  0  0  0  0  0
    0.1644    1.3355   -1.4820 C   0  0  0  0  0  0  0  0  0  0  0  0
   -0.6346    2.0521   -1.7016 H   0  0  0  0  0  0  0  0  0  0  0  0
    1.1054    1.8940   -1.4487 H   0  0  0  0  0  0  0  0  0  0  0  0
    0.2436    0.3062   -2.5806 C   0  0  0  0  0  0  0  0  0  0  0  0
    1.2707   -0.5716   -2.8515 N   0  0  0  0  0  0  0  0  0  0  0  0
    2.1213   -0.6956   -2.3071 H   0  0  0  0  0  0  0  0  0  0  0  0
    0.9246   -1.3151   -3.9649 C   0  0  0  0  0  0  0  0  0  0  0  0
    1.5334   -2.0990   -4.4063 H   0  0  0  0  0  0  0  0  0  0  0  0
   -0.2477   -0.9374   -4.4149 N   0  0  0  0  0  0  0  0  0  0  0  0
   -0.6815    0.0731   -3.5641 C   0  0  0  0  0  0  0  0  0  0  0  0
   -1.6231    0.6039   -3.6669 H   0  0  0  0  0  0  0  0  0  0  0  0
   -0.0229    1.7336    0.9942 C   0  0  0  0  0  0  0  0  0  0  0  0
   -1.0441    2.2455    1.4400 O   0  0  0  0  0  0  0  0  0  0  0  0
    1.2065    2.2226    1.3994 N   0  0  0  0  0  0  0  0  0  0  0  0
    2.0347    1.7358    1.0696 H   0  0  0  0  0  0  0  0  0  0  0  0
    1.3581    3.2380    2.4353 C   0  0  0  0  0  0  0  0  0  0  0  0
    0.9687    2.8719    3.3912 H   0  0  0  0  0  0  0  0  0  0  0  0
    2.4149    3.4905    2.5651 H   0  0  0  0  0  0  0  0  0  0  0  0
    0.8179    4.1503    2.1609 H   0  0  0  0  0  0  0  0  0  0  0  0
  1  2  1  0  0  0  0
  2  3  1  0  0  0  0
  2  4  1  0  0  0  0
  2  5  1  0  0  0  0
  5  6  2  0  0  0  0
  5  7  1  0  0  0  0
  7  8  1  0  0  0  0
  7  9  1  0  0  0  0
  9 10  1  0  0  0  0
  9 11  1  0  0  0  0
  9 22  1  0  0  0  0
 11 12  1  0  0  0  0
 11 13  1  0  0  0  0
 11 14  1  0  0  0  0
 14 15  1  0  0  0  0
 14 20  2  0  0  0  0
 15 16  1  0  0  0  0
 15 17  1  0  0  0  0
 17 18  1  0  0  0  0
 17 19  2  0  0  0  0
 19 20  1  0  0  0  0
 20 21  1  0  0  0  0
 22 23  2  0  0  0  0
 22 24  1  0  0  0  0
 24 25  1  0  0  0  0
 24 26  1  0  0  0  0
 26 27  1  0  0  0  0
 26 28  1  0  0  0  0
 26 29  1  0  0  0  0
M  END
$$$$

  -OEChem-01062216083D

 29 29  0     1  0  0  0  0  0999 V2000
   -3.1403   -2.4832    1.3637 H   0  0  0  0  0  0  0  0  0  0  0  0
   -3.1271   -1.5535    0.7885 C   0  0  0  0  0  0  0  0  0  0  0  0
   -3.6425   -0.7785    1.3610 H   0  0  0  0  0  0  0  0  0  0  0  0
   -3.6539   -1.7142   -0.1550 H   0  0  0  0  0  0  0  0  0  0  0  0
   -1.6970   -1.1280    0.5173 C   0  0  0  0  0  0  0  0  0  0  0  0
   -0.7678   -1.8106    0.9233 O   0  0  0  0  0  0  0  0  0  0  0  0
   -1.4495    0.0237   -0.2030 N   0  0  0  0  0  0  0  0  0  0  0  0
   -2.2568    0.6247   -0.3360 H   0  0  0  0  0  0  0  0  0  0  0  0
   -0.1302    0.6780   -0.1500 C   0  0  1  0  0  0  0  0  0  0  0  0
    0.6587   -0.0763   -0.2369 H   0  0  0  0  0  0  0  0  0  0  0  0
   -0.0153    1.6434   -1.3424 C   0  0  0  0  0  0  0  0  0  0  0  0
   -0.8362    2.3675   -1.3024 H   0  0  0  0  0  0  0  0  0  0  0  0
    0.9210    2.2070   -1.2900 H   0  0  0  0  0  0  0  0  0  0  0  0
   -0.0541    0.8952   -2.6501 C   0  0  0  0  0  0  0  0  0  0  0  0
    0.9443    0.1358   -3.2204 N   0  0  0  0  0  0  0  0  0  0  0  0
    1.8503   -0.0810   -2.8109 H   0  0  0  0  0  0  0  0  0  0  0  0
    0.4869   -0.3420   -4.4345 C   0  0  0  0  0  0  0  0  0  0  0  0
    1.0509   -0.9837   -5.1055 H   0  0  0  0  0  0  0  0  0  0  0  0
   -0.7292    0.0923   -4.6626 N   0  0  0  0  0  0  0  0  0  0  0  0
   -1.0771    0.8663   -3.5613 C   0  0  0  0  0  0  0  0  0  0  0  0
   -2.0272    1.3785   -3.4426 H   0  0  0  0  0  0  0  0  0  0  0  0
    0.0960    1.4433    1.1768 C   0  0  0  0  0  0  0  0  0  0  0  0
   -0.8302    1.6203    1.9607 O   0  0  0  0  0  0  0  0  0  0  0  0
    1.2851    2.1165    1.4020 N   0  0  0  0  0  0  0  0  0  0  0  0
    2.0592    1.9208    0.7749 H   0  0  0  0  0  0  0  0  0  0  0  0
    1.5448    2.8904    2.6106 C   0  0  0  0  0  0  0  0  0  0  0  0
    1.4745    2.2509    3.4969 H   0  0  0  0  0  0  0  0  0  0  0  0
    2.5489    3.3235    2.5745 H   0  0  0  0  0  0  0  0  0  0  0  0
    0.8210    3.7066    2.7068 H   0  0  0  0  0  0  0  0  0  0  0  0
  1  2  1  0  0  0  0
  2  3  1  0  0  0  0
  2  4  1  0  0  0  0
  2  5  1  0  0  0  0
  5  6  2  0  0  0  0
  5  7  1  0  0  0  0
  7  8  1  0  0  0  0
  7  9  1  0  0  0  0
  9 10  1  0  0  0  0
  9 11  1  0  0  0  0
  9 22  1  0  0  0  0
 11 12  1  0  0  0  0
 11 13  1  0  0  0  0
 11 14  1  0  0  0  0
 14 15  1  0  0  0  0
 14 20  2  0  0  0  0
 15 16  1  0  0  0  0
 15 17  1  0  0  0  0
 17 18  1  0  0  0  0
 17 19  2  0  0  0  0
 19 20  1  0  0  0  0
 20 21  1  0  0  0  0
 22 23  2  0  0  0  0
 22 24  1  0  0  0  0
 24 25  1  0  0  0  0
 24 26  1  0  0  0  0
 26 27  1  0  0  0  0
 26 28  1  0  0  0  0
 26 29  1  0  0  0  0
M  END
$$$$

  -OEChem-01062216083D

 29 29  0     1  0  0  0  0  0999 V2000
   -3.1305   -2.4442    1.4071 H   0  0  0  0  0  0  0  0  0  0  0  0
   -3.1229   -1.5393    0.7934 C   0  0  0  0  0  0  0  0  0  0  0  0
   -3.6390   -0.7433    1.3356 H   0  0  0  0  0  0  0  0  0  0  0  0
   -3.6523   -1.7407   -0.1407 H   0  0  0  0  0  0  0  0  0  0  0  0
   -1.6949   -1.1212    0.4996 C   0  0  0  0  0  0  0  0  0  0  0  0
   -0.7653   -1.8275    0.8614 O   0  0  0  0  0  0  0  0  0  0  0  0
   -1.4516    0.0386   -0.2106 N   0  0  0  0  0  0  0  0  0  0  0  0
   -2.2606    0.6395   -0.3304 H   0  0  0  0  0  0  0  0  0  0  0  0
   -0.1318    0.6941   -0.1551 C   0  0  1  0  0  0  0  0  0  0  0  0
    0.6581   -0.0595   -0.2430 H   0  0  0  0  0  0  0  0  0  0  0  0
   -0.0211    1.6497   -1.3584 C   0  0  0  0  0  0  0  0  0  0  0  0
   -0.8432    2.3726   -1.3250 H   0  0  0  0  0  0  0  0  0  0  0  0
    0.9146    2.2149   -1.3184 H   0  0  0  0  0  0  0  0  0  0  0  0
   -0.0575    0.8882   -2.6588 C   0  0  0  0  0  0  0  0  0  0  0  0
    0.9429    0.1267   -3.2229 N   0  0  0  0  0  0  0  0  0  0  0  0
    1.8479   -0.0872   -2.8099 H   0  0  0  0  0  0  0  0  0  0  0  0
    0.4858   -0.3650   -4.4315 C   0  0  0  0  0  0  0  0  0  0  0  0
    1.0508   -1.0122   -5.0961 H   0  0  0  0  0  0  0  0  0  0  0  0
   -0.7312    0.0644   -4.6631 N   0  0  0  0  0  0  0  0  0  0  0  0
   -1.0808    0.8477   -3.5691 C   0  0  0  0  0  0  0  0  0  0  0  0
   -2.0322    1.3586   -3.4553 H   0  0  0  0  0  0  0  0  0  0  0  0
    0.1003    1.4499    1.1809 C   0  0  0  0  0  0  0  0  0  0  0  0
   -0.7303    1.4013    2.0813 O   0  0  0  0  0  0  0  0  0  0  0  0
    1.1303    2.3684    1.3063 N   0  0  0  0  0  0  0  0  0  0  0  0
    1.8359    2.3841    0.5767 H   0  0  0  0  0  0  0  0  0  0  0  0
    1.3582    3.1545    2.5143 C   0  0  0  0  0  0  0  0  0  0  0  0
    1.5543    2.4973    3.3682 H   0  0  0  0  0  0  0  0  0  0  0  0
    2.2208    3.8140    2.3796 H   0  0  0  0  0  0  0  0  0  0  0  0
    0.4837    3.7739    2.7407 H   0  0  0  0  0  0  0  0  0  0  0  0
  1  2  1  0  0  0  0
  2  3  1  0  0  0  0
  2  4  1  0  0  0  0
  2  5  1  0  0  0  0
  5  6  2  0  0  0  0
  5  7  1  0  0  0  0
  7  8  1  0  0  0  0
  7  9  1  0  0  0  0
  9 10  1  0  0  0  0
  9 11  1  0  0  0  0
  9 22  1  0  0  0  0
 11 12  1  0  0  0  0
 11 13  1  0  0  0  0
 11 14  1  0  0  0  0
 14 15  1  0  0  0  0
 14 20  2  0  0  0  0
 15 16  1  0  0  0  0
 15 17  1  0  0  0  0
 17 18  1  0  0  0  0
 17 19  2  0  0  0  0
 19 20  1  0  0  0  0
 20 21  1  0  0  0  0
 22 23  2  0  0  0  0
 22 24  1  0  0  0  0
 24 25  1  0  0  0  0
 24 26  1  0  0  0  0
 26 27  1  0  0  0  0
 26 28  1  0  0  0  0
 26 29  1  0  0  0  0
M  END
$$$$

  -OEChem-01062216083D

 29 29  0     1  0  0  0  0  0999 V2000
   -3.1246   -2.4670    1.3681 H   0  0  0  0  0  0  0  0  0  0  0  0
   -3.1193   -1.5273    0.8087 C   0  0  0  0  0  0  0  0  0  0  0  0
   -3.6008   -0.7557    1.4143 H   0  0  0  0  0  0  0  0  0  0  0  0
   -3.6837   -1.6638   -0.1167 H   0  0  0  0  0  0  0  0  0  0  0  0
   -1.6939   -1.1175    0.4913 C   0  0  0  0  0  0  0  0  0  0  0  0
   -0.7654   -1.8462    0.8073 O   0  0  0  0  0  0  0  0  0  0  0  0
   -1.4563    0.0493   -0.2106 N   0  0  0  0  0  0  0  0  0  0  0  0
   -2.2688    0.6461   -0.3245 H   0  0  0  0  0  0  0  0  0  0  0  0
   -0.1385    0.7107   -0.1604 C   0  0  1  0  0  0  0  0  0  0  0  0
    0.6522   -0.0421   -0.2461 H   0  0  0  0  0  0  0  0  0  0  0  0
   -0.0286    1.6521   -1.3760 C   0  0  0  0  0  0  0  0  0  0  0  0
   -0.8506    2.3755   -1.3529 H   0  0  0  0  0  0  0  0  0  0  0  0
    0.9091    2.2141   -1.3457 H   0  0  0  0  0  0  0  0  0  0  0  0
   -0.0596    0.8768   -2.6675 C   0  0  0  0  0  0  0  0  0  0  0  0
    0.9448    0.1127   -3.2205 N   0  0  0  0  0  0  0  0  0  0  0  0
    1.8452   -0.1029   -2.7979 H   0  0  0  0  0  0  0  0  0  0  0  0
    0.4956   -0.3862   -4.4293 C   0  0  0  0  0  0  0  0  0  0  0  0
    1.0649   -1.0380   -5.0859 H   0  0  0  0  0  0  0  0  0  0  0  0
   -0.7196    0.0427   -4.6723 N   0  0  0  0  0  0  0  0  0  0  0  0
   -1.0764    0.8315   -3.5847 C   0  0  0  0  0  0  0  0  0  0  0  0
   -2.0275    1.3451   -3.4813 H   0  0  0  0  0  0  0  0  0  0  0  0
    0.1027    1.4605    1.1804 C   0  0  0  0  0  0  0  0  0  0  0  0
   -0.5611    1.1970    2.1757 O   0  0  0  0  0  0  0  0  0  0  0  0
    0.9071    2.5886    1.2380 N   0  0  0  0  0  0  0  0  0  0  0  0
    1.4668    2.8111    0.4213 H   0  0  0  0  0  0  0  0  0  0  0  0
    1.1002    3.3772    2.4505 C   0  0  0  0  0  0  0  0  0  0  0  0
    1.5307    2.7586    3.2450 H   0  0  0  0  0  0  0  0  0  0  0  0
    1.7802    4.2120    2.2549 H   0  0  0  0  0  0  0  0  0  0  0  0
    0.1457    3.7854    2.7992 H   0  0  0  0  0  0  0  0  0  0  0  0
  1  2  1  0  0  0  0
  2  3  1  0  0  0  0
  2  4  1  0  0  0  0
  2  5  1  0  0  0  0
  5  6  2  0  0  0  0
  5  7  1  0  0  0  0
  7  8  1  0  0  0  0
  7  9  1  0  0  0  0
  9 10  1  0  0  0  0
  9 11  1  0  0  0  0
  9 22  1  0  0  0  0
 11 12  1  0  0  0  0
 11 13  1  0  0  0  0
 11 14  1  0  0  0  0
 14 15  1  0  0  0  0
 14 20  2  0  0  0  0
 15 16  1  0  0  0  0
 15 17  1  0  0  0  0
 17 18  1  0  0  0  0
 17 19  2  0  0  0  0
 19 20  1  0  0  0  0
 20 21  1  0  0  0  0
 22 23  2  0  0  0  0
 22 24  1  0  0  0  0
 24 25  1  0  0  0  0
 24 26  1  0  0  0  0
 26 27  1  0  0  0  0
 26 28  1  0  0  0  0
 26 29  1  0  0  0  0
M  END
$$$$

  -OEChem-01062216083D

 29 29  0     1  0  0  0  0  0999 V2000
   -3.1159   -2.4506    1.3824 H   0  0  0  0  0  0  0  0  0  0  0  0
   -3.1175   -1.5137    0.8186 C   0  0  0  0  0  0  0  0  0  0  0  0
   -3.5911   -0.7395    1.4270 H   0  0  0  0  0  0  0  0  0  0  0  0
   -3.6930   -1.6544   -0.0994 H   0  0  0  0  0  0  0  0  0  0  0  0
   -1.6957   -1.1075    0.4820 C   0  0  0  0  0  0  0  0  0  0  0  0
   -0.7686   -1.8530    0.7587 O   0  0  0  0  0  0  0  0  0  0  0  0
   -1.4644    0.0653   -0.2122 N   0  0  0  0  0  0  0  0  0  0  0  0
   -2.2806    0.6560   -0.3291 H   0  0  0  0  0  0  0  0  0  0  0  0
   -0.1494    0.7331   -0.1707 C   0  0  1  0  0  0  0  0  0  0  0  0
    0.6418   -0.0195   -0.2552 H   0  0  0  0  0  0  0  0  0  0  0  0
   -0.0339    1.6625   -1.3938 C   0  0  0  0  0  0  0  0  0  0  0  0
   -0.8553    2.3868   -1.3835 H   0  0  0  0  0  0  0  0  0  0  0  0
    0.9067    2.2203   -1.3617 H   0  0  0  0  0  0  0  0  0  0  0  0
   -0.0584    0.8720   -2.6762 C   0  0  0  0  0  0  0  0  0  0  0  0
    0.9503    0.1024   -3.2134 N   0  0  0  0  0  0  0  0  0  0  0  0
    1.8477   -0.1077   -2.7815 H   0  0  0  0  0  0  0  0  0  0  0  0
    0.5094   -0.4124   -4.4185 C   0  0  0  0  0  0  0  0  0  0  0  0
    1.0842   -1.0709   -5.0637 H   0  0  0  0  0  0  0  0  0  0  0  0
   -0.7053    0.0112   -4.6740 N   0  0  0  0  0  0  0  0  0  0  0  0
   -1.0699    0.8124   -3.5984 C   0  0  0  0  0  0  0  0  0  0  0  0
   -2.0227    1.3249   -3.5069 H   0  0  0  0  0  0  0  0  0  0  0  0
    0.0993    1.4756    1.1729 C   0  0  0  0  0  0  0  0  0  0  0  0
   -0.3205    1.0219    2.2290 O   0  0  0  0  0  0  0  0  0  0  0  0
    0.6275    2.7578    1.2049 N   0  0  0  0  0  0  0  0  0  0  0  0
    0.9544    3.1587    0.3320 H   0  0  0  0  0  0  0  0  0  0  0  0
    0.7970    3.5274    2.4332 C   0  0  0  0  0  0  0  0  0  0  0  0
    1.4599    3.0002    3.1275 H   0  0  0  0  0  0  0  0  0  0  0  0
    1.2370    4.5043    2.2109 H   0  0  0  0  0  0  0  0  0  0  0  0
   -0.1700    3.6876    2.9219 H   0  0  0  0  0  0  0  0  0  0  0  0
  1  2  1  0  0  0  0
  2  3  1  0  0  0  0
  2  4  1  0  0  0  0
  2  5  1  0  0  0  0
  5  6  2  0  0  0  0
  5  7  1  0  0  0  0
  7  8  1  0  0  0  0
  7  9  1  0  0  0  0
  9 10  1  0  0  0  0
  9 11  1  0  0  0  0
  9 22  1  0  0  0  0
 11 12  1  0  0  0  0
 11 13  1  0  0  0  0
 11 14  1  0  0  0  0
 14 15  1  0  0  0  0
 14 20  2  0  0  0  0
 15 16  1  0  0  0  0
 15 17  1  0  0  0  0
 17 18  1  0  0  0  0
 17 19  2  0  0  0  0
 19 20  1  0  0  0  0
 20 21  1  0  0  0  0
 22 23  2  0  0  0  0
 22 24  1  0  0  0  0
 24 25  1  0  0  0  0
 24 26  1  0  0  0  0
 26 27  1  0  0  0  0
 26 28  1  0  0  0  0
 26 29  1  0  0  0  0
M  END
$$$$

  -OEChem-01062216083D

 29 29  0     1  0  0  0  0  0999 V2000
   -3.1295   -2.4555    1.3717 H   0  0  0  0  0  0  0  0  0  0  0  0
   -3.1284   -1.5196    0.8061 C   0  0  0  0  0  0  0  0  0  0  0  0
   -3.6195   -0.7483    1.4042 H   0  0  0  0  0  0  0  0  0  0  0  0
   -3.6868   -1.6664   -0.1215 H   0  0  0  0  0  0  0  0  0  0  0  0
   -1.7038   -1.1031    0.4937 C   0  0  0  0  0  0  0  0  0  0  0  0
   -0.7792   -1.8469    0.7792 O   0  0  0  0  0  0  0  0  0  0  0  0
   -1.4711    0.0695   -0.2004 N   0  0  0  0  0  0  0  0  0  0  0  0
   -2.2911    0.6459   -0.3551 H   0  0  0  0  0  0  0  0  0  0  0  0
   -0.1605    0.7456   -0.1676 C   0  0  1  0  0  0  0  0  0  0  0  0
    0.6323   -0.0064   -0.2474 H   0  0  0  0  0  0  0  0  0  0  0  0
   -0.0406    1.6678   -1.3951 C   0  0  0  0  0  0  0  0  0  0  0  0
   -0.8646    2.3892   -1.3967 H   0  0  0  0  0  0  0  0  0  0  0  0
    0.8987    2.2284   -1.3539 H   0  0  0  0  0  0  0  0  0  0  0  0
   -0.0571    0.8718   -2.6740 C   0  0  0  0  0  0  0  0  0  0  0  0
    0.9568    0.1023   -3.2013 N   0  0  0  0  0  0  0  0  0  0  0  0
    1.8518   -0.1042   -2.7620 H   0  0  0  0  0  0  0  0  0  0  0  0
    0.5242   -0.4205   -4.4060 C   0  0  0  0  0  0  0  0  0  0  0  0
    1.1040   -1.0816   -5.0439 H   0  0  0  0  0  0  0  0  0  0  0  0
   -0.6901   -0.0013   -4.6707 N   0  0  0  0  0  0  0  0  0  0  0  0
   -1.0630    0.8051   -3.6020 C   0  0  0  0  0  0  0  0  0  0  0  0
   -2.0178    1.3157   -3.5190 H   0  0  0  0  0  0  0  0  0  0  0  0
    0.0896    1.4924    1.1712 C   0  0  0  0  0  0  0  0  0  0  0  0
   -0.0303    0.9180    2.2435 O   0  0  0  0  0  0  0  0  0  0  0  0
    0.3109    2.8613    1.2053 N   0  0  0  0  0  0  0  0  0  0  0  0
    0.3820    3.3530    0.3206 H   0  0  0  0  0  0  0  0  0  0  0  0
    0.4771    3.6184    2.4417 C   0  0  0  0  0  0  0  0  0  0  0  0
    1.3407    3.2482    3.0043 H   0  0  0  0  0  0  0  0  0  0  0  0
    0.6383    4.6774    2.2187 H   0  0  0  0  0  0  0  0  0  0  0  0
   -0.4162    3.5300    3.0691 H   0  0  0  0  0  0  0  0  0  0  0  0
  1  2  1  0  0  0  0
  2  3  1  0  0  0  0
  2  4  1  0  0  0  0
  2  5  1  0  0  0  0
  5  6  2  0  0  0  0
  5  7  1  0  0  0  0
  7  8  1  0  0  0  0
  7  9  1  0  0  0  0
  9 10  1  0  0  0  0
  9 11  1  0  0  0  0
  9 22  1  0  0  0  0
 11 12  1  0  0  0  0
 11 13  1  0  0  0  0
 11 14  1  0  0  0  0
 14 15  1  0  0  0  0
 14 20  2  0  0  0  0
 15 16  1  0  0  0  0
 15 17  1  0  0  0  0
 17 18  1  0  0  0  0
 17 19  2  0  0  0  0
 19 20  1  0  0  0  0
 20 21  1  0  0  0  0
 22 23  2  0  0  0  0
 22 24  1  0  0  0  0
 24 25  1  0  0  0  0
 24 26  1  0  0  0  0
 26 27  1  0  0  0  0
 26 28  1  0  0  0  0
 26 29  1  0  0  0  0
M  END
$$$$

  -OEChem-01062216083D

 29 29  0     1  0  0  0  0  0999 V2000
   -3.1666   -2.4875    1.3168 H   0  0  0  0  0  0  0  0  0  0  0  0
   -3.1545   -1.5623    0.7338 C   0  0  0  0  0  0  0  0  0  0  0  0
   -3.7168   -0.7988    1.2763 H   0  0  0  0  0  0  0  0  0  0  0  0
   -3.6347   -1.7463   -0.2302 H   0  0  0  0  0  0  0  0  0  0  0  0
   -1.7251   -1.1015    0.5207 C   0  0  0  0  0  0  0  0  0  0  0  0
   -0.8026   -1.8100    0.8860 O   0  0  0  0  0  0  0  0  0  0  0  0
   -1.4817    0.0692   -0.1720 N   0  0  0  0  0  0  0  0  0  0  0  0
   -2.3019    0.6116   -0.4203 H   0  0  0  0  0  0  0  0  0  0  0  0
   -0.1769    0.7561   -0.1465 C   0  0  1  0  0  0  0  0  0  0  0  0
    0.6181    0.0058   -0.2239 H   0  0  0  0  0  0  0  0  0  0  0  0
   -0.0568    1.6762   -1.3743 C   0  0  0  0  0  0  0  0  0  0  0  0
   -0.8864    2.3908   -1.3849 H   0  0  0  0  0  0  0  0  0  0  0  0
    0.8776    2.2455   -1.3248 H   0  0  0  0  0  0  0  0  0  0  0  0
   -0.0660    0.8755   -2.6500 C   0  0  0  0  0  0  0  0  0  0  0  0
    0.9535    0.1087   -3.1699 N   0  0  0  0  0  0  0  0  0  0  0  0
    1.8495   -0.0878   -2.7277 H   0  0  0  0  0  0  0  0  0  0  0  0
    0.5281   -0.4211   -4.3741 C   0  0  0  0  0  0  0  0  0  0  0  0
    1.1132   -1.0820   -5.0075 H   0  0  0  0  0  0  0  0  0  0  0  0
   -0.6872   -0.0085   -4.6453 N   0  0  0  0  0  0  0  0  0  0  0  0
   -1.0668    0.8025   -3.5827 C   0  0  0  0  0  0  0  0  0  0  0  0
   -2.0229    1.3116   -3.5070 H   0  0  0  0  0  0  0  0  0  0  0  0
    0.0760    1.5117    1.1834 C   0  0  0  0  0  0  0  0  0  0  0  0
    0.3256    0.9069    2.2146 O   0  0  0  0  0  0  0  0  0  0  0  0
   -0.0195    2.8935    1.2529 N   0  0  0  0  0  0  0  0  0  0  0  0
   -0.2388    3.3978    0.4003 H   0  0  0  0  0  0  0  0  0  0  0  0
    0.1911    3.6521    2.4813 C   0  0  0  0  0  0  0  0  0  0  0  0
    1.2089    3.4998    2.8558 H   0  0  0  0  0  0  0  0  0  0  0  0
    0.0476    4.7207    2.2953 H   0  0  0  0  0  0  0  0  0  0  0  0
   -0.5191    3.3377    3.2534 H   0  0  0  0  0  0  0  0  0  0  0  0
  1  2  1  0  0  0  0
  2  3  1  0  0  0  0
  2  4  1  0  0  0  0
  2  5  1  0  0  0  0
  5  6  2  0  0  0  0
  5  7  1  0  0  0  0
  7  8  1  0  0  0  0
  7  9  1  0  0  0  0
  9 10  1  0  0  0  0
  9 11  1  0  0  0  0
  9 22  1  0  0  0  0
 11 12  1  0  0  0  0
 11 13  1  0  0  0  0
 11 14  1  0  0  0  0
 14 15  1  0  0  0  0
 14 20  2  0  0  0  0
 15 16  1  0  0  0  0
 15 17  1  0  0  0  0
 17 18  1  0  0  0  0
 17 19  2  0  0  0  0
 19 20  1  0  0  0  0
 20 21  1  0  0  0  0
 22 23  2  0  0  0  0
 22 24  1  0  0  0  0
 24 25  1  0  0  0  0
 24 26  1  0  0  0  0
 26 27  1  0  0  0  0
 26 28  1  0  0  0  0
 26 29  1  0  0  0  0
M  END
$$$$

  -OEChem-01062216083D

 29 29  0     1  0  0  0  0  0999 V2000
   -3.2134   -2.5791    1.1446 H   0  0  0  0  0  0  0  0  0  0  0  0
   -3.1715   -1.6604    0.5528 C   0  0  0  0  0  0  0  0  0  0  0  0
   -3.8841   -0.9435    0.9672 H   0  0  0  0  0  0  0  0  0  0  0  0
   -3.4520   -1.8929   -0.4774 H   0  0  0  0  0  0  0  0  0  0  0  0
   -1.7703   -1.0801    0.5905 C   0  0  0  0  0  0  0  0  0  0  0  0
   -0.8905   -1.6679    1.1928 O   0  0  0  0  0  0  0  0  0  0  0  0
   -1.4962    0.0818   -0.1038 N   0  0  0  0  0  0  0  0  0  0  0  0
   -2.2561    0.4829   -0.6427 H   0  0  0  0  0  0  0  0  0  0  0  0
   -0.1906    0.7669   -0.0956 C   0  0  1  0  0  0  0  0  0  0  0  0
    0.5981    0.0100   -0.1775 H   0  0  0  0  0  0  0  0  0  0  0  0
   -0.0772    1.6874   -1.3230 C   0  0  0  0  0  0  0  0  0  0  0  0
   -0.9024    2.4064   -1.3280 H   0  0  0  0  0  0  0  0  0  0  0  0
    0.8590    2.2543   -1.2771 H   0  0  0  0  0  0  0  0  0  0  0  0
   -0.1007    0.8839   -2.5969 C   0  0  0  0  0  0  0  0  0  0  0  0
    0.9149    0.1135   -3.1192 N   0  0  0  0  0  0  0  0  0  0  0  0
    1.8207   -0.0661   -2.6892 H   0  0  0  0  0  0  0  0  0  0  0  0
    0.4803   -0.4271   -4.3151 C   0  0  0  0  0  0  0  0  0  0  0  0
    1.0615   -1.0922   -4.9476 H   0  0  0  0  0  0  0  0  0  0  0  0
   -0.7392   -0.0199   -4.5772 N   0  0  0  0  0  0  0  0  0  0  0  0
   -1.1084    0.8044   -3.5215 C   0  0  0  0  0  0  0  0  0  0  0  0
   -2.0641    1.3138   -3.4431 H   0  0  0  0  0  0  0  0  0  0  0  0
    0.0825    1.5361    1.2193 C   0  0  0  0  0  0  0  0  0  0  0  0
    0.7661    1.0403    2.1022 O   0  0  0  0  0  0  0  0  0  0  0  0
   -0.3026    2.8604    1.3595 N   0  0  0  0  0  0  0  0  0  0  0  0
   -0.8910    3.2588    0.6358 H   0  0  0  0  0  0  0  0  0  0  0  0
   -0.0306    3.6490    2.5560 C   0  0  0  0  0  0  0  0  0  0  0  0
    1.0471    3.7008    2.7448 H   0  0  0  0  0  0  0  0  0  0  0  0
   -0.4076    4.6686    2.4315 H   0  0  0  0  0  0  0  0  0  0  0  0
   -0.5195    3.2022    3.4283 H   0  0  0  0  0  0  0  0  0  0  0  0
  1  2  1  0  0  0  0
  2  3  1  0  0  0  0
  2  4  1  0  0  0  0
  2  5  1  0  0  0  0
  5  6  2  0  0  0  0
  5  7  1  0  0  0  0
  7  8  1  0  0  0  0
  7  9  1  0  0  0  0
  9 10  1  0  0  0  0
  9 11  1  0  0  0  0
  9 22  1  0  0  0  0
 11 12  1  0  0  0  0
 11 13  1  0  0  0  0
 11 14  1  0  0  0  0
 14 15  1  0  0  0  0
 14 20  2  0  0  0  0
 15 16  1  0  0  0  0
 15 17  1  0  0  0  0
 17 18  1  0  0  0  0
 17 19  2  0  0  0  0
 19 20  1  0  0  0  0
 20 21  1  0  0  0  0
 22 23  2  0  0  0  0
 22 24  1  0  0  0  0
 24 25  1  0  0  0  0
 24 26  1  0  0  0  0
 26 27  1  0  0  0  0
 26 28  1  0  0  0  0
 26 29  1  0  0  0  0
M  END
$$$$

  -OEChem-01062216083D

 29 29  0     1  0  0  0  0  0999 V2000
   -3.1863   -2.6815    1.0041 H   0  0  0  0  0  0  0  0  0  0  0  0
   -3.1502   -1.7596    0.4166 C   0  0  0  0  0  0  0  0  0  0  0  0
   -3.9810   -1.1176    0.7183 H   0  0  0  0  0  0  0  0  0  0  0  0
   -3.2570   -2.0130   -0.6409 H   0  0  0  0  0  0  0  0  0  0  0  0
   -1.8323   -1.0450    0.6486 C   0  0  0  0  0  0  0  0  0  0  0  0
   -1.0302   -1.4994    1.4437 O   0  0  0  0  0  0  0  0  0  0  0  0
   -1.5442    0.1033   -0.0618 N   0  0  0  0  0  0  0  0  0  0  0  0
   -2.1770    0.3246   -0.8239 H   0  0  0  0  0  0  0  0  0  0  0  0
   -0.2221    0.7554   -0.0507 C   0  0  1  0  0  0  0  0  0  0  0  0
    0.5467   -0.0219   -0.1317 H   0  0  0  0  0  0  0  0  0  0  0  0
   -0.0827    1.6849   -1.2668 C   0  0  0  0  0  0  0  0  0  0  0  0
   -0.8852    2.4294   -1.2631 H   0  0  0  0  0  0  0  0  0  0  0  0
    0.8695    2.2239   -1.2127 H   0  0  0  0  0  0  0  0  0  0  0  0
   -0.1273    0.8934   -2.5470 C   0  0  0  0  0  0  0  0  0  0  0  0
    0.8694    0.1011   -3.0715 N   0  0  0  0  0  0  0  0  0  0  0  0
    1.7725   -0.0971   -2.6434 H   0  0  0  0  0  0  0  0  0  0  0  0
    0.4277   -0.4134   -4.2761 C   0  0  0  0  0  0  0  0  0  0  0  0
    0.9952   -1.0848   -4.9144 H   0  0  0  0  0  0  0  0  0  0  0  0
   -0.7807    0.0266   -4.5374 N   0  0  0  0  0  0  0  0  0  0  0  0
   -1.1312    0.8539   -3.4780 C   0  0  0  0  0  0  0  0  0  0  0  0
   -2.0711    1.3920   -3.4004 H   0  0  0  0  0  0  0  0  0  0  0  0
    0.0699    1.5290    1.2539 C   0  0  0  0  0  0  0  0  0  0  0  0
    1.0287    1.2194    1.9468 O   0  0  0  0  0  0  0  0  0  0  0  0
   -0.5466    2.7463    1.4934 N   0  0  0  0  0  0  0  0  0  0  0  0
   -1.3711    2.9616    0.9425 H   0  0  0  0  0  0  0  0  0  0  0  0
   -0.2405    3.5785    2.6512 C   0  0  0  0  0  0  0  0  0  0  0  0
    0.8185    3.8574    2.6534 H   0  0  0  0  0  0  0  0  0  0  0  0
   -0.8372    4.4952    2.6270 H   0  0  0  0  0  0  0  0  0  0  0  0
   -0.4652    3.0413    3.5786 H   0  0  0  0  0  0  0  0  0  0  0  0
  1  2  1  0  0  0  0
  2  3  1  0  0  0  0
  2  4  1  0  0  0  0
  2  5  1  0  0  0  0
  5  6  2  0  0  0  0
  5  7  1  0  0  0  0
  7  8  1  0  0  0  0
  7  9  1  0  0  0  0
  9 10  1  0  0  0  0
  9 11  1  0  0  0  0
  9 22  1  0  0  0  0
 11 12  1  0  0  0  0
 11 13  1  0  0  0  0
 11 14  1  0  0  0  0
 14 15  1  0  0  0  0
 14 20  2  0  0  0  0
 15 16  1  0  0  0  0
 15 17  1  0  0  0  0
 17 18  1  0  0  0  0
 17 19  2  0  0  0  0
 19 20  1  0  0  0  0
 20 21  1  0  0  0  0
 22 23  2  0  0  0  0
 22 24  1  0  0  0  0
 24 25  1  0  0  0  0
 24 26  1  0  0  0  0
 26 27  1  0  0  0  0
 26 28  1  0  0  0  0
 26 29  1  0  0  0  0
M  END
$$$$

  -OEChem-01062216083D

 29 29  0     1  0  0  0  0  0999 V2000
   -3.1720   -2.7002    0.9828 H   0  0  0  0  0  0  0  0  0  0  0  0
   -3.1385   -1.7806    0.3916 C   0  0  0  0  0  0  0  0  0  0  0  0
   -3.9929   -1.1562    0.6632 H   0  0  0  0  0  0  0  0  0  0  0  0
   -3.2068   -2.0417   -0.6672 H   0  0  0  0  0  0  0  0  0  0  0  0
   -1.8450   -1.0352    0.6607 C   0  0  0  0  0  0  0  0  0  0  0  0
   -1.0702   -1.4492    1.5040 O   0  0  0  0  0  0  0  0  0  0  0  0
   -1.5497    0.1056   -0.0583 N   0  0  0  0  0  0  0  0  0  0  0  0
   -2.1458    0.2862   -0.8603 H   0  0  0  0  0  0  0  0  0  0  0  0
   -0.2182    0.7390   -0.0431 C   0  0  1  0  0  0  0  0  0  0  0  0
    0.5424   -0.0458   -0.1246 H   0  0  0  0  0  0  0  0  0  0  0  0
   -0.0680    1.6784   -1.2488 C   0  0  0  0  0  0  0  0  0  0  0  0
   -0.8589    2.4354   -1.2330 H   0  0  0  0  0  0  0  0  0  0  0  0
    0.8918    2.2034   -1.1912 H   0  0  0  0  0  0  0  0  0  0  0  0
   -0.1268    0.8991   -2.5364 C   0  0  0  0  0  0  0  0  0  0  0  0
    0.8572    0.0974   -3.0707 N   0  0  0  0  0  0  0  0  0  0  0  0
    1.7622   -0.1097   -2.6509 H   0  0  0  0  0  0  0  0  0  0  0  0
    0.4045   -0.4020   -4.2775 C   0  0  0  0  0  0  0  0  0  0  0  0
    0.9610   -1.0750   -4.9240 H   0  0  0  0  0  0  0  0  0  0  0  0
   -0.7997    0.0545   -4.5295 N   0  0  0  0  0  0  0  0  0  0  0  0
   -1.1346    0.8803   -3.4638 C   0  0  0  0  0  0  0  0  0  0  0  0
   -2.0671    1.4300   -3.3790 H   0  0  0  0  0  0  0  0  0  0  0  0
    0.0767    1.5123    1.2581 C   0  0  0  0  0  0  0  0  0  0  0  0
    1.1671    1.3942    1.8003 O   0  0  0  0  0  0  0  0  0  0  0  0
   -0.7416    2.5644    1.6322 N   0  0  0  0  0  0  0  0  0  0  0  0
   -1.6646    2.5912    1.2112 H   0  0  0  0  0  0  0  0  0  0  0  0
   -0.4827    3.3920    2.8042 C   0  0  0  0  0  0  0  0  0  0  0  0
    0.4912    3.8853    2.7181 H   0  0  0  0  0  0  0  0  0  0  0  0
   -1.2519    4.1644    2.8988 H   0  0  0  0  0  0  0  0  0  0  0  0
   -0.4891    2.7810    3.7130 H   0  0  0  0  0  0  0  0  0  0  0  0
  1  2  1  0  0  0  0
  2  3  1  0  0  0  0
  2  4  1  0  0  0  0
  2  5  1  0  0  0  0
  5  6  2  0  0  0  0
  5  7  1  0  0  0  0
  7  8  1  0  0  0  0
  7  9  1  0  0  0  0
  9 10  1  0  0  0  0
  9 11  1  0  0  0  0
  9 22  1  0  0  0  0
 11 12  1  0  0  0  0
 11 13  1  0  0  0  0
 11 14  1  0  0  0  0
 14 15  1  0  0  0  0
 14 20  2  0  0  0  0
 15 16  1  0  0  0  0
 15 17  1  0  0  0  0
 17 18  1  0  0  0  0
 17 19  2  0  0  0  0
 19 20  1  0  0  0  0
 20 21  1  0  0  0  0
 22 23  2  0  0  0  0
 22 24  1  0  0  0  0
 24 25  1  0  0  0  0
 24 26  1  0  0  0  0
 26 27  1  0  0  0  0
 26 28  1  0  0  0  0
 26 29  1  0  0  0  0
M  END
$$$$

  -OEChem-01062216083D

 29 29  0     1  0  0  0  0  0999 V2000
   -3.1651   -2.7175    0.9569 H   0  0  0  0  0  0  0  0  0  0  0  0
   -3.1341   -1.7956    0.3691 C   0  0  0  0  0  0  0  0  0  0  0  0
   -4.0009   -1.1831    0.6280 H   0  0  0  0  0  0  0  0  0  0  0  0
   -3.1818   -2.0546   -0.6915 H   0  0  0  0  0  0  0  0  0  0  0  0
   -1.8553   -1.0341    0.6619 C   0  0  0  0  0  0  0  0  0  0  0  0
   -1.1026   -1.4215    1.5376 O   0  0  0  0  0  0  0  0  0  0  0  0
   -1.5512    0.1010   -0.0621 N   0  0  0  0  0  0  0  0  0  0  0  0
   -2.1231    0.2601   -0.8864 H   0  0  0  0  0  0  0  0  0  0  0  0
   -0.2139    0.7240   -0.0382 C   0  0  1  0  0  0  0  0  0  0  0  0
    0.5438   -0.0637   -0.1197 H   0  0  0  0  0  0  0  0  0  0  0  0
   -0.0619    1.6723   -1.2361 C   0  0  0  0  0  0  0  0  0  0  0  0
   -0.8494    2.4328   -1.2088 H   0  0  0  0  0  0  0  0  0  0  0  0
    0.9005    2.1929   -1.1778 H   0  0  0  0  0  0  0  0  0  0  0  0
   -0.1275    0.9036   -2.5296 C   0  0  0  0  0  0  0  0  0  0  0  0
    0.8519    0.1017   -3.0716 N   0  0  0  0  0  0  0  0  0  0  0  0
    1.7609   -0.1040   -2.6596 H   0  0  0  0  0  0  0  0  0  0  0  0
    0.3915   -0.3922   -4.2778 C   0  0  0  0  0  0  0  0  0  0  0  0
    0.9424   -1.0651   -4.9289 H   0  0  0  0  0  0  0  0  0  0  0  0
   -0.8130    0.0680   -4.5218 N   0  0  0  0  0  0  0  0  0  0  0  0
   -1.1400    0.8914   -3.4516 C   0  0  0  0  0  0  0  0  0  0  0  0
   -2.0717    1.4415   -3.3585 H   0  0  0  0  0  0  0  0  0  0  0  0
    0.0833    1.5019    1.2584 C   0  0  0  0  0  0  0  0  0  0  0  0
    1.2358    1.5812    1.6626 O   0  0  0  0  0  0  0  0  0  0  0  0
   -0.8753    2.3466    1.7893 N   0  0  0  0  0  0  0  0  0  0  0  0
   -1.8305    2.1862    1.4849 H   0  0  0  0  0  0  0  0  0  0  0  0
   -0.6454    3.1517    2.9824 C   0  0  0  0  0  0  0  0  0  0  0  0
    0.1978    3.8335    2.8290 H   0  0  0  0  0  0  0  0  0  0  0  0
   -1.5325    3.7492    3.2126 H   0  0  0  0  0  0  0  0  0  0  0  0
   -0.4262    2.5080    3.8407 H   0  0  0  0  0  0  0  0  0  0  0  0
  1  2  1  0  0  0  0
  2  3  1  0  0  0  0
  2  4  1  0  0  0  0
  2  5  1  0  0  0  0
  5  6  2  0  0  0  0
  5  7  1  0  0  0  0
  7  8  1  0  0  0  0
  7  9  1  0  0  0  0
  9 10  1  0  0  0  0
  9 11  1  0  0  0  0
  9 22  1  0  0  0  0
 11 12  1  0  0  0  0
 11 13  1  0  0  0  0
 11 14  1  0  0  0  0
 14 15  1  0  0  0  0
 14 20  2  0  0  0  0
 15 16  1  0  0  0  0
 15 17  1  0  0  0  0
 17 18  1  0  0  0  0
 17 19  2  0  0  0  0
 19 20  1  0  0  0  0
 20 21  1  0  0  0  0
 22 23  2  0  0  0  0
 22 24  1  0  0  0  0
 24 25  1  0  0  0  0
 24 26  1  0  0  0  0
 26 27  1  0  0  0  0
 26 28  1  0  0  0  0
 26 29  1  0  0  0  0
M  END
$$$$

  -OEChem-01062216083D

 29 29  0     1  0  0  0  0  0999 V2000
   -3.1634   -2.7240    0.9327 H   0  0  0  0  0  0  0  0  0  0  0  0
   -3.1289   -1.8057    0.3396 C   0  0  0  0  0  0  0  0  0  0  0  0
   -4.0078   -1.2007    0.5747 H   0  0  0  0  0  0  0  0  0  0  0  0
   -3.1498   -2.0721   -0.7200 H   0  0  0  0  0  0  0  0  0  0  0  0
   -1.8647   -1.0292    0.6554 C   0  0  0  0  0  0  0  0  0  0  0  0
   -1.1281   -1.4000    1.5521 O   0  0  0  0  0  0  0  0  0  0  0  0
   -1.5551    0.1048   -0.0676 N   0  0  0  0  0  0  0  0  0  0  0  0
   -2.1176    0.2619   -0.8991 H   0  0  0  0  0  0  0  0  0  0  0  0
   -0.2152    0.7235   -0.0355 C   0  0  1  0  0  0  0  0  0  0  0  0
    0.5411   -0.0653   -0.1148 H   0  0  0  0  0  0  0  0  0  0  0  0
   -0.0666    1.6693   -1.2364 C   0  0  0  0  0  0  0  0  0  0  0  0
   -0.8557    2.4281   -1.2079 H   0  0  0  0  0  0  0  0  0  0  0  0
    0.8943    2.1929   -1.1823 H   0  0  0  0  0  0  0  0  0  0  0  0
   -0.1329    0.8980   -2.5287 C   0  0  0  0  0  0  0  0  0  0  0  0
    0.8460    0.0965   -3.0720 N   0  0  0  0  0  0  0  0  0  0  0  0
    1.7563   -0.1067   -2.6622 H   0  0  0  0  0  0  0  0  0  0  0  0
    0.3861   -0.3941   -4.2798 C   0  0  0  0  0  0  0  0  0  0  0  0
    0.9383   -1.0629   -4.9340 H   0  0  0  0  0  0  0  0  0  0  0  0
   -0.8192    0.0649   -4.5222 N   0  0  0  0  0  0  0  0  0  0  0  0
   -1.1457    0.8869   -3.4505 C   0  0  0  0  0  0  0  0  0  0  0  0
   -2.0764    1.4384   -3.3569 H   0  0  0  0  0  0  0  0  0  0  0  0
    0.0881    1.5041    1.2598 C   0  0  0  0  0  0  0  0  0  0  0  0
    1.2486    1.7736    1.5414 O   0  0  0  0  0  0  0  0  0  0  0  0
   -0.9364    2.1099    1.9644 N   0  0  0  0  0  0  0  0  0  0  0  0
   -1.8724    1.7726    1.7621 H   0  0  0  0  0  0  0  0  0  0  0  0
   -0.7145    2.8687    3.1889 C   0  0  0  0  0  0  0  0  0  0  0  0
   -0.0413    3.7117    3.0011 H   0  0  0  0  0  0  0  0  0  0  0  0
   -1.6628    3.2635    3.5659 H   0  0  0  0  0  0  0  0  0  0  0  0
   -0.2723    2.2295    3.9603 H   0  0  0  0  0  0  0  0  0  0  0  0
  1  2  1  0  0  0  0
  2  3  1  0  0  0  0
  2  4  1  0  0  0  0
  2  5  1  0  0  0  0
  5  6  2  0  0  0  0
  5  7  1  0  0  0  0
  7  8  1  0  0  0  0
  7  9  1  0  0  0  0
  9 10  1  0  0  0  0
  9 11  1  0  0  0  0
  9 22  1  0  0  0  0
 11 12  1  0  0  0  0
 11 13  1  0  0  0  0
 11 14  1  0  0  0  0
 14 15  1  0  0  0  0
 14 20  2  0  0  0  0
 15 16  1  0  0  0  0
 15 17  1  0  0  0  0
 17 18  1  0  0  0  0
 17 19  2  0  0  0  0
 19 20  1  0  0  0  0
 20 21  1  0  0  0  0
 22 23  2  0  0  0  0
 22 24  1  0  0  0  0
 24 25  1  0  0  0  0
 24 26  1  0  0  0  0
 26 27  1  0  0  0  0
 26 28  1  0  0  0  0
 26 29  1  0  0  0  0
M  END
$$$$

  -OEChem-01062216083D

 29 29  0     1  0  0  0  0  0999 V2000
   -3.2101   -2.6825    0.9502 H   0  0  0  0  0  0  0  0  0  0  0  0
   -3.1249   -1.8079    0.2989 C   0  0  0  0  0  0  0  0  0  0  0  0
   -4.0102   -1.1815    0.4323 H   0  0  0  0  0  0  0  0  0  0  0  0
   -3.0787   -2.1464   -0.7391 H   0  0  0  0  0  0  0  0  0  0  0  0
   -1.8746   -1.0214    0.6424 C   0  0  0  0  0  0  0  0  0  0  0  0
   -1.1613   -1.3749    1.5648 O   0  0  0  0  0  0  0  0  0  0  0  0
   -1.5570    0.1133   -0.0748 N   0  0  0  0  0  0  0  0  0  0  0  0
   -2.1119    0.2718   -0.9111 H   0  0  0  0  0  0  0  0  0  0  0  0
   -0.2173    0.7338   -0.0341 C   0  0  1  0  0  0  0  0  0  0  0  0
    0.5408   -0.0530   -0.1128 H   0  0  0  0  0  0  0  0  0  0  0  0
   -0.0788    1.6757   -1.2414 C   0  0  0  0  0  0  0  0  0  0  0  0
   -0.8731    2.4292   -1.2135 H   0  0  0  0  0  0  0  0  0  0  0  0
    0.8785    2.2069   -1.1962 H   0  0  0  0  0  0  0  0  0  0  0  0
   -0.1424    0.8981   -2.5304 C   0  0  0  0  0  0  0  0  0  0  0  0
    0.8414    0.1019   -3.0727 N   0  0  0  0  0  0  0  0  0  0  0  0
    1.7581   -0.0846   -2.6692 H   0  0  0  0  0  0  0  0  0  0  0  0
    0.3805   -0.4022   -4.2744 C   0  0  0  0  0  0  0  0  0  0  0  0
    0.9362   -1.0709   -4.9260 H   0  0  0  0  0  0  0  0  0  0  0  0
   -0.8305    0.0427   -4.5138 N   0  0  0  0  0  0  0  0  0  0  0  0
   -1.1597    0.8698   -3.4469 C   0  0  0  0  0  0  0  0  0  0  0  0
   -2.0963    1.4111   -3.3519 H   0  0  0  0  0  0  0  0  0  0  0  0
    0.0883    1.5166    1.2622 C   0  0  0  0  0  0  0  0  0  0  0  0
    1.2120    1.9704    1.4394 O   0  0  0  0  0  0  0  0  0  0  0  0
   -0.9266    1.8645    2.1346 N   0  0  0  0  0  0  0  0  0  0  0  0
   -1.7855    1.3313    2.0347 H   0  0  0  0  0  0  0  0  0  0  0  0
   -0.6814    2.5558    3.3939 C   0  0  0  0  0  0  0  0  0  0  0  0
   -0.1857    3.5158    3.2150 H   0  0  0  0  0  0  0  0  0  0  0  0
   -1.6270    2.7486    3.9095 H   0  0  0  0  0  0  0  0  0  0  0  0
   -0.0464    1.9473    4.0463 H   0  0  0  0  0  0  0  0  0  0  0  0
  1  2  1  0  0  0  0
  2  3  1  0  0  0  0
  2  4  1  0  0  0  0
  2  5  1  0  0  0  0
  5  6  2  0  0  0  0
  5  7  1  0  0  0  0
  7  8  1  0  0  0  0
  7  9  1  0  0  0  0
  9 10  1  0  0  0  0
  9 11  1  0  0  0  0
  9 22  1  0  0  0  0
 11 12  1  0  0  0  0
 11 13  1  0  0  0  0
 11 14  1  0  0  0  0
 14 15  1  0  0  0  0
 14 20  2  0  0  0  0
 15 16  1  0  0  0  0
 15 17  1  0  0  0  0
 17 18  1  0  0  0  0
 17 19  2  0  0  0  0
 19 20  1  0  0  0  0
 20 21  1  0  0  0  0
 22 23  2  0  0  0  0
 22 24  1  0  0  0  0
 24 25  1  0  0  0  0
 24 26  1  0  0  0  0
 26 27  1  0  0  0  0
 26 28  1  0  0  0  0
 26 29  1  0  0  0  0
M  END
$$$$

  -OEChem-01062216083D

 29 29  0     1  0  0  0  0  0999 V2000
   -3.2207   -2.6903    0.8883 H   0  0  0  0  0  0  0  0  0  0  0  0
   -3.1381   -1.7967    0.2632 C   0  0  0  0  0  0  0  0  0  0  0  0
   -4.0204   -1.1721    0.4219 H   0  0  0  0  0  0  0  0  0  0  0  0
   -3.1010   -2.1043   -0.7848 H   0  0  0  0  0  0  0  0  0  0  0  0
   -1.8836   -1.0233    0.6211 C   0  0  0  0  0  0  0  0  0  0  0  0
   -1.1885   -1.3775    1.5574 O   0  0  0  0  0  0  0  0  0  0  0  0
   -1.5540    0.1177   -0.0792 N   0  0  0  0  0  0  0  0  0  0  0  0
   -2.1161    0.3020   -0.9054 H   0  0  0  0  0  0  0  0  0  0  0  0
   -0.2155    0.7427   -0.0303 C   0  0  1  0  0  0  0  0  0  0  0  0
    0.5446   -0.0416   -0.1113 H   0  0  0  0  0  0  0  0  0  0  0  0
   -0.0872    1.6811   -1.2442 C   0  0  0  0  0  0  0  0  0  0  0  0
   -0.8874    2.4284   -1.2174 H   0  0  0  0  0  0  0  0  0  0  0  0
    0.8657    2.2208   -1.2085 H   0  0  0  0  0  0  0  0  0  0  0  0
   -0.1463    0.8958   -2.5292 C   0  0  0  0  0  0  0  0  0  0  0  0
    0.8429    0.1051   -3.0701 N   0  0  0  0  0  0  0  0  0  0  0  0
    1.7641   -0.0677   -2.6708 H   0  0  0  0  0  0  0  0  0  0  0  0
    0.3815   -0.4117   -4.2663 C   0  0  0  0  0  0  0  0  0  0  0  0
    0.9405   -1.0800   -4.9155 H   0  0  0  0  0  0  0  0  0  0  0  0
   -0.8347    0.0200   -4.5036 N   0  0  0  0  0  0  0  0  0  0  0  0
   -1.1671    0.8516   -3.4413 C   0  0  0  0  0  0  0  0  0  0  0  0
   -2.1089    1.3840   -3.3460 H   0  0  0  0  0  0  0  0  0  0  0  0
    0.0915    1.5182    1.2740 C   0  0  0  0  0  0  0  0  0  0  0  0
    1.1237    2.1723    1.3617 O   0  0  0  0  0  0  0  0  0  0  0  0
   -0.8401    1.5953    2.2927 N   0  0  0  0  0  0  0  0  0  0  0  0
   -1.5419    0.8585    2.2778 H   0  0  0  0  0  0  0  0  0  0  0  0
   -0.5644    2.2535    3.5635 C   0  0  0  0  0  0  0  0  0  0  0  0
   -0.3004    3.3041    3.4030 H   0  0  0  0  0  0  0  0  0  0  0  0
   -1.4485    2.2162    4.2068 H   0  0  0  0  0  0  0  0  0  0  0  0
    0.2634    1.7567    4.0802 H   0  0  0  0  0  0  0  0  0  0  0  0
  1  2  1  0  0  0  0
  2  3  1  0  0  0  0
  2  4  1  0  0  0  0
  2  5  1  0  0  0  0
  5  6  2  0  0  0  0
  5  7  1  0  0  0  0
  7  8  1  0  0  0  0
  7  9  1  0  0  0  0
  9 10  1  0  0  0  0
  9 11  1  0  0  0  0
  9 22  1  0  0  0  0
 11 12  1  0  0  0  0
 11 13  1  0  0  0  0
 11 14  1  0  0  0  0
 14 15  1  0  0  0  0
 14 20  2  0  0  0  0
 15 16  1  0  0  0  0
 15 17  1  0  0  0  0
 17 18  1  0  0  0  0
 17 19  2  0  0  0  0
 19 20  1  0  0  0  0
 20 21  1  0  0  0  0
 22 23  2  0  0  0  0
 22 24  1  0  0  0  0
 24 25  1  0  0  0  0
 24 26  1  0  0  0  0
 26 27  1  0  0  0  0
 26 28  1  0  0  0  0
 26 29  1  0  0  0  0
M  END
$$$$

  -OEChem-01062216083D

 29 29  0     1  0  0  0  0  0999 V2000
   -3.2189   -2.7040    0.8290 H   0  0  0  0  0  0  0  0  0  0  0  0
   -3.1561   -1.7757    0.2544 C   0  0  0  0  0  0  0  0  0  0  0  0
   -4.0276   -1.1578    0.4838 H   0  0  0  0  0  0  0  0  0  0  0  0
   -3.1621   -2.0216   -0.8105 H   0  0  0  0  0  0  0  0  0  0  0  0
   -1.8842   -1.0293    0.6071 C   0  0  0  0  0  0  0  0  0  0  0  0
   -1.1777   -1.4171    1.5226 O   0  0  0  0  0  0  0  0  0  0  0  0
   -1.5472    0.1191   -0.0775 N   0  0  0  0  0  0  0  0  0  0  0  0
   -2.1319    0.3423   -0.8777 H   0  0  0  0  0  0  0  0  0  0  0  0
   -0.2114    0.7501   -0.0277 C   0  0  1  0  0  0  0  0  0  0  0  0
    0.5502   -0.0323   -0.1119 H   0  0  0  0  0  0  0  0  0  0  0  0
   -0.0899    1.6835   -1.2481 C   0  0  0  0  0  0  0  0  0  0  0  0
   -0.8937    2.4270   -1.2236 H   0  0  0  0  0  0  0  0  0  0  0  0
    0.8598    2.2283   -1.2197 H   0  0  0  0  0  0  0  0  0  0  0  0
   -0.1451    0.8908   -2.5292 C   0  0  0  0  0  0  0  0  0  0  0  0
    0.8465    0.1024   -3.0694 N   0  0  0  0  0  0  0  0  0  0  0  0
    1.7686   -0.0660   -2.6710 H   0  0  0  0  0  0  0  0  0  0  0  0
    0.3852   -0.4195   -4.2635 C   0  0  0  0  0  0  0  0  0  0  0  0
    0.9456   -1.0871   -4.9119 H   0  0  0  0  0  0  0  0  0  0  0  0
   -0.8328    0.0071   -4.5005 N   0  0  0  0  0  0  0  0  0  0  0  0
   -1.1666    0.8406   -3.4400 C   0  0  0  0  0  0  0  0  0  0  0  0
   -2.1092    1.3716   -3.3452 H   0  0  0  0  0  0  0  0  0  0  0  0
    0.0967    1.5169    1.2852 C   0  0  0  0  0  0  0  0  0  0  0  0
    0.9876    2.3578    1.3120 O   0  0  0  0  0  0  0  0  0  0  0  0
   -0.6778    1.3349    2.4157 N   0  0  0  0  0  0  0  0  0  0  0  0
   -1.2107    0.4646    2.4248 H   0  0  0  0  0  0  0  0  0  0  0  0
   -0.3758    1.9682    3.6931 C   0  0  0  0  0  0  0  0  0  0  0  0
   -0.3827    3.0586    3.5917 H   0  0  0  0  0  0  0  0  0  0  0  0
   -1.1254    1.6877    4.4391 H   0  0  0  0  0  0  0  0  0  0  0  0
    0.6091    1.6533    4.0535 H   0  0  0  0  0  0  0  0  0  0  0  0
  1  2  1  0  0  0  0
  2  3  1  0  0  0  0
  2  4  1  0  0  0  0
  2  5  1  0  0  0  0
  5  6  2  0  0  0  0
  5  7  1  0  0  0  0
  7  8  1  0  0  0  0
  7  9  1  0  0  0  0
  9 10  1  0  0  0  0
  9 11  1  0  0  0  0
  9 22  1  0  0  0  0
 11 12  1  0  0  0  0
 11 13  1  0  0  0  0
 11 14  1  0  0  0  0
 14 15  1  0  0  0  0
 14 20  2  0  0  0  0
 15 16  1  0  0  0  0
 15 17  1  0  0  0  0
 17 18  1  0  0  0  0
 17 19  2  0  0  0  0
 19 20  1  0  0  0  0
 20 21  1  0  0  0  0
 22 23  2  0  0  0  0
 22 24  1  0  0  0  0
 24 25  1  0  0  0  0
 24 26  1  0  0  0  0
 26 27  1  0  0  0  0
 26 28  1  0  0  0  0
 26 29  1  0  0  0  0
M  END
$$$$

  -OEChem-01062216083D

 29 29  0     1  0  0  0  0  0999 V2000
   -3.2542   -2.6699    0.8704 H   0  0  0  0  0  0  0  0  0  0  0  0
   -3.1825   -1.7370    0.3040 C   0  0  0  0  0  0  0  0  0  0  0  0
   -4.0117   -1.0854    0.5904 H   0  0  0  0  0  0  0  0  0  0  0  0
   -3.2590   -1.9666   -0.7617 H   0  0  0  0  0  0  0  0  0  0  0  0
   -1.8612   -1.0507    0.5923 C   0  0  0  0  0  0  0  0  0  0  0  0
   -1.1039   -1.5058    1.4347 O   0  0  0  0  0  0  0  0  0  0  0  0
   -1.5280    0.1072   -0.0789 N   0  0  0  0  0  0  0  0  0  0  0  0
   -2.1640    0.3964   -0.8163 H   0  0  0  0  0  0  0  0  0  0  0  0
   -0.1993    0.7527   -0.0354 C   0  0  1  0  0  0  0  0  0  0  0  0
    0.5692   -0.0220   -0.1252 H   0  0  0  0  0  0  0  0  0  0  0  0
   -0.0880    1.6851   -1.2581 C   0  0  0  0  0  0  0  0  0  0  0  0
   -0.8975    2.4222   -1.2336 H   0  0  0  0  0  0  0  0  0  0  0  0
    0.8575    2.2375   -1.2318 H   0  0  0  0  0  0  0  0  0  0  0  0
   -0.1367    0.8914   -2.5387 C   0  0  0  0  0  0  0  0  0  0  0  0
    0.8630    0.1128   -3.0782 N   0  0  0  0  0  0  0  0  0  0  0  0
    1.7873   -0.0447   -2.6804 H   0  0  0  0  0  0  0  0  0  0  0  0
    0.4070   -0.4150   -4.2716 C   0  0  0  0  0  0  0  0  0  0  0  0
    0.9749   -1.0767   -4.9194 H   0  0  0  0  0  0  0  0  0  0  0  0
   -0.8151   -0.0014   -4.5097 N   0  0  0  0  0  0  0  0  0  0  0  0
   -1.1585    0.8279   -3.4486 C   0  0  0  0  0  0  0  0  0  0  0  0
   -2.1074    1.3472   -3.3529 H   0  0  0  0  0  0  0  0  0  0  0  0
    0.1019    1.5097    1.2862 C   0  0  0  0  0  0  0  0  0  0  0  0
    0.7977    2.5185    1.2841 O   0  0  0  0  0  0  0  0  0  0  0  0
   -0.4497    1.0945    2.4833 N   0  0  0  0  0  0  0  0  0  0  0  0
   -0.8384    0.1490    2.4759 H   0  0  0  0  0  0  0  0  0  0  0  0
   -0.1376    1.7093    3.7669 C   0  0  0  0  0  0  0  0  0  0  0  0
   -0.4068    2.7706    3.7585 H   0  0  0  0  0  0  0  0  0  0  0  0
   -0.6999    1.2179    4.5666 H   0  0  0  0  0  0  0  0  0  0  0  0
    0.9312    1.6178    3.9860 H   0  0  0  0  0  0  0  0  0  0  0  0
  1  2  1  0  0  0  0
  2  3  1  0  0  0  0
  2  4  1  0  0  0  0
  2  5  1  0  0  0  0
  5  6  2  0  0  0  0
  5  7  1  0  0  0  0
  7  8  1  0  0  0  0
  7  9  1  0  0  0  0
  9 10  1  0  0  0  0
  9 11  1  0  0  0  0
  9 22  1  0  0  0  0
 11 12  1  0  0  0  0
 11 13  1  0  0  0  0
 11 14  1  0  0  0  0
 14 15  1  0  0  0  0
 14 20  2  0  0  0  0
 15 16  1  0  0  0  0
 15 17  1  0  0  0  0
 17 18  1  0  0  0  0
 17 19  2  0  0  0  0
 19 20  1  0  0  0  0
 20 21  1  0  0  0  0
 22 23  2  0  0  0  0
 22 24  1  0  0  0  0
 24 25  1  0  0  0  0
 24 26  1  0  0  0  0
 26 27  1  0  0  0  0
 26 28  1  0  0  0  0
 26 29  1  0  0  0  0
M  END
$$$$

  -OEChem-01062216083D

 29 29  0     1  0  0  0  0  0999 V2000
   -3.2589   -2.6386    0.9366 H   0  0  0  0  0  0  0  0  0  0  0  0
   -3.1860   -1.7073    0.3678 C   0  0  0  0  0  0  0  0  0  0  0  0
   -3.9800   -1.0317    0.6950 H   0  0  0  0  0  0  0  0  0  0  0  0
   -3.3212   -1.9322   -0.6930 H   0  0  0  0  0  0  0  0  0  0  0  0
   -1.8314   -1.0629    0.5914 C   0  0  0  0  0  0  0  0  0  0  0  0
   -1.0328   -1.5673    1.3658 O   0  0  0  0  0  0  0  0  0  0  0  0
   -1.5050    0.0986   -0.0777 N   0  0  0  0  0  0  0  0  0  0  0  0
   -2.1832    0.4410   -0.7519 H   0  0  0  0  0  0  0  0  0  0  0  0
   -0.1793    0.7488   -0.0448 C   0  0  1  0  0  0  0  0  0  0  0  0
    0.5922   -0.0222   -0.1408 H   0  0  0  0  0  0  0  0  0  0  0  0
   -0.0720    1.6820   -1.2670 C   0  0  0  0  0  0  0  0  0  0  0  0
   -0.8825    2.4182   -1.2397 H   0  0  0  0  0  0  0  0  0  0  0  0
    0.8733    2.2350   -1.2390 H   0  0  0  0  0  0  0  0  0  0  0  0
   -0.1235    0.8912   -2.5495 C   0  0  0  0  0  0  0  0  0  0  0  0
    0.8732    0.1136   -3.0965 N   0  0  0  0  0  0  0  0  0  0  0  0
    1.7975   -0.0498   -2.7020 H   0  0  0  0  0  0  0  0  0  0  0  0
    0.4123   -0.4072   -4.2911 C   0  0  0  0  0  0  0  0  0  0  0  0
    0.9767   -1.0665   -4.9446 H   0  0  0  0  0  0  0  0  0  0  0  0
   -0.8099    0.0093   -4.5230 N   0  0  0  0  0  0  0  0  0  0  0  0
   -1.1487    0.8325   -3.4557 C   0  0  0  0  0  0  0  0  0  0  0  0
   -2.0963    1.3527   -3.3540 H   0  0  0  0  0  0  0  0  0  0  0  0
    0.1167    1.4986    1.2815 C   0  0  0  0  0  0  0  0  0  0  0  0
    0.5905    2.6288    1.2766 O   0  0  0  0  0  0  0  0  0  0  0  0
   -0.1669    0.9102    2.4988 N   0  0  0  0  0  0  0  0  0  0  0  0
   -0.4659   -0.0678    2.4652 H   0  0  0  0  0  0  0  0  0  0  0  0
    0.1344    1.5165    3.7886 C   0  0  0  0  0  0  0  0  0  0  0  0
   -0.3913    2.4710    3.8954 H   0  0  0  0  0  0  0  0  0  0  0  0
   -0.1847    0.8545    4.5992 H   0  0  0  0  0  0  0  0  0  0  0  0
    1.2105    1.6925    3.8870 H   0  0  0  0  0  0  0  0  0  0  0  0
  1  2  1  0  0  0  0
  2  3  1  0  0  0  0
  2  4  1  0  0  0  0
  2  5  1  0  0  0  0
  5  6  2  0  0  0  0
  5  7  1  0  0  0  0
  7  8  1  0  0  0  0
  7  9  1  0  0  0  0
  9 10  1  0  0  0  0
  9 11  1  0  0  0  0
  9 22  1  0  0  0  0
 11 12  1  0  0  0  0
 11 13  1  0  0  0  0
 11 14  1  0  0  0  0
 14 15  1  0  0  0  0
 14 20  2  0  0  0  0
 15 16  1  0  0  0  0
 15 17  1  0  0  0  0
 17 18  1  0  0  0  0
 17 19  2  0  0  0  0
 19 20  1  0  0  0  0
 20 21  1  0  0  0  0
 22 23  2  0  0  0  0
 22 24  1  0  0  0  0
 24 25  1  0  0  0  0
 24 26  1  0  0  0  0
 26 27  1  0  0  0  0
 26 28  1  0  0  0  0
 26 29  1  0  0  0  0
M  END
$$$$

  -OEChem-01062216083D

 29 29  0     1  0  0  0  0  0999 V2000
   -3.2292   -2.6069    1.0287 H   0  0  0  0  0  0  0  0  0  0  0  0
   -3.1645   -1.6776    0.4558 C   0  0  0  0  0  0  0  0  0  0  0  0
   -3.9240   -0.9836    0.8242 H   0  0  0  0  0  0  0  0  0  0  0  0
   -3.3611   -1.8990   -0.5962 H   0  0  0  0  0  0  0  0  0  0  0  0
   -1.7852   -1.0650    0.6067 C   0  0  0  0  0  0  0  0  0  0  0  0
   -0.9567   -1.5931    1.3332 O   0  0  0  0  0  0  0  0  0  0  0  0
   -1.4681    0.0929   -0.0737 N   0  0  0  0  0  0  0  0  0  0  0  0
   -2.1754    0.4690   -0.6980 H   0  0  0  0  0  0  0  0  0  0  0  0
   -0.1393    0.7337   -0.0622 C   0  0  1  0  0  0  0  0  0  0  0  0
    0.6289   -0.0391   -0.1679 H   0  0  0  0  0  0  0  0  0  0  0  0
   -0.0346    1.6729   -1.2794 C   0  0  0  0  0  0  0  0  0  0  0  0
   -0.8373    2.4171   -1.2403 H   0  0  0  0  0  0  0  0  0  0  0  0
    0.9162    2.2161   -1.2522 H   0  0  0  0  0  0  0  0  0  0  0  0
   -0.1082    0.8938   -2.5678 C   0  0  0  0  0  0  0  0  0  0  0  0
    0.8736    0.1099   -3.1322 N   0  0  0  0  0  0  0  0  0  0  0  0
    1.7982   -0.0719   -2.7465 H   0  0  0  0  0  0  0  0  0  0  0  0
    0.3948   -0.3936   -4.3272 C   0  0  0  0  0  0  0  0  0  0  0  0
    0.9451   -1.0537   -4.9917 H   0  0  0  0  0  0  0  0  0  0  0  0
   -0.8239    0.0407   -4.5437 N   0  0  0  0  0  0  0  0  0  0  0  0
   -1.1428    0.8567   -3.4647 C   0  0  0  0  0  0  0  0  0  0  0  0
   -2.0828    1.3880   -3.3496 H   0  0  0  0  0  0  0  0  0  0  0  0
    0.1590    1.4779    1.2641 C   0  0  0  0  0  0  0  0  0  0  0  0
    0.3900    2.6815    1.2810 O   0  0  0  0  0  0  0  0  0  0  0  0
    0.1696    0.7831    2.4577 N   0  0  0  0  0  0  0  0  0  0  0  0
   -0.0824   -0.2079    2.4073 H   0  0  0  0  0  0  0  0  0  0  0  0
    0.3923    1.3976    3.7595 C   0  0  0  0  0  0  0  0  0  0  0  0
   -0.3888    2.1344    3.9737 H   0  0  0  0  0  0  0  0  0  0  0  0
    0.3747    0.6353    4.5443 H   0  0  0  0  0  0  0  0  0  0  0  0
    1.3661    1.8976    3.7854 H   0  0  0  0  0  0  0  0  0  0  0  0
  1  2  1  0  0  0  0
  2  3  1  0  0  0  0
  2  4  1  0  0  0  0
  2  5  1  0  0  0  0
  5  6  2  0  0  0  0
  5  7  1  0  0  0  0
  7  8  1  0  0  0  0
  7  9  1  0  0  0  0
  9 10  1  0  0  0  0
  9 11  1  0  0  0  0
  9 22  1  0  0  0  0
 11 12  1  0  0  0  0
 11 13  1  0  0  0  0
 11 14  1  0  0  0  0
 14 15  1  0  0  0  0
 14 20  2  0  0  0  0
 15 16  1  0  0  0  0
 15 17  1  0  0  0  0
 17 18  1  0  0  0  0
 17 19  2  0  0  0  0
 19 20  1  0  0  0  0
 20 21  1  0  0  0  0
 22 23  2  0  0  0  0
 22 24  1  0  0  0  0
 24 25  1  0  0  0  0
 24 26  1  0  0  0  0
 26 27  1  0  0  0  0
 26 28  1  0  0  0  0
 26 29  1  0  0  0  0
M  END
$$$$

  -OEChem-01062216083D

 29 29  0     1  0  0  0  0  0999 V2000
   -3.1807   -2.5832    1.1070 H   0  0  0  0  0  0  0  0  0  0  0  0
   -3.1313   -1.6578    0.5262 C   0  0  0  0  0  0  0  0  0  0  0  0
   -3.8715   -0.9560    0.9181 H   0  0  0  0  0  0  0  0  0  0  0  0
   -3.3691   -1.8840   -0.5161 H   0  0  0  0  0  0  0  0  0  0  0  0
   -1.7434   -1.0538    0.6214 C   0  0  0  0  0  0  0  0  0  0  0  0
   -0.8904   -1.5790    1.3227 O   0  0  0  0  0  0  0  0  0  0  0  0
   -1.4424    0.0973   -0.0772 N   0  0  0  0  0  0  0  0  0  0  0  0
   -2.1720    0.4965   -0.6602 H   0  0  0  0  0  0  0  0  0  0  0  0
   -0.1130    0.7320   -0.0799 C   0  0  1  0  0  0  0  0  0  0  0  0
    0.6559   -0.0401   -0.1884 H   0  0  0  0  0  0  0  0  0  0  0  0
   -0.0102    1.6728   -1.2944 C   0  0  0  0  0  0  0  0  0  0  0  0
   -0.8113    2.4187   -1.2499 H   0  0  0  0  0  0  0  0  0  0  0  0
    0.9415    2.2140   -1.2667 H   0  0  0  0  0  0  0  0  0  0  0  0
   -0.0971    0.8979   -2.5845 C   0  0  0  0  0  0  0  0  0  0  0  0
    0.8754    0.1091   -3.1586 N   0  0  0  0  0  0  0  0  0  0  0  0
    1.8026   -0.0783   -2.7822 H   0  0  0  0  0  0  0  0  0  0  0  0
    0.3835   -0.3886   -4.3508 C   0  0  0  0  0  0  0  0  0  0  0  0
    0.9245   -1.0493   -5.0225 H   0  0  0  0  0  0  0  0  0  0  0  0
   -0.8349    0.0521   -4.5554 N   0  0  0  0  0  0  0  0  0  0  0  0
   -1.1406    0.8664   -3.4710 C   0  0  0  0  0  0  0  0  0  0  0  0
   -2.0776    1.4005   -3.3449 H   0  0  0  0  0  0  0  0  0  0  0  0
    0.1748    1.4785    1.2435 C   0  0  0  0  0  0  0  0  0  0  0  0
    0.1728    2.7029    1.2997 O   0  0  0  0  0  0  0  0  0  0  0  0
    0.4829    0.7495    2.3753 N   0  0  0  0  0  0  0  0  0  0  0  0
    0.2942   -0.2548    2.3158 H   0  0  0  0  0  0  0  0  0  0  0  0
    0.6790    1.3497    3.6880 C   0  0  0  0  0  0  0  0  0  0  0  0
   -0.2326    1.8596    4.0160 H   0  0  0  0  0  0  0  0  0  0  0  0
    0.9289    0.5773    4.4216 H   0  0  0  0  0  0  0  0  0  0  0  0
    1.4988    2.0751    3.6592 H   0  0  0  0  0  0  0  0  0  0  0  0
  1  2  1  0  0  0  0
  2  3  1  0  0  0  0
  2  4  1  0  0  0  0
  2  5  1  0  0  0  0
  5  6  2  0  0  0  0
  5  7  1  0  0  0  0
  7  8  1  0  0  0  0
  7  9  1  0  0  0  0
  9 10  1  0  0  0  0
  9 11  1  0  0  0  0
  9 22  1  0  0  0  0
 11 12  1  0  0  0  0
 11 13  1  0  0  0  0
 11 14  1  0  0  0  0
 14 15  1  0  0  0  0
 14 20  2  0  0  0  0
 15 16  1  0  0  0  0
 15 17  1  0  0  0  0
 17 18  1  0  0  0  0
 17 19  2  0  0  0  0
 19 20  1  0  0  0  0
 20 21  1  0  0  0  0
 22 23  2  0  0  0  0
 22 24  1  0  0  0  0
 24 25  1  0  0  0  0
 24 26  1  0  0  0  0
 26 27  1  0  0  0  0
 26 28  1  0  0  0  0
 26 29  1  0  0  0  0
M  END
$$$$

  -OEChem-01062216083D

 29 29  0     1  0  0  0  0  0999 V2000
   -3.1401   -2.5725    1.1649 H   0  0  0  0  0  0  0  0  0  0  0  0
   -3.1074   -1.6527    0.5744 C   0  0  0  0  0  0  0  0  0  0  0  0
   -3.8389   -0.9485    0.9779 H   0  0  0  0  0  0  0  0  0  0  0  0
   -3.3701   -1.8891   -0.4597 H   0  0  0  0  0  0  0  0  0  0  0  0
   -1.7188   -1.0455    0.6296 C   0  0  0  0  0  0  0  0  0  0  0  0
   -0.8446   -1.5618    1.3122 O   0  0  0  0  0  0  0  0  0  0  0  0
   -1.4348    0.0990   -0.0864 N   0  0  0  0  0  0  0  0  0  0  0  0
   -2.1820    0.5184   -0.6317 H   0  0  0  0  0  0  0  0  0  0  0  0
   -0.1057    0.7288   -0.0947 C   0  0  1  0  0  0  0  0  0  0  0  0
    0.6644   -0.0422   -0.2034 H   0  0  0  0  0  0  0  0  0  0  0  0
    0.0018    1.6732   -1.3050 C   0  0  0  0  0  0  0  0  0  0  0  0
   -0.7965    2.4222   -1.2596 H   0  0  0  0  0  0  0  0  0  0  0  0
    0.9554    2.2110   -1.2740 H   0  0  0  0  0  0  0  0  0  0  0  0
   -0.0907    0.9022   -2.5969 C   0  0  0  0  0  0  0  0  0  0  0  0
    0.8766    0.1090   -3.1735 N   0  0  0  0  0  0  0  0  0  0  0  0
    1.8006   -0.0890   -2.7952 H   0  0  0  0  0  0  0  0  0  0  0  0
    0.3819   -0.3815   -4.3675 C   0  0  0  0  0  0  0  0  0  0  0  0
    0.9185   -1.0443   -5.0404 H   0  0  0  0  0  0  0  0  0  0  0  0
   -0.8327    0.0693   -4.5719 N   0  0  0  0  0  0  0  0  0  0  0  0
   -1.1338    0.8816   -3.4846 C   0  0  0  0  0  0  0  0  0  0  0  0
   -2.0669    1.4225   -3.3574 H   0  0  0  0  0  0  0  0  0  0  0  0
    0.1660    1.4792    1.2268 C   0  0  0  0  0  0  0  0  0  0  0  0
   -0.0626    2.6785    1.3353 O   0  0  0  0  0  0  0  0  0  0  0  0
    0.7601    0.7975    2.2709 N   0  0  0  0  0  0  0  0  0  0  0  0
    0.6934   -0.2206    2.2112 H   0  0  0  0  0  0  0  0  0  0  0  0
    0.9815    1.3977    3.5800 C   0  0  0  0  0  0  0  0  0  0  0  0
    0.0283    1.6858    4.0353 H   0  0  0  0  0  0  0  0  0  0  0  0
    1.4822    0.6845    4.2419 H   0  0  0  0  0  0  0  0  0  0  0  0
    1.6140    2.2874    3.4922 H   0  0  0  0  0  0  0  0  0  0  0  0
  1  2  1  0  0  0  0
  2  3  1  0  0  0  0
  2  4  1  0  0  0  0
  2  5  1  0  0  0  0
  5  6  2  0  0  0  0
  5  7  1  0  0  0  0
  7  8  1  0  0  0  0
  7  9  1  0  0  0  0
  9 10  1  0  0  0  0
  9 11  1  0  0  0  0
  9 22  1  0  0  0  0
 11 12  1  0  0  0  0
 11 13  1  0  0  0  0
 11 14  1  0  0  0  0
 14 15  1  0  0  0  0
 14 20  2  0  0  0  0
 15 16  1  0  0  0  0
 15 17  1  0  0  0  0
 17 18  1  0  0  0  0
 17 19  2  0  0  0  0
 19 20  1  0  0  0  0
 20 21  1  0  0  0  0
 22 23  2  0  0  0  0
 22 24  1  0  0  0  0
 24 25  1  0  0  0  0
 24 26  1  0  0  0  0
 26 27  1  0  0  0  0
 26 28  1  0  0  0  0
 26 29  1  0  0  0  0
M  END
$$$$

  -OEChem-01062216083D

 29 29  0     1  0  0  0  0  0999 V2000
   -3.1400   -2.5437    1.2442 H   0  0  0  0  0  0  0  0  0  0  0  0
   -3.1100   -1.6344    0.6372 C   0  0  0  0  0  0  0  0  0  0  0  0
   -3.7990   -0.9021    1.0651 H   0  0  0  0  0  0  0  0  0  0  0  0
   -3.4315   -1.8783   -0.3783 H   0  0  0  0  0  0  0  0  0  0  0  0
   -1.7028   -1.0689    0.6125 C   0  0  0  0  0  0  0  0  0  0  0  0
   -0.8067   -1.6129    1.2427 O   0  0  0  0  0  0  0  0  0  0  0  0
   -1.4269    0.0723   -0.1116 N   0  0  0  0  0  0  0  0  0  0  0  0
   -2.2049    0.5586   -0.5473 H   0  0  0  0  0  0  0  0  0  0  0  0
   -0.1006    0.7060   -0.1130 C   0  0  1  0  0  0  0  0  0  0  0  0
    0.6734   -0.0612   -0.2193 H   0  0  0  0  0  0  0  0  0  0  0  0
    0.0117    1.6598   -1.3145 C   0  0  0  0  0  0  0  0  0  0  0  0
   -0.7884    2.4069   -1.2667 H   0  0  0  0  0  0  0  0  0  0  0  0
    0.9637    2.1990   -1.2726 H   0  0  0  0  0  0  0  0  0  0  0  0
   -0.0733    0.9039   -2.6159 C   0  0  0  0  0  0  0  0  0  0  0  0
    0.8939    0.1171   -3.2023 N   0  0  0  0  0  0  0  0  0  0  0  0
    1.8172   -0.0888   -2.8265 H   0  0  0  0  0  0  0  0  0  0  0  0
    0.3986   -0.3582   -4.4025 C   0  0  0  0  0  0  0  0  0  0  0  0
    0.9345   -1.0124   -5.0846 H   0  0  0  0  0  0  0  0  0  0  0  0
   -0.8157    0.0955   -4.6016 N   0  0  0  0  0  0  0  0  0  0  0  0
   -1.1171    0.8920   -3.5028 C   0  0  0  0  0  0  0  0  0  0  0  0
   -2.0513    1.4287   -3.3673 H   0  0  0  0  0  0  0  0  0  0  0  0
    0.1536    1.4632    1.2066 C   0  0  0  0  0  0  0  0  0  0  0  0
   -0.3232    2.5777    1.3884 O   0  0  0  0  0  0  0  0  0  0  0  0
    1.0049    0.9189    2.1492 N   0  0  0  0  0  0  0  0  0  0  0  0
    1.1632   -0.0844    2.0636 H   0  0  0  0  0  0  0  0  0  0  0  0
    1.2414    1.5424    3.4454 C   0  0  0  0  0  0  0  0  0  0  0  0
    0.3110    1.5970    4.0202 H   0  0  0  0  0  0  0  0  0  0  0  0
    1.9701    0.9598    4.0172 H   0  0  0  0  0  0  0  0  0  0  0  0
    1.6364    2.5557    3.3175 H   0  0  0  0  0  0  0  0  0  0  0  0
  1  2  1  0  0  0  0
  2  3  1  0  0  0  0
  2  4  1  0  0  0  0
  2  5  1  0  0  0  0
  5  6  2  0  0  0  0
  5  7  1  0  0  0  0
  7  8  1  0  0  0  0
  7  9  1  0  0  0  0
  9 10  1  0  0  0  0
  9 11  1  0  0  0  0
  9 22  1  0  0  0  0
 11 12  1  0  0  0  0
 11 13  1  0  0  0  0
 11 14  1  0  0  0  0
 14 15  1  0  0  0  0
 14 20  2  0  0  0  0
 15 16  1  0  0  0  0
 15 17  1  0  0  0  0
 17 18  1  0  0  0  0
 17 19  2  0  0  0  0
 19 20  1  0  0  0  0
 20 21  1  0  0  0  0
 22 23  2  0  0  0  0
 22 24  1  0  0  0  0
 24 25  1  0  0  0  0
 24 26  1  0  0  0  0
 26 27  1  0  0  0  0
 26 28  1  0  0  0  0
 26 29  1  0  0  0  0
M  END
$$$$

  -OEChem-01062216083D

 29 29  0     1  0  0  0  0  0999 V2000
   -3.1411   -2.5083    1.3184 H   0  0  0  0  0  0  0  0  0  0  0  0
   -3.1153   -1.6045    0.7035 C   0  0  0  0  0  0  0  0  0  0  0  0
   -3.7465   -0.8437    1.1691 H   0  0  0  0  0  0  0  0  0  0  0  0
   -3.5103   -1.8410   -0.2875 H   0  0  0  0  0  0  0  0  0  0  0  0
   -1.6919   -1.0945    0.5849 C   0  0  0  0  0  0  0  0  0  0  0  0
   -0.7778   -1.6824    1.1448 O   0  0  0  0  0  0  0  0  0  0  0  0
   -1.4251    0.0466   -0.1425 N   0  0  0  0  0  0  0  0  0  0  0  0
   -2.2226    0.5925   -0.4551 H   0  0  0  0  0  0  0  0  0  0  0  0
   -0.1019    0.6873   -0.1346 C   0  0  1  0  0  0  0  0  0  0  0  0
    0.6760   -0.0759   -0.2391 H   0  0  0  0  0  0  0  0  0  0  0  0
    0.0127    1.6513   -1.3261 C   0  0  0  0  0  0  0  0  0  0  0  0
   -0.7912    2.3941   -1.2748 H   0  0  0  0  0  0  0  0  0  0  0  0
    0.9625    2.1938   -1.2754 H   0  0  0  0  0  0  0  0  0  0  0  0
   -0.0626    0.9057   -2.6339 C   0  0  0  0  0  0  0  0  0  0  0  0
    0.9117    0.1278   -3.2201 N   0  0  0  0  0  0  0  0  0  0  0  0
    1.8310   -0.0813   -2.8374 H   0  0  0  0  0  0  0  0  0  0  0  0
    0.4258   -0.3419   -4.4261 C   0  0  0  0  0  0  0  0  0  0  0  0
    0.9692   -0.9894   -5.1084 H   0  0  0  0  0  0  0  0  0  0  0  0
   -0.7891    0.1080   -4.6299 N   0  0  0  0  0  0  0  0  0  0  0  0
   -1.1023    0.8934   -3.5260 C   0  0  0  0  0  0  0  0  0  0  0  0
   -2.0410    1.4222   -3.3912 H   0  0  0  0  0  0  0  0  0  0  0  0
    0.1406    1.4495    1.1835 C   0  0  0  0  0  0  0  0  0  0  0  0
   -0.5561    2.4168    1.4690 O   0  0  0  0  0  0  0  0  0  0  0  0
    1.2004    1.1029    2.0007 N   0  0  0  0  0  0  0  0  0  0  0  0
    1.6089    0.1857    1.8366 H   0  0  0  0  0  0  0  0  0  0  0  0
    1.4423    1.7447    3.2872 C   0  0  0  0  0  0  0  0  0  0  0  0
    0.5983    1.5766    3.9644 H   0  0  0  0  0  0  0  0  0  0  0  0
    2.3458    1.3356    3.7494 H   0  0  0  0  0  0  0  0  0  0  0  0
    1.5809    2.8233    3.1577 H   0  0  0  0  0  0  0  0  0  0  0  0
  1  2  1  0  0  0  0
  2  3  1  0  0  0  0
  2  4  1  0  0  0  0
  2  5  1  0  0  0  0
  5  6  2  0  0  0  0
  5  7  1  0  0  0  0
  7  8  1  0  0  0  0
  7  9  1  0  0  0  0
  9 10  1  0  0  0  0
  9 11  1  0  0  0  0
  9 22  1  0  0  0  0
 11 12  1  0  0  0  0
 11 13  1  0  0  0  0
 11 14  1  0  0  0  0
 14 15  1  0  0  0  0
 14 20  2  0  0  0  0
 15 16  1  0  0  0  0
 15 17  1  0  0  0  0
 17 18  1  0  0  0  0
 17 19  2  0  0  0  0
 19 20  1  0  0  0  0
 20 21  1  0  0  0  0
 22 23  2  0  0  0  0
 22 24  1  0  0  0  0
 24 25  1  0  0  0  0
 24 26  1  0  0  0  0
 26 27  1  0  0  0  0
 26 28  1  0  0  0  0
 26 29  1  0  0  0  0
M  END
$$$$

  -OEChem-01062216083D

 29 29  0     1  0  0  0  0  0999 V2000
   -3.1462   -2.4925    1.3536 H   0  0  0  0  0  0  0  0  0  0  0  0
   -3.1227   -1.5893    0.7378 C   0  0  0  0  0  0  0  0  0  0  0  0
   -3.7207   -0.8154    1.2252 H   0  0  0  0  0  0  0  0  0  0  0  0
   -3.5575   -1.8166   -0.2385 H   0  0  0  0  0  0  0  0  0  0  0  0
   -1.6935   -1.1104    0.5691 C   0  0  0  0  0  0  0  0  0  0  0  0
   -0.7737   -1.7252    1.0889 O   0  0  0  0  0  0  0  0  0  0  0  0
   -1.4303    0.0294   -0.1620 N   0  0  0  0  0  0  0  0  0  0  0  0
   -2.2324    0.6026   -0.4066 H   0  0  0  0  0  0  0  0  0  0  0  0
   -0.1086    0.6746   -0.1437 C   0  0  1  0  0  0  0  0  0  0  0  0
    0.6713   -0.0875   -0.2417 H   0  0  0  0  0  0  0  0  0  0  0  0
    0.0103    1.6444   -1.3289 C   0  0  0  0  0  0  0  0  0  0  0  0
   -0.7969    2.3835   -1.2774 H   0  0  0  0  0  0  0  0  0  0  0  0
    0.9577    2.1903   -1.2707 H   0  0  0  0  0  0  0  0  0  0  0  0
   -0.0550    0.9060   -2.6410 C   0  0  0  0  0  0  0  0  0  0  0  0
    0.9244    0.1340   -3.2266 N   0  0  0  0  0  0  0  0  0  0  0  0
    1.8415   -0.0771   -2.8394 H   0  0  0  0  0  0  0  0  0  0  0  0
    0.4442   -0.3326   -4.4362 C   0  0  0  0  0  0  0  0  0  0  0  0
    0.9915   -0.9765   -5.1189 H   0  0  0  0  0  0  0  0  0  0  0  0
   -0.7707    0.1153   -4.6435 N   0  0  0  0  0  0  0  0  0  0  0  0
   -1.0911    0.8939   -3.5369 C   0  0  0  0  0  0  0  0  0  0  0  0
   -2.0320    1.4187   -3.4024 H   0  0  0  0  0  0  0  0  0  0  0  0
    0.1261    1.4442    1.1712 C   0  0  0  0  0  0  0  0  0  0  0  0
   -0.7174    2.2395    1.5699 O   0  0  0  0  0  0  0  0  0  0  0  0
    1.3299    1.3309    1.8419 N   0  0  0  0  0  0  0  0  0  0  0  0
    1.9268    0.5523    1.5767 H   0  0  0  0  0  0  0  0  0  0  0  0
    1.5916    2.0034    3.1086 C   0  0  0  0  0  0  0  0  0  0  0  0
    0.8913    1.6582    3.8765 H   0  0  0  0  0  0  0  0  0  0  0  0
    2.6105    1.7907    3.4461 H   0  0  0  0  0  0  0  0  0  0  0  0
    1.4860    3.0876    2.9966 H   0  0  0  0  0  0  0  0  0  0  0  0
  1  2  1  0  0  0  0
  2  3  1  0  0  0  0
  2  4  1  0  0  0  0
  2  5  1  0  0  0  0
  5  6  2  0  0  0  0
  5  7  1  0  0  0  0
  7  8  1  0  0  0  0
  7  9  1  0  0  0  0
  9 10  1  0  0  0  0
  9 11  1  0  0  0  0
  9 22  1  0  0  0  0
 11 12  1  0  0  0  0
 11 13  1  0  0  0  0
 11 14  1  0  0  0  0
 14 15  1  0  0  0  0
 14 20  2  0  0  0  0
 15 16  1  0  0  0  0
 15 17  1  0  0  0  0
 17 18  1  0  0  0  0
 17 19  2  0  0  0  0
 19 20  1  0  0  0  0
 20 21  1  0  0  0  0
 22 23  2  0  0  0  0
 22 24  1  0  0  0  0
 24 25  1  0  0  0  0
 24 26  1  0  0  0  0
 26 27  1  0  0  0  0
 26 28  1  0  0  0  0
 26 29  1  0  0  0  0
M  END
$$$$

  -OEChem-01062216083D

 29 29  0     1  0  0  0  0  0999 V2000
   -3.1498   -2.4836    1.3753 H   0  0  0  0  0  0  0  0  0  0  0  0
   -3.1282   -1.5781    0.7627 C   0  0  0  0  0  0  0  0  0  0  0  0
   -3.6974   -0.7960    1.2709 H   0  0  0  0  0  0  0  0  0  0  0  0
   -3.5953   -1.7930   -0.2014 H   0  0  0  0  0  0  0  0  0  0  0  0
   -1.6966   -1.1227    0.5546 C   0  0  0  0  0  0  0  0  0  0  0  0
   -0.7731   -1.7604    1.0391 O   0  0  0  0  0  0  0  0  0  0  0  0
   -1.4378    0.0176   -0.1778 N   0  0  0  0  0  0  0  0  0  0  0  0
   -2.2420    0.6057   -0.3759 H   0  0  0  0  0  0  0  0  0  0  0  0
   -0.1173    0.6667   -0.1468 C   0  0  1  0  0  0  0  0  0  0  0  0
    0.6661   -0.0927   -0.2381 H   0  0  0  0  0  0  0  0  0  0  0  0
    0.0039    1.6389   -1.3294 C   0  0  0  0  0  0  0  0  0  0  0  0
   -0.8069    2.3742   -1.2801 H   0  0  0  0  0  0  0  0  0  0  0  0
    0.9484    2.1889   -1.2671 H   0  0  0  0  0  0  0  0  0  0  0  0
   -0.0508    0.9029   -2.6432 C   0  0  0  0  0  0  0  0  0  0  0  0
    0.9339    0.1358   -3.2266 N   0  0  0  0  0  0  0  0  0  0  0  0
    1.8455   -0.0831   -2.8313 H   0  0  0  0  0  0  0  0  0  0  0  0
    0.4620   -0.3261   -4.4412 C   0  0  0  0  0  0  0  0  0  0  0  0
    1.0143   -0.9670   -5.1224 H   0  0  0  0  0  0  0  0  0  0  0  0
   -0.7515    0.1222   -4.6553 N   0  0  0  0  0  0  0  0  0  0  0  0
   -1.0807    0.8939   -3.5465 C   0  0  0  0  0  0  0  0  0  0  0  0
   -2.0231    1.4177   -3.4169 H   0  0  0  0  0  0  0  0  0  0  0  0
    0.1104    1.4405    1.1681 C   0  0  0  0  0  0  0  0  0  0  0  0
   -0.8198    2.0441    1.6913 O   0  0  0  0  0  0  0  0  0  0  0  0
    1.3866    1.5836    1.6826 N   0  0  0  0  0  0  0  0  0  0  0  0
    2.1103    0.9850    1.2955 H   0  0  0  0  0  0  0  0  0  0  0  0
    1.6633    2.2953    2.9247 C   0  0  0  0  0  0  0  0  0  0  0  0
    1.1498    1.8141    3.7637 H   0  0  0  0  0  0  0  0  0  0  0  0
    2.7382    2.2953    3.1292 H   0  0  0  0  0  0  0  0  0  0  0  0
    1.3265    3.3349    2.8546 H   0  0  0  0  0  0  0  0  0  0  0  0
  1  2  1  0  0  0  0
  2  3  1  0  0  0  0
  2  4  1  0  0  0  0
  2  5  1  0  0  0  0
  5  6  2  0  0  0  0
  5  7  1  0  0  0  0
  7  8  1  0  0  0  0
  7  9  1  0  0  0  0
  9 10  1  0  0  0  0
  9 11  1  0  0  0  0
  9 22  1  0  0  0  0
 11 12  1  0  0  0  0
 11 13  1  0  0  0  0
 11 14  1  0  0  0  0
 14 15  1  0  0  0  0
 14 20  2  0  0  0  0
 15 16  1  0  0  0  0
 15 17  1  0  0  0  0
 17 18  1  0  0  0  0
 17 19  2  0  0  0  0
 19 20  1  0  0  0  0
 20 21  1  0  0  0  0
 22 23  2  0  0  0  0
 22 24  1  0  0  0  0
 24 25  1  0  0  0  0
 24 26  1  0  0  0  0
 26 27  1  0  0  0  0
 26 28  1  0  0  0  0
 26 29  1  0  0  0  0
M  END
$$$$

  -OEChem-01062216083D

 29 29  0     1  0  0  0  0  0999 V2000
   -3.1502   -2.4775    1.3832 H   0  0  0  0  0  0  0  0  0  0  0  0
   -3.1317   -1.5665    0.7787 C   0  0  0  0  0  0  0  0  0  0  0  0
   -3.6757   -0.7814    1.3095 H   0  0  0  0  0  0  0  0  0  0  0  0
   -3.6269   -1.7654   -0.1747 H   0  0  0  0  0  0  0  0  0  0  0  0
   -1.6998   -1.1287    0.5375 C   0  0  0  0  0  0  0  0  0  0  0  0
   -0.7737   -1.7873    0.9874 O   0  0  0  0  0  0  0  0  0  0  0  0
   -1.4455    0.0149   -0.1919 N   0  0  0  0  0  0  0  0  0  0  0  0
   -2.2510    0.6110   -0.3558 H   0  0  0  0  0  0  0  0  0  0  0  0
   -0.1259    0.6672   -0.1472 C   0  0  1  0  0  0  0  0  0  0  0  0
    0.6605   -0.0897   -0.2338 H   0  0  0  0  0  0  0  0  0  0  0  0
   -0.0051    1.6388   -1.3314 C   0  0  0  0  0  0  0  0  0  0  0  0
   -0.8210    2.3685   -1.2861 H   0  0  0  0  0  0  0  0  0  0  0  0
    0.9352    2.1956   -1.2688 H   0  0  0  0  0  0  0  0  0  0  0  0
   -0.0490    0.9015   -2.6447 C   0  0  0  0  0  0  0  0  0  0  0  0
    0.9432    0.1399   -3.2228 N   0  0  0  0  0  0  0  0  0  0  0  0
    1.8534   -0.0752   -2.8221 H   0  0  0  0  0  0  0  0  0  0  0  0
    0.4794   -0.3269   -4.4387 C   0  0  0  0  0  0  0  0  0  0  0  0
    1.0387   -0.9648   -5.1170 H   0  0  0  0  0  0  0  0  0  0  0  0
   -0.7361    0.1128   -4.6584 N   0  0  0  0  0  0  0  0  0  0  0  0
   -1.0759    0.8823   -3.5514 C   0  0  0  0  0  0  0  0  0  0  0  0
   -2.0235    1.3974   -3.4251 H   0  0  0  0  0  0  0  0  0  0  0  0
    0.0981    1.4413    1.1707 C   0  0  0  0  0  0  0  0  0  0  0  0
   -0.8596    1.8411    1.8239 O   0  0  0  0  0  0  0  0  0  0  0  0
    1.3711    1.8497    1.5286 N   0  0  0  0  0  0  0  0  0  0  0  0
    2.1500    1.4428    1.0196 H   0  0  0  0  0  0  0  0  0  0  0  0
    1.6499    2.5962    2.7498 C   0  0  0  0  0  0  0  0  0  0  0  0
    1.3516    2.0159    3.6293 H   0  0  0  0  0  0  0  0  0  0  0  0
    2.7195    2.8140    2.8241 H   0  0  0  0  0  0  0  0  0  0  0  0
    1.1045    3.5459    2.7527 H   0  0  0  0  0  0  0  0  0  0  0  0
  1  2  1  0  0  0  0
  2  3  1  0  0  0  0
  2  4  1  0  0  0  0
  2  5  1  0  0  0  0
  5  6  2  0  0  0  0
  5  7  1  0  0  0  0
  7  8  1  0  0  0  0
  7  9  1  0  0  0  0
  9 10  1  0  0  0  0
  9 11  1  0  0  0  0
  9 22  1  0  0  0  0
 11 12  1  0  0  0  0
 11 13  1  0  0  0  0
 11 14  1  0  0  0  0
 14 15  1  0  0  0  0
 14 20  2  0  0  0  0
 15 16  1  0  0  0  0
 15 17  1  0  0  0  0
 17 18  1  0  0  0  0
 17 19  2  0  0  0  0
 19 20  1  0  0  0  0
 20 21  1  0  0  0  0
 22 23  2  0  0  0  0
 22 24  1  0  0  0  0
 24 25  1  0  0  0  0
 24 26  1  0  0  0  0
 26 27  1  0  0  0  0
 26 28  1  0  0  0  0
 26 29  1  0  0  0  0
M  END
$$$$

  -OEChem-01062216083D

 29 29  0     1  0  0  0  0  0999 V2000
   -3.1123   -2.5167    1.3698 H   0  0  0  0  0  0  0  0  0  0  0  0
   -3.1131   -1.5806    0.8046 C   0  0  0  0  0  0  0  0  0  0  0  0
   -3.5990   -0.8080    1.4054 H   0  0  0  0  0  0  0  0  0  0  0  0
   -3.6769   -1.7256   -0.1199 H   0  0  0  0  0  0  0  0  0  0  0  0
   -1.6902   -1.1641    0.4857 C   0  0  0  0  0  0  0  0  0  0  0  0
   -0.7535   -1.8806    0.8075 O   0  0  0  0  0  0  0  0  0  0  0  0
   -1.4524   -0.0011   -0.2208 N   0  0  0  0  0  0  0  0  0  0  0  0
   -2.2641    0.5952   -0.3440 H   0  0  0  0  0  0  0  0  0  0  0  0
   -0.1385    0.6645   -0.1524 C   0  0  1  0  0  0  0  0  0  0  0  0
    0.6297   -0.0315   -0.5046 H   0  0  0  0  0  0  0  0  0  0  0  0
   -0.1674    1.8896   -1.0835 C   0  0  0  0  0  0  0  0  0  0  0  0
   -0.9825    2.5556   -0.7799 H   0  0  0  0  0  0  0  0  0  0  0  0
    0.7650    2.4561   -0.9998 H   0  0  0  0  0  0  0  0  0  0  0  0
   -0.3489    1.4770   -2.5219 C   0  0  0  0  0  0  0  0  0  0  0  0
    0.5822    0.9121   -3.3664 N   0  0  0  0  0  0  0  0  0  0  0  0
    1.5327    0.6399   -3.1262 H   0  0  0  0  0  0  0  0  0  0  0  0
   -0.0067    0.7300   -4.6042 C   0  0  0  0  0  0  0  0  0  0  0  0
    0.4810    0.2905   -5.4699 H   0  0  0  0  0  0  0  0  0  0  0  0
   -1.2430    1.1661   -4.5846 N   0  0  0  0  0  0  0  0  0  0  0  0
   -1.4676    1.6383   -3.2966 C   0  0  0  0  0  0  0  0  0  0  0  0
   -2.4000    2.0779   -2.9551 H   0  0  0  0  0  0  0  0  0  0  0  0
    0.2564    1.1079    1.2814 C   0  0  0  0  0  0  0  0  0  0  0  0
   -0.5787    1.1385    2.1791 O   0  0  0  0  0  0  0  0  0  0  0  0
    1.4672    1.7434    1.5039 N   0  0  0  0  0  0  0  0  0  0  0  0
    2.1667    1.6843    0.7705 H   0  0  0  0  0  0  0  0  0  0  0  0
    1.8674    2.2604    2.8083 C   0  0  0  0  0  0  0  0  0  0  0  0
    1.8866    1.4552    3.5504 H   0  0  0  0  0  0  0  0  0  0  0  0
    2.8670    2.7015    2.7502 H   0  0  0  0  0  0  0  0  0  0  0  0
    1.1692    3.0336    3.1457 H   0  0  0  0  0  0  0  0  0  0  0  0
  1  2  1  0  0  0  0
  2  3  1  0  0  0  0
  2  4  1  0  0  0  0
  2  5  1  0  0  0  0
  5  6  2  0  0  0  0
  5  7  1  0  0  0  0
  7  8  1  0  0  0  0
  7  9  1  0  0  0  0
  9 10  1  0  0  0  0
  9 11  1  0  0  0  0
  9 22  1  0  0  0  0
 11 12  1  0  0  0  0
 11 13  1  0  0  0  0
 11 14  1  0  0  0  0
 14 15  1  0  0  0  0
 14 20  2  0  0  0  0
 15 16  1  0  0  0  0
 15 17  1  0  0  0  0
 17 18  1  0  0  0  0
 17 19  2  0  0  0  0
 19 20  1  0  0  0  0
 20 21  1  0  0  0  0
 22 23  2  0  0  0  0
 22 24  1  0  0  0  0
 24 25  1  0  0  0  0
 24 26  1  0  0  0  0
 26 27  1  0  0  0  0
 26 28  1  0  0  0  0
 26 29  1  0  0  0  0
M  END
$$$$

  -OEChem-01062216083D

 29 29  0     1  0  0  0  0  0999 V2000
   -3.1009   -2.5255    1.3465 H   0  0  0  0  0  0  0  0  0  0  0  0
   -3.1046   -1.5648    0.8242 C   0  0  0  0  0  0  0  0  0  0  0  0
   -3.5453   -0.8103    1.4804 H   0  0  0  0  0  0  0  0  0  0  0  0
   -3.7116   -1.6556   -0.0796 H   0  0  0  0  0  0  0  0  0  0  0  0
   -1.6879   -1.1642    0.4610 C   0  0  0  0  0  0  0  0  0  0  0  0
   -0.7544   -1.9118    0.7134 O   0  0  0  0  0  0  0  0  0  0  0  0
   -1.4565    0.0118   -0.2271 N   0  0  0  0  0  0  0  0  0  0  0  0
   -2.2701    0.6104   -0.3200 H   0  0  0  0  0  0  0  0  0  0  0  0
   -0.1435    0.6812   -0.1527 C   0  0  1  0  0  0  0  0  0  0  0  0
    0.6251   -0.0120   -0.5098 H   0  0  0  0  0  0  0  0  0  0  0  0
   -0.1806    1.8997   -1.0958 C   0  0  0  0  0  0  0  0  0  0  0  0
   -1.0004    2.5631   -0.7994 H   0  0  0  0  0  0  0  0  0  0  0  0
    0.7478    2.4737   -1.0242 H   0  0  0  0  0  0  0  0  0  0  0  0
   -0.3552    1.4712   -2.5306 C   0  0  0  0  0  0  0  0  0  0  0  0
    0.5843    0.9058   -3.3654 N   0  0  0  0  0  0  0  0  0  0  0  0
    1.5322    0.6330   -3.1151 H   0  0  0  0  0  0  0  0  0  0  0  0
    0.0031    0.7086   -4.6045 C   0  0  0  0  0  0  0  0  0  0  0  0
    0.4983    0.2633   -5.4630 H   0  0  0  0  0  0  0  0  0  0  0  0
   -1.2355    1.1388   -4.5960 N   0  0  0  0  0  0  0  0  0  0  0  0
   -1.4702    1.6202   -3.3134 C   0  0  0  0  0  0  0  0  0  0  0  0
   -2.4069    2.0580   -2.9817 H   0  0  0  0  0  0  0  0  0  0  0  0
    0.2668    1.1095    1.2863 C   0  0  0  0  0  0  0  0  0  0  0  0
   -0.4694    0.8984    2.2435 O   0  0  0  0  0  0  0  0  0  0  0  0
    1.3072    2.0043    1.4825 N   0  0  0  0  0  0  0  0  0  0  0  0
    1.9281    2.1799    0.6990 H   0  0  0  0  0  0  0  0  0  0  0  0
    1.6674    2.5415    2.7907 C   0  0  0  0  0  0  0  0  0  0  0  0
    1.9163    1.7305    3.4836 H   0  0  0  0  0  0  0  0  0  0  0  0
    2.5364    3.2007    2.7031 H   0  0  0  0  0  0  0  0  0  0  0  0
    0.8369    3.1196    3.2096 H   0  0  0  0  0  0  0  0  0  0  0  0
  1  2  1  0  0  0  0
  2  3  1  0  0  0  0
  2  4  1  0  0  0  0
  2  5  1  0  0  0  0
  5  6  2  0  0  0  0
  5  7  1  0  0  0  0
  7  8  1  0  0  0  0
  7  9  1  0  0  0  0
  9 10  1  0  0  0  0
  9 11  1  0  0  0  0
  9 22  1  0  0  0  0
 11 12  1  0  0  0  0
 11 13  1  0  0  0  0
 11 14  1  0  0  0  0
 14 15  1  0  0  0  0
 14 20  2  0  0  0  0
 15 16  1  0  0  0  0
 15 17  1  0  0  0  0
 17 18  1  0  0  0  0
 17 19  2  0  0  0  0
 19 20  1  0  0  0  0
 20 21  1  0  0  0  0
 22 23  2  0  0  0  0
 22 24  1  0  0  0  0
 24 25  1  0  0  0  0
 24 26  1  0  0  0  0
 26 27  1  0  0  0  0
 26 28  1  0  0  0  0
 26 29  1  0  0  0  0
M  END
$$$$

  -OEChem-01062216083D

 29 29  0     1  0  0  0  0  0999 V2000
   -3.1037   -2.5254    1.3294 H   0  0  0  0  0  0  0  0  0  0  0  0
   -3.1064   -1.5546    0.8263 C   0  0  0  0  0  0  0  0  0  0  0  0
   -3.5340   -0.8105    1.5025 H   0  0  0  0  0  0  0  0  0  0  0  0
   -3.7246   -1.6237   -0.0717 H   0  0  0  0  0  0  0  0  0  0  0  0
   -1.6908   -1.1578    0.4540 C   0  0  0  0  0  0  0  0  0  0  0  0
   -0.7653   -1.9305    0.6519 O   0  0  0  0  0  0  0  0  0  0  0  0
   -1.4598    0.0272   -0.2192 N   0  0  0  0  0  0  0  0  0  0  0  0
   -2.2765    0.6217   -0.3086 H   0  0  0  0  0  0  0  0  0  0  0  0
   -0.1497    0.7053   -0.1474 C   0  0  1  0  0  0  0  0  0  0  0  0
    0.6193    0.0123   -0.5042 H   0  0  0  0  0  0  0  0  0  0  0  0
   -0.1945    1.9102   -1.1098 C   0  0  0  0  0  0  0  0  0  0  0  0
   -1.0178    2.5740   -0.8245 H   0  0  0  0  0  0  0  0  0  0  0  0
    0.7318    2.4882   -1.0515 H   0  0  0  0  0  0  0  0  0  0  0  0
   -0.3621    1.4613   -2.5387 C   0  0  0  0  0  0  0  0  0  0  0  0
    0.5840    0.8922   -3.3634 N   0  0  0  0  0  0  0  0  0  0  0  0
    1.5314    0.6246   -3.1053 H   0  0  0  0  0  0  0  0  0  0  0  0
    0.0101    0.6813   -4.6036 C   0  0  0  0  0  0  0  0  0  0  0  0
    0.5119    0.2315   -5.4558 H   0  0  0  0  0  0  0  0  0  0  0  0
   -1.2307    1.1058   -4.6051 N   0  0  0  0  0  0  0  0  0  0  0  0
   -1.4741    1.5970   -3.3278 C   0  0  0  0  0  0  0  0  0  0  0  0
   -2.4138    2.0348   -3.0045 H   0  0  0  0  0  0  0  0  0  0  0  0
    0.2797    1.1293    1.2913 C   0  0  0  0  0  0  0  0  0  0  0  0
   -0.2762    0.6779    2.2847 O   0  0  0  0  0  0  0  0  0  0  0  0
    1.0877    2.2390    1.4929 N   0  0  0  0  0  0  0  0  0  0  0  0
    1.5557    2.6337    0.6838 H   0  0  0  0  0  0  0  0  0  0  0  0
    1.4173    2.7677    2.8127 C   0  0  0  0  0  0  0  0  0  0  0  0
    1.9215    2.0056    3.4164 H   0  0  0  0  0  0  0  0  0  0  0  0
    2.0829    3.6310    2.7187 H   0  0  0  0  0  0  0  0  0  0  0  0
    0.5096    3.0876    3.3353 H   0  0  0  0  0  0  0  0  0  0  0  0
  1  2  1  0  0  0  0
  2  3  1  0  0  0  0
  2  4  1  0  0  0  0
  2  5  1  0  0  0  0
  5  6  2  0  0  0  0
  5  7  1  0  0  0  0
  7  8  1  0  0  0  0
  7  9  1  0  0  0  0
  9 10  1  0  0  0  0
  9 11  1  0  0  0  0
  9 22  1  0  0  0  0
 11 12  1  0  0  0  0
 11 13  1  0  0  0  0
 11 14  1  0  0  0  0
 14 15  1  0  0  0  0
 14 20  2  0  0  0  0
 15 16  1  0  0  0  0
 15 17  1  0  0  0  0
 17 18  1  0  0  0  0
 17 19  2  0  0  0  0
 19 20  1  0  0  0  0
 20 21  1  0  0  0  0
 22 23  2  0  0  0  0
 22 24  1  0  0  0  0
 24 25  1  0  0  0  0
 24 26  1  0  0  0  0
 26 27  1  0  0  0  0
 26 28  1  0  0  0  0
 26 29  1  0  0  0  0
M  END
$$$$

  -OEChem-01062216083D

 29 29  0     1  0  0  0  0  0999 V2000
   -3.0949   -2.5020    1.3600 H   0  0  0  0  0  0  0  0  0  0  0  0
   -3.1049   -1.5391    0.8414 C   0  0  0  0  0  0  0  0  0  0  0  0
   -3.5252   -0.7856    1.5114 H   0  0  0  0  0  0  0  0  0  0  0  0
   -3.7336   -1.6225   -0.0480 H   0  0  0  0  0  0  0  0  0  0  0  0
   -1.6941   -1.1479    0.4454 C   0  0  0  0  0  0  0  0  0  0  0  0
   -0.7781   -1.9419    0.5904 O   0  0  0  0  0  0  0  0  0  0  0  0
   -1.4688    0.0443   -0.2169 N   0  0  0  0  0  0  0  0  0  0  0  0
   -2.2904    0.6318   -0.3066 H   0  0  0  0  0  0  0  0  0  0  0  0
   -0.1654    0.7361   -0.1519 C   0  0  1  0  0  0  0  0  0  0  0  0
    0.6054    0.0430   -0.5059 H   0  0  0  0  0  0  0  0  0  0  0  0
   -0.2056    1.9290   -1.1281 C   0  0  0  0  0  0  0  0  0  0  0  0
   -1.0306    2.5973   -0.8589 H   0  0  0  0  0  0  0  0  0  0  0  0
    0.7241    2.5027   -1.0696 H   0  0  0  0  0  0  0  0  0  0  0  0
   -0.3609    1.4607   -2.5517 C   0  0  0  0  0  0  0  0  0  0  0  0
    0.5938    0.8833   -3.3604 N   0  0  0  0  0  0  0  0  0  0  0  0
    1.5382    0.6175   -3.0888 H   0  0  0  0  0  0  0  0  0  0  0  0
    0.0288    0.6475   -4.6002 C   0  0  0  0  0  0  0  0  0  0  0  0
    0.5376    0.1834   -5.4405 H   0  0  0  0  0  0  0  0  0  0  0  0
   -1.2133    1.0678   -4.6177 N   0  0  0  0  0  0  0  0  0  0  0  0
   -1.4679    1.5784   -3.3506 C   0  0  0  0  0  0  0  0  0  0  0  0
   -2.4126    2.0156   -3.0412 H   0  0  0  0  0  0  0  0  0  0  0  0
    0.2730    1.1566    1.2858 C   0  0  0  0  0  0  0  0  0  0  0  0
    0.0012    0.4814    2.2685 O   0  0  0  0  0  0  0  0  0  0  0  0
    0.7972    2.4173    1.5352 N   0  0  0  0  0  0  0  0  0  0  0  0
    0.9988    3.0128    0.7391 H   0  0  0  0  0  0  0  0  0  0  0  0
    1.1219    2.9077    2.8713 C   0  0  0  0  0  0  0  0  0  0  0  0
    1.8664    2.2606    3.3473 H   0  0  0  0  0  0  0  0  0  0  0  0
    1.5314    3.9208    2.8140 H   0  0  0  0  0  0  0  0  0  0  0  0
    0.2247    2.9337    3.4990 H   0  0  0  0  0  0  0  0  0  0  0  0
  1  2  1  0  0  0  0
  2  3  1  0  0  0  0
  2  4  1  0  0  0  0
  2  5  1  0  0  0  0
  5  6  2  0  0  0  0
  5  7  1  0  0  0  0
  7  8  1  0  0  0  0
  7  9  1  0  0  0  0
  9 10  1  0  0  0  0
  9 11  1  0  0  0  0
  9 22  1  0  0  0  0
 11 12  1  0  0  0  0
 11 13  1  0  0  0  0
 11 14  1  0  0  0  0
 14 15  1  0  0  0  0
 14 20  2  0  0  0  0
 15 16  1  0  0  0  0
 15 17  1  0  0  0  0
 17 18  1  0  0  0  0
 17 19  2  0  0  0  0
 19 20  1  0  0  0  0
 20 21  1  0  0  0  0
 22 23  2  0  0  0  0
 22 24  1  0  0  0  0
 24 25  1  0  0  0  0
 24 26  1  0  0  0  0
 26 27  1  0  0  0  0
 26 28  1  0  0  0  0
 26 29  1  0  0  0  0
M  END
$$$$

  -OEChem-01062216083D

 29 29  0     1  0  0  0  0  0999 V2000
   -3.1225   -2.5033    1.3411 H   0  0  0  0  0  0  0  0  0  0  0  0
   -3.1261   -1.5452    0.8138 C   0  0  0  0  0  0  0  0  0  0  0  0
   -3.5808   -0.7915    1.4606 H   0  0  0  0  0  0  0  0  0  0  0  0
   -3.7213   -1.6457   -0.0968 H   0  0  0  0  0  0  0  0  0  0  0  0
   -1.7067   -1.1401    0.4642 C   0  0  0  0  0  0  0  0  0  0  0  0
   -0.7933   -1.9292    0.6377 O   0  0  0  0  0  0  0  0  0  0  0  0
   -1.4761    0.0504   -0.1991 N   0  0  0  0  0  0  0  0  0  0  0  0
   -2.3021    0.6220   -0.3373 H   0  0  0  0  0  0  0  0  0  0  0  0
   -0.1795    0.7551   -0.1431 C   0  0  1  0  0  0  0  0  0  0  0  0
    0.5956    0.0624   -0.4891 H   0  0  0  0  0  0  0  0  0  0  0  0
   -0.2144    1.9401   -1.1274 C   0  0  0  0  0  0  0  0  0  0  0  0
   -1.0440    2.6080   -0.8728 H   0  0  0  0  0  0  0  0  0  0  0  0
    0.7151    2.5145   -1.0588 H   0  0  0  0  0  0  0  0  0  0  0  0
   -0.3600    1.4600   -2.5478 C   0  0  0  0  0  0  0  0  0  0  0  0
    0.6015    0.8772   -3.3441 N   0  0  0  0  0  0  0  0  0  0  0  0
    1.5456    0.6189   -3.0636 H   0  0  0  0  0  0  0  0  0  0  0  0
    0.0455    0.6282   -4.5853 C   0  0  0  0  0  0  0  0  0  0  0  0
    0.5611    0.1571   -5.4171 H   0  0  0  0  0  0  0  0  0  0  0  0
   -1.1977    1.0449   -4.6153 N   0  0  0  0  0  0  0  0  0  0  0  0
   -1.4614    1.5682   -3.3554 C   0  0  0  0  0  0  0  0  0  0  0  0
   -2.4086    2.0065   -3.0561 H   0  0  0  0  0  0  0  0  0  0  0  0
    0.2551    1.1852    1.2893 C   0  0  0  0  0  0  0  0  0  0  0  0
    0.3399    0.3846    2.2075 O   0  0  0  0  0  0  0  0  0  0  0  0
    0.4696    2.5200    1.6023 N   0  0  0  0  0  0  0  0  0  0  0  0
    0.3776    3.2030    0.8580 H   0  0  0  0  0  0  0  0  0  0  0  0
    0.8221    2.9874    2.9392 C   0  0  0  0  0  0  0  0  0  0  0  0
    1.7697    2.5440    3.2630 H   0  0  0  0  0  0  0  0  0  0  0  0
    0.9310    4.0761    2.9437 H   0  0  0  0  0  0  0  0  0  0  0  0
    0.0422    2.7158    3.6584 H   0  0  0  0  0  0  0  0  0  0  0  0
  1  2  1  0  0  0  0
  2  3  1  0  0  0  0
  2  4  1  0  0  0  0
  2  5  1  0  0  0  0
  5  6  2  0  0  0  0
  5  7  1  0  0  0  0
  7  8  1  0  0  0  0
  7  9  1  0  0  0  0
  9 10  1  0  0  0  0
  9 11  1  0  0  0  0
  9 22  1  0  0  0  0
 11 12  1  0  0  0  0
 11 13  1  0  0  0  0
 11 14  1  0  0  0  0
 14 15  1  0  0  0  0
 14 20  2  0  0  0  0
 15 16  1  0  0  0  0
 15 17  1  0  0  0  0
 17 18  1  0  0  0  0
 17 19  2  0  0  0  0
 19 20  1  0  0  0  0
 20 21  1  0  0  0  0
 22 23  2  0  0  0  0
 22 24  1  0  0  0  0
 24 25  1  0  0  0  0
 24 26  1  0  0  0  0
 26 27  1  0  0  0  0
 26 28  1  0  0  0  0
 26 29  1  0  0  0  0
M  END
$$$$

  -OEChem-01062216083D

 29 29  0     1  0  0  0  0  0999 V2000
   -3.2573   -2.5646    1.1440 H   0  0  0  0  0  0  0  0  0  0  0  0
   -3.2019   -1.6376    0.5661 C   0  0  0  0  0  0  0  0  0  0  0  0
   -3.8625   -0.8987    1.0250 H   0  0  0  0  0  0  0  0  0  0  0  0
   -3.5384   -1.8384   -0.4539 H   0  0  0  0  0  0  0  0  0  0  0  0
   -1.7760   -1.1197    0.5487 C   0  0  0  0  0  0  0  0  0  0  0  0
   -0.8893   -1.7956    1.0350 O   0  0  0  0  0  0  0  0  0  0  0  0
   -1.4918    0.0598   -0.1116 N   0  0  0  0  0  0  0  0  0  0  0  0
   -2.2760    0.5209   -0.5602 H   0  0  0  0  0  0  0  0  0  0  0  0
   -0.1982    0.7699   -0.0721 C   0  0  1  0  0  0  0  0  0  0  0  0
    0.5745    0.0736   -0.4162 H   0  0  0  0  0  0  0  0  0  0  0  0
   -0.2424    1.9467   -1.0639 C   0  0  0  0  0  0  0  0  0  0  0  0
   -1.0749    2.6123   -0.8133 H   0  0  0  0  0  0  0  0  0  0  0  0
    0.6840    2.5272   -0.9958 H   0  0  0  0  0  0  0  0  0  0  0  0
   -0.3956    1.4531   -2.4787 C   0  0  0  0  0  0  0  0  0  0  0  0
    0.5678    0.8667   -3.2696 N   0  0  0  0  0  0  0  0  0  0  0  0
    1.5185    0.6301   -2.9908 H   0  0  0  0  0  0  0  0  0  0  0  0
    0.0128    0.6024   -4.5079 C   0  0  0  0  0  0  0  0  0  0  0  0
    0.5318    0.1289   -5.3366 H   0  0  0  0  0  0  0  0  0  0  0  0
   -1.2346    1.0076   -4.5385 N   0  0  0  0  0  0  0  0  0  0  0  0
   -1.4985    1.5475   -3.2861 C   0  0  0  0  0  0  0  0  0  0  0  0
   -2.4477    1.9847   -2.9915 H   0  0  0  0  0  0  0  0  0  0  0  0
    0.2514    1.2262    1.3431 C   0  0  0  0  0  0  0  0  0  0  0  0
    0.8419    0.4675    2.0960 O   0  0  0  0  0  0  0  0  0  0  0  0
    0.1663    2.5576    1.7241 N   0  0  0  0  0  0  0  0  0  0  0  0
   -0.3174    3.1975    1.1034 H   0  0  0  0  0  0  0  0  0  0  0  0
    0.6523    3.0578    3.0057 C   0  0  0  0  0  0  0  0  0  0  0  0
    1.7247    2.8624    3.1125 H   0  0  0  0  0  0  0  0  0  0  0  0
    0.4907    4.1376    3.0768 H   0  0  0  0  0  0  0  0  0  0  0  0
    0.1222    2.5725    3.8319 H   0  0  0  0  0  0  0  0  0  0  0  0
  1  2  1  0  0  0  0
  2  3  1  0  0  0  0
  2  4  1  0  0  0  0
  2  5  1  0  0  0  0
  5  6  2  0  0  0  0
  5  7  1  0  0  0  0
  7  8  1  0  0  0  0
  7  9  1  0  0  0  0
  9 10  1  0  0  0  0
  9 11  1  0  0  0  0
  9 22  1  0  0  0  0
 11 12  1  0  0  0  0
 11 13  1  0  0  0  0
 11 14  1  0  0  0  0
 14 15  1  0  0  0  0
 14 20  2  0  0  0  0
 15 16  1  0  0  0  0
 15 17  1  0  0  0  0
 17 18  1  0  0  0  0
 17 19  2  0  0  0  0
 19 20  1  0  0  0  0
 20 21  1  0  0  0  0
 22 23  2  0  0  0  0
 22 24  1  0  0  0  0
 24 25  1  0  0  0  0
 24 26  1  0  0  0  0
 26 27  1  0  0  0  0
 26 28  1  0  0  0  0
 26 29  1  0  0  0  0
M  END
$$$$

  -OEChem-01062216083D

 29 29  0     1  0  0  0  0  0999 V2000
   -3.2671   -2.6516    0.9578 H   0  0  0  0  0  0  0  0  0  0  0  0
   -3.1969   -1.7228    0.3844 C   0  0  0  0  0  0  0  0  0  0  0  0
   -4.0053   -1.0565    0.6944 H   0  0  0  0  0  0  0  0  0  0  0  0
   -3.3106   -1.9563   -0.6770 H   0  0  0  0  0  0  0  0  0  0  0  0
   -1.8551   -1.0588    0.6297 C   0  0  0  0  0  0  0  0  0  0  0  0
   -1.0664   -1.5697    1.4012 O   0  0  0  0  0  0  0  0  0  0  0  0
   -1.5395    0.0995   -0.0527 N   0  0  0  0  0  0  0  0  0  0  0  0
   -2.1830    0.3625   -0.7927 H   0  0  0  0  0  0  0  0  0  0  0  0
   -0.2244    0.7685   -0.0262 C   0  0  1  0  0  0  0  0  0  0  0  0
    0.5235    0.0454   -0.3708 H   0  0  0  0  0  0  0  0  0  0  0  0
   -0.2342    1.9467   -1.0153 C   0  0  0  0  0  0  0  0  0  0  0  0
   -1.0412    2.6409   -0.7601 H   0  0  0  0  0  0  0  0  0  0  0  0
    0.7115    2.4957   -0.9479 H   0  0  0  0  0  0  0  0  0  0  0  0
   -0.4144    1.4553   -2.4279 C   0  0  0  0  0  0  0  0  0  0  0  0
    0.5228    0.8341   -3.2235 N   0  0  0  0  0  0  0  0  0  0  0  0
    1.4732    0.5828   -2.9557 H   0  0  0  0  0  0  0  0  0  0  0  0
   -0.0509    0.5816   -4.4558 C   0  0  0  0  0  0  0  0  0  0  0  0
    0.4445    0.0879   -5.2872 H   0  0  0  0  0  0  0  0  0  0  0  0
   -1.2856    1.0248   -4.4763 N   0  0  0  0  0  0  0  0  0  0  0  0
   -1.5189    1.5863   -3.2275 C   0  0  0  0  0  0  0  0  0  0  0  0
   -2.4494    2.0595   -2.9285 H   0  0  0  0  0  0  0  0  0  0  0  0
    0.2443    1.2307    1.3768 C   0  0  0  0  0  0  0  0  0  0  0  0
    1.1459    0.6320    1.9461 O   0  0  0  0  0  0  0  0  0  0  0  0
   -0.0810    2.4939    1.8467 N   0  0  0  0  0  0  0  0  0  0  0  0
   -0.8535    2.9708    1.3940 H   0  0  0  0  0  0  0  0  0  0  0  0
    0.4298    3.0314    3.1027 C   0  0  0  0  0  0  0  0  0  0  0  0
    1.5215    3.1111    3.0695 H   0  0  0  0  0  0  0  0  0  0  0  0
    0.0173    4.0284    3.2842 H   0  0  0  0  0  0  0  0  0  0  0  0
    0.1493    2.3824    3.9391 H   0  0  0  0  0  0  0  0  0  0  0  0
  1  2  1  0  0  0  0
  2  3  1  0  0  0  0
  2  4  1  0  0  0  0
  2  5  1  0  0  0  0
  5  6  2  0  0  0  0
  5  7  1  0  0  0  0
  7  8  1  0  0  0  0
  7  9  1  0  0  0  0
  9 10  1  0  0  0  0
  9 11  1  0  0  0  0
  9 22  1  0  0  0  0
 11 12  1  0  0  0  0
 11 13  1  0  0  0  0
 11 14  1  0  0  0  0
 14 15  1  0  0  0  0
 14 20  2  0  0  0  0
 15 16  1  0  0  0  0
 15 17  1  0  0  0  0
 17 18  1  0  0  0  0
 17 19  2  0  0  0  0
 19 20  1  0  0  0  0
 20 21  1  0  0  0  0
 22 23  2  0  0  0  0
 22 24  1  0  0  0  0
 24 25  1  0  0  0  0
 24 26  1  0  0  0  0
 26 27  1  0  0  0  0
 26 28  1  0  0  0  0
 26 29  1  0  0  0  0
M  END
$$$$

  -OEChem-01062216083D

 29 29  0     1  0  0  0  0  0999 V2000
   -3.2575   -2.6611    0.9656 H   0  0  0  0  0  0  0  0  0  0  0  0
   -3.1834   -1.7511    0.3634 C   0  0  0  0  0  0  0  0  0  0  0  0
   -4.0210   -1.0953    0.6121 H   0  0  0  0  0  0  0  0  0  0  0  0
   -3.2420   -2.0243   -0.6929 H   0  0  0  0  0  0  0  0  0  0  0  0
   -1.8705   -1.0451    0.6451 C   0  0  0  0  0  0  0  0  0  0  0  0
   -1.1047   -1.5050    1.4714 O   0  0  0  0  0  0  0  0  0  0  0  0
   -1.5555    0.1056   -0.0503 N   0  0  0  0  0  0  0  0  0  0  0  0
   -2.1663    0.3257   -0.8314 H   0  0  0  0  0  0  0  0  0  0  0  0
   -0.2308    0.7546   -0.0278 C   0  0  1  0  0  0  0  0  0  0  0  0
    0.5064    0.0216   -0.3745 H   0  0  0  0  0  0  0  0  0  0  0  0
   -0.2190    1.9419   -1.0037 C   0  0  0  0  0  0  0  0  0  0  0  0
   -1.0104    2.6506   -0.7391 H   0  0  0  0  0  0  0  0  0  0  0  0
    0.7375    2.4714   -0.9318 H   0  0  0  0  0  0  0  0  0  0  0  0
   -0.4127    1.4637   -2.4189 C   0  0  0  0  0  0  0  0  0  0  0  0
    0.5118    0.8295   -3.2190 N   0  0  0  0  0  0  0  0  0  0  0  0
    1.4590    0.5629   -2.9544 H   0  0  0  0  0  0  0  0  0  0  0  0
   -0.0673    0.5958   -4.4524 C   0  0  0  0  0  0  0  0  0  0  0  0
    0.4187    0.0979   -5.2868 H   0  0  0  0  0  0  0  0  0  0  0  0
   -1.2937    1.0619   -4.4686 N   0  0  0  0  0  0  0  0  0  0  0  0
   -1.5148    1.6223   -3.2168 C   0  0  0  0  0  0  0  0  0  0  0  0
   -2.4348    2.1136   -2.9145 H   0  0  0  0  0  0  0  0  0  0  0  0
    0.2408    1.2131    1.3715 C   0  0  0  0  0  0  0  0  0  0  0  0
    1.3022    0.7964    1.8154 O   0  0  0  0  0  0  0  0  0  0  0  0
   -0.3163    2.3376    1.9583 N   0  0  0  0  0  0  0  0  0  0  0  0
   -1.2258    2.6266    1.6130 H   0  0  0  0  0  0  0  0  0  0  0  0
    0.1499    2.8778    3.2302 C   0  0  0  0  0  0  0  0  0  0  0  0
    1.1984    3.1853    3.1559 H   0  0  0  0  0  0  0  0  0  0  0  0
   -0.4455    3.7517    3.5110 H   0  0  0  0  0  0  0  0  0  0  0  0
    0.0587    2.1259    4.0213 H   0  0  0  0  0  0  0  0  0  0  0  0
  1  2  1  0  0  0  0
  2  3  1  0  0  0  0
  2  4  1  0  0  0  0
  2  5  1  0  0  0  0
  5  6  2  0  0  0  0
  5  7  1  0  0  0  0
  7  8  1  0  0  0  0
  7  9  1  0  0  0  0
  9 10  1  0  0  0  0
  9 11  1  0  0  0  0
  9 22  1  0  0  0  0
 11 12  1  0  0  0  0
 11 13  1  0  0  0  0
 11 14  1  0  0  0  0
 14 15  1  0  0  0  0
 14 20  2  0  0  0  0
 15 16  1  0  0  0  0
 15 17  1  0  0  0  0
 17 18  1  0  0  0  0
 17 19  2  0  0  0  0
 19 20  1  0  0  0  0
 20 21  1  0  0  0  0
 22 23  2  0  0  0  0
 22 24  1  0  0  0  0
 24 25  1  0  0  0  0
 24 26  1  0  0  0  0
 26 27  1  0  0  0  0
 26 28  1  0  0  0  0
 26 29  1  0  0  0  0
M  END
$$$$

  -OEChem-01062216083D

 29 29  0     1  0  0  0  0  0999 V2000
   -3.2434   -2.6833    0.9464 H   0  0  0  0  0  0  0  0  0  0  0  0
   -3.1824   -1.7619    0.3604 C   0  0  0  0  0  0  0  0  0  0  0  0
   -4.0262   -1.1200    0.6245 H   0  0  0  0  0  0  0  0  0  0  0  0
   -3.2437   -2.0166   -0.7006 H   0  0  0  0  0  0  0  0  0  0  0  0
   -1.8762   -1.0466    0.6489 C   0  0  0  0  0  0  0  0  0  0  0  0
   -1.1227   -1.4845    1.4988 O   0  0  0  0  0  0  0  0  0  0  0  0
   -1.5541    0.0959   -0.0564 N   0  0  0  0  0  0  0  0  0  0  0  0
   -2.1466    0.2978   -0.8568 H   0  0  0  0  0  0  0  0  0  0  0  0
   -0.2224    0.7310   -0.0308 C   0  0  1  0  0  0  0  0  0  0  0  0
    0.5111   -0.0057   -0.3767 H   0  0  0  0  0  0  0  0  0  0  0  0
   -0.2019    1.9283   -0.9930 C   0  0  0  0  0  0  0  0  0  0  0  0
   -0.9843    2.6422   -0.7149 H   0  0  0  0  0  0  0  0  0  0  0  0
    0.7604    2.4470   -0.9191 H   0  0  0  0  0  0  0  0  0  0  0  0
   -0.4052    1.4686   -2.4128 C   0  0  0  0  0  0  0  0  0  0  0  0
    0.5096    0.8346   -3.2237 N   0  0  0  0  0  0  0  0  0  0  0  0
    1.4574    0.5619   -2.9679 H   0  0  0  0  0  0  0  0  0  0  0  0
   -0.0778    0.6181   -4.4562 C   0  0  0  0  0  0  0  0  0  0  0  0
    0.3998    0.1250   -5.2983 H   0  0  0  0  0  0  0  0  0  0  0  0
   -1.3010    1.0934   -4.4607 N   0  0  0  0  0  0  0  0  0  0  0  0
   -1.5104    1.6440   -3.2025 C   0  0  0  0  0  0  0  0  0  0  0  0
   -2.4253    2.1383   -2.8893 H   0  0  0  0  0  0  0  0  0  0  0  0
    0.2442    1.1933    1.3666 C   0  0  0  0  0  0  0  0  0  0  0  0
    1.3997    0.9845    1.7124 O   0  0  0  0  0  0  0  0  0  0  0  0
   -0.5034    2.1223    2.0698 N   0  0  0  0  0  0  0  0  0  0  0  0
   -1.4794    2.2059    1.8039 H   0  0  0  0  0  0  0  0  0  0  0  0
   -0.0847    2.6573    3.3599 C   0  0  0  0  0  0  0  0  0  0  0  0
    0.8779    3.1716    3.2682 H   0  0  0  0  0  0  0  0  0  0  0  0
   -0.8235    3.3746    3.7299 H   0  0  0  0  0  0  0  0  0  0  0  0
    0.0155    1.8507    4.0940 H   0  0  0  0  0  0  0  0  0  0  0  0
  1  2  1  0  0  0  0
  2  3  1  0  0  0  0
  2  4  1  0  0  0  0
  2  5  1  0  0  0  0
  5  6  2  0  0  0  0
  5  7  1  0  0  0  0
  7  8  1  0  0  0  0
  7  9  1  0  0  0  0
  9 10  1  0  0  0  0
  9 11  1  0  0  0  0
  9 22  1  0  0  0  0
 11 12  1  0  0  0  0
 11 13  1  0  0  0  0
 11 14  1  0  0  0  0
 14 15  1  0  0  0  0
 14 20  2  0  0  0  0
 15 16  1  0  0  0  0
 15 17  1  0  0  0  0
 17 18  1  0  0  0  0
 17 19  2  0  0  0  0
 19 20  1  0  0  0  0
 20 21  1  0  0  0  0
 22 23  2  0  0  0  0
 22 24  1  0  0  0  0
 24 25  1  0  0  0  0
 24 26  1  0  0  0  0
 26 27  1  0  0  0  0
 26 28  1  0  0  0  0
 26 29  1  0  0  0  0
M  END
$$$$

  -OEChem-01062216083D

 29 29  0     1  0  0  0  0  0999 V2000
   -3.2538   -2.6846    0.9333 H   0  0  0  0  0  0  0  0  0  0  0  0
   -3.1827   -1.7699    0.3380 C   0  0  0  0  0  0  0  0  0  0  0  0
   -4.0344   -1.1280    0.5747 H   0  0  0  0  0  0  0  0  0  0  0  0
   -3.2189   -2.0374   -0.7209 H   0  0  0  0  0  0  0  0  0  0  0  0
   -1.8860   -1.0458    0.6467 C   0  0  0  0  0  0  0  0  0  0  0  0
   -1.1469   -1.4695    1.5168 O   0  0  0  0  0  0  0  0  0  0  0  0
   -1.5534    0.0910   -0.0626 N   0  0  0  0  0  0  0  0  0  0  0  0
   -2.1331    0.2861   -0.8742 H   0  0  0  0  0  0  0  0  0  0  0  0
   -0.2172    0.7173   -0.0305 C   0  0  1  0  0  0  0  0  0  0  0  0
    0.5161   -0.0198   -0.3756 H   0  0  0  0  0  0  0  0  0  0  0  0
   -0.1979    1.9197   -0.9855 C   0  0  0  0  0  0  0  0  0  0  0  0
   -0.9777    2.6329   -0.6980 H   0  0  0  0  0  0  0  0  0  0  0  0
    0.7651    2.4373   -0.9131 H   0  0  0  0  0  0  0  0  0  0  0  0
   -0.4064    1.4688   -2.4074 C   0  0  0  0  0  0  0  0  0  0  0  0
    0.5052    0.8384   -3.2246 N   0  0  0  0  0  0  0  0  0  0  0  0
    1.4563    0.5708   -2.9754 H   0  0  0  0  0  0  0  0  0  0  0  0
   -0.0876    0.6271   -4.4555 C   0  0  0  0  0  0  0  0  0  0  0  0
    0.3861    0.1378   -5.3019 H   0  0  0  0  0  0  0  0  0  0  0  0
   -1.3110    1.1018   -4.4531 N   0  0  0  0  0  0  0  0  0  0  0  0
   -1.5147    1.6479   -3.1919 C   0  0  0  0  0  0  0  0  0  0  0  0
   -2.4281    2.1409   -2.8725 H   0  0  0  0  0  0  0  0  0  0  0  0
    0.2504    1.1864    1.3634 C   0  0  0  0  0  0  0  0  0  0  0  0
    1.4473    1.1919    1.6211 O   0  0  0  0  0  0  0  0  0  0  0  0
   -0.6197    1.8752    2.1898 N   0  0  0  0  0  0  0  0  0  0  0  0
   -1.6080    1.7524    1.9930 H   0  0  0  0  0  0  0  0  0  0  0  0
   -0.2278    2.3780    3.5007 C   0  0  0  0  0  0  0  0  0  0  0  0
    0.6030    3.0855    3.4085 H   0  0  0  0  0  0  0  0  0  0  0  0
   -1.0676    2.8951    3.9742 H   0  0  0  0  0  0  0  0  0  0  0  0
    0.0831    1.5523    4.1494 H   0  0  0  0  0  0  0  0  0  0  0  0
  1  2  1  0  0  0  0
  2  3  1  0  0  0  0
  2  4  1  0  0  0  0
  2  5  1  0  0  0  0
  5  6  2  0  0  0  0
  5  7  1  0  0  0  0
  7  8  1  0  0  0  0
  7  9  1  0  0  0  0
  9 10  1  0  0  0  0
  9 11  1  0  0  0  0
  9 22  1  0  0  0  0
 11 12  1  0  0  0  0
 11 13  1  0  0  0  0
 11 14  1  0  0  0  0
 14 15  1  0  0  0  0
 14 20  2  0  0  0  0
 15 16  1  0  0  0  0
 15 17  1  0  0  0  0
 17 18  1  0  0  0  0
 17 19  2  0  0  0  0
 19 20  1  0  0  0  0
 20 21  1  0  0  0  0
 22 23  2  0  0  0  0
 22 24  1  0  0  0  0
 24 25  1  0  0  0  0
 24 26  1  0  0  0  0
 26 27  1  0  0  0  0
 26 28  1  0  0  0  0
 26 29  1  0  0  0  0
M  END
$$$$

  -OEChem-01062216083D

 29 29  0     1  0  0  0  0  0999 V2000
   -3.2628   -2.6934    0.8953 H   0  0  0  0  0  0  0  0  0  0  0  0
   -3.1935   -1.7706    0.3123 C   0  0  0  0  0  0  0  0  0  0  0  0
   -4.0489   -1.1356    0.5547 H   0  0  0  0  0  0  0  0  0  0  0  0
   -3.2252   -2.0244   -0.7502 H   0  0  0  0  0  0  0  0  0  0  0  0
   -1.9003   -1.0460    0.6346 C   0  0  0  0  0  0  0  0  0  0  0  0
   -1.1751   -1.4621    1.5201 O   0  0  0  0  0  0  0  0  0  0  0  0
   -1.5577    0.0898   -0.0710 N   0  0  0  0  0  0  0  0  0  0  0  0
   -2.1322    0.2904   -0.8852 H   0  0  0  0  0  0  0  0  0  0  0  0
   -0.2207    0.7169   -0.0282 C   0  0  1  0  0  0  0  0  0  0  0  0
    0.5155   -0.0180   -0.3710 H   0  0  0  0  0  0  0  0  0  0  0  0
   -0.2090    1.9182   -0.9863 C   0  0  0  0  0  0  0  0  0  0  0  0
   -0.9944    2.6256   -0.6993 H   0  0  0  0  0  0  0  0  0  0  0  0
    0.7493    2.4446   -0.9144 H   0  0  0  0  0  0  0  0  0  0  0  0
   -0.4115    1.4648   -2.4091 C   0  0  0  0  0  0  0  0  0  0  0  0
    0.5067    0.8409   -3.2240 N   0  0  0  0  0  0  0  0  0  0  0  0
    1.4603    0.5834   -2.9739 H   0  0  0  0  0  0  0  0  0  0  0  0
   -0.0800    0.6274   -4.4573 C   0  0  0  0  0  0  0  0  0  0  0  0
    0.4014    0.1445   -5.3031 H   0  0  0  0  0  0  0  0  0  0  0  0
   -1.3073    1.0917   -4.4578 N   0  0  0  0  0  0  0  0  0  0  0  0
   -1.5190    1.6354   -3.1968 C   0  0  0  0  0  0  0  0  0  0  0  0
   -2.4372    2.1215   -2.8802 H   0  0  0  0  0  0  0  0  0  0  0  0
    0.2510    1.1940    1.3635 C   0  0  0  0  0  0  0  0  0  0  0  0
    1.4424    1.4134    1.5444 O   0  0  0  0  0  0  0  0  0  0  0  0
   -0.6651    1.6092    2.3130 N   0  0  0  0  0  0  0  0  0  0  0  0
   -1.6106    1.2620    2.1840 H   0  0  0  0  0  0  0  0  0  0  0  0
   -0.2691    2.0562    3.6425 C   0  0  0  0  0  0  0  0  0  0  0  0
    0.3958    2.9237    3.5735 H   0  0  0  0  0  0  0  0  0  0  0  0
   -1.1509    2.3447    4.2224 H   0  0  0  0  0  0  0  0  0  0  0  0
    0.2514    1.2541    4.1765 H   0  0  0  0  0  0  0  0  0  0  0  0
  1  2  1  0  0  0  0
  2  3  1  0  0  0  0
  2  4  1  0  0  0  0
  2  5  1  0  0  0  0
  5  6  2  0  0  0  0
  5  7  1  0  0  0  0
  7  8  1  0  0  0  0
  7  9  1  0  0  0  0
  9 10  1  0  0  0  0
  9 11  1  0  0  0  0
  9 22  1  0  0  0  0
 11 12  1  0  0  0  0
 11 13  1  0  0  0  0
 11 14  1  0  0  0  0
 14 15  1  0  0  0  0
 14 20  2  0  0  0  0
 15 16  1  0  0  0  0
 15 17  1  0  0  0  0
 17 18  1  0  0  0  0
 17 19  2  0  0  0  0
 19 20  1  0  0  0  0
 20 21  1  0  0  0  0
 22 23  2  0  0  0  0
 22 24  1  0  0  0  0
 24 25  1  0  0  0  0
 24 26  1  0  0  0  0
 26 27  1  0  0  0  0
 26 28  1  0  0  0  0
 26 29  1  0  0  0  0
M  END
$$$$

  -OEChem-01062216083D

 29 29  0     1  0  0  0  0  0999 V2000
   -3.3119   -2.6852    0.8392 H   0  0  0  0  0  0  0  0  0  0  0  0
   -3.2173   -1.7645    0.2564 C   0  0  0  0  0  0  0  0  0  0  0  0
   -4.0706   -1.1186    0.4770 H   0  0  0  0  0  0  0  0  0  0  0  0
   -3.2267   -2.0199   -0.8061 H   0  0  0  0  0  0  0  0  0  0  0  0
   -1.9243   -1.0535    0.6080 C   0  0  0  0  0  0  0  0  0  0  0  0
   -1.2264   -1.4716    1.5145 O   0  0  0  0  0  0  0  0  0  0  0  0
   -1.5611    0.0862   -0.0798 N   0  0  0  0  0  0  0  0  0  0  0  0
   -2.1302    0.3053   -0.8929 H   0  0  0  0  0  0  0  0  0  0  0  0
   -0.2249    0.7173   -0.0192 C   0  0  1  0  0  0  0  0  0  0  0  0
    0.5158   -0.0122   -0.3629 H   0  0  0  0  0  0  0  0  0  0  0  0
   -0.2270    1.9193   -0.9798 C   0  0  0  0  0  0  0  0  0  0  0  0
   -1.0225    2.6161   -0.6943 H   0  0  0  0  0  0  0  0  0  0  0  0
    0.7227    2.4611   -0.9107 H   0  0  0  0  0  0  0  0  0  0  0  0
   -0.4196    1.4610   -2.4023 C   0  0  0  0  0  0  0  0  0  0  0  0
    0.5085    0.8486   -3.2143 N   0  0  0  0  0  0  0  0  0  0  0  0
    1.4661    0.6086   -2.9628 H   0  0  0  0  0  0  0  0  0  0  0  0
   -0.0745    0.6226   -4.4471 C   0  0  0  0  0  0  0  0  0  0  0  0
    0.4143    0.1445   -5.2912 H   0  0  0  0  0  0  0  0  0  0  0  0
   -1.3090    1.0677   -4.4495 N   0  0  0  0  0  0  0  0  0  0  0  0
   -1.5290    1.6133   -3.1907 C   0  0  0  0  0  0  0  0  0  0  0  0
   -2.4541    2.0866   -2.8754 H   0  0  0  0  0  0  0  0  0  0  0  0
    0.2512    1.1957    1.3740 C   0  0  0  0  0  0  0  0  0  0  0  0
    1.3894    1.6332    1.4939 O   0  0  0  0  0  0  0  0  0  0  0  0
   -0.6317    1.3211    2.4306 N   0  0  0  0  0  0  0  0  0  0  0  0
   -1.4528    0.7248    2.3610 H   0  0  0  0  0  0  0  0  0  0  0  0
   -0.2020    1.7329    3.7611 C   0  0  0  0  0  0  0  0  0  0  0  0
    0.2582    2.7259    3.7256 H   0  0  0  0  0  0  0  0  0  0  0  0
   -1.0605    1.7763    4.4380 H   0  0  0  0  0  0  0  0  0  0  0  0
    0.5254    1.0213    4.1655 H   0  0  0  0  0  0  0  0  0  0  0  0
  1  2  1  0  0  0  0
  2  3  1  0  0  0  0
  2  4  1  0  0  0  0
  2  5  1  0  0  0  0
  5  6  2  0  0  0  0
  5  7  1  0  0  0  0
  7  8  1  0  0  0  0
  7  9  1  0  0  0  0
  9 10  1  0  0  0  0
  9 11  1  0  0  0  0
  9 22  1  0  0  0  0
 11 12  1  0  0  0  0
 11 13  1  0  0  0  0
 11 14  1  0  0  0  0
 14 15  1  0  0  0  0
 14 20  2  0  0  0  0
 15 16  1  0  0  0  0
 15 17  1  0  0  0  0
 17 18  1  0  0  0  0
 17 19  2  0  0  0  0
 19 20  1  0  0  0  0
 20 21  1  0  0  0  0
 22 23  2  0  0  0  0
 22 24  1  0  0  0  0
 24 25  1  0  0  0  0
 24 26  1  0  0  0  0
 26 27  1  0  0  0  0
 26 28  1  0  0  0  0
 26 29  1  0  0  0  0
M  END
$$$$

  -OEChem-01062216083D

 29 29  0     1  0  0  0  0  0999 V2000
   -3.3550   -2.6788    0.7837 H   0  0  0  0  0  0  0  0  0  0  0  0
   -3.2501   -1.7419    0.2290 C   0  0  0  0  0  0  0  0  0  0  0  0
   -4.0835   -1.0841    0.4876 H   0  0  0  0  0  0  0  0  0  0  0  0
   -3.2868   -1.9623   -0.8408 H   0  0  0  0  0  0  0  0  0  0  0  0
   -1.9336   -1.0730    0.5764 C   0  0  0  0  0  0  0  0  0  0  0  0
   -1.2264   -1.5410    1.4517 O   0  0  0  0  0  0  0  0  0  0  0  0
   -1.5551    0.0766   -0.0858 N   0  0  0  0  0  0  0  0  0  0  0  0
   -2.1474    0.3477   -0.8658 H   0  0  0  0  0  0  0  0  0  0  0  0
   -0.2243    0.7195   -0.0112 C   0  0  1  0  0  0  0  0  0  0  0  0
    0.5235   -0.0013   -0.3573 H   0  0  0  0  0  0  0  0  0  0  0  0
   -0.2449    1.9189   -0.9788 C   0  0  0  0  0  0  0  0  0  0  0  0
   -1.0521    2.6034   -0.6967 H   0  0  0  0  0  0  0  0  0  0  0  0
    0.6944    2.4788   -0.9152 H   0  0  0  0  0  0  0  0  0  0  0  0
   -0.4251    1.4537   -2.4014 C   0  0  0  0  0  0  0  0  0  0  0  0
    0.5147    0.8554   -3.2108 N   0  0  0  0  0  0  0  0  0  0  0  0
    1.4764    0.6339   -2.9582 H   0  0  0  0  0  0  0  0  0  0  0  0
   -0.0615    0.6192   -4.4449 C   0  0  0  0  0  0  0  0  0  0  0  0
    0.4365    0.1477   -5.2873 H   0  0  0  0  0  0  0  0  0  0  0  0
   -1.3023    1.0457   -4.4514 N   0  0  0  0  0  0  0  0  0  0  0  0
   -1.5345    1.5878   -3.1933 C   0  0  0  0  0  0  0  0  0  0  0  0
   -2.4679    2.0466   -2.8810 H   0  0  0  0  0  0  0  0  0  0  0  0
    0.2531    1.1922    1.3886 C   0  0  0  0  0  0  0  0  0  0  0  0
    1.2923    1.8355    1.4790 O   0  0  0  0  0  0  0  0  0  0  0  0
   -0.5210    1.0241    2.5217 N   0  0  0  0  0  0  0  0  0  0  0  0
   -1.1827    0.2506    2.4570 H   0  0  0  0  0  0  0  0  0  0  0  0
   -0.0613    1.4097    3.8501 C   0  0  0  0  0  0  0  0  0  0  0  0
    0.1572    2.4821    3.8844 H   0  0  0  0  0  0  0  0  0  0  0  0
   -0.8339    1.1929    4.5937 H   0  0  0  0  0  0  0  0  0  0  0  0
    0.8449    0.8564    4.1177 H   0  0  0  0  0  0  0  0  0  0  0  0
  1  2  1  0  0  0  0
  2  3  1  0  0  0  0
  2  4  1  0  0  0  0
  2  5  1  0  0  0  0
  5  6  2  0  0  0  0
  5  7  1  0  0  0  0
  7  8  1  0  0  0  0
  7  9  1  0  0  0  0
  9 10  1  0  0  0  0
  9 11  1  0  0  0  0
  9 22  1  0  0  0  0
 11 12  1  0  0  0  0
 11 13  1  0  0  0  0
 11 14  1  0  0  0  0
 14 15  1  0  0  0  0
 14 20  2  0  0  0  0
 15 16  1  0  0  0  0
 15 17  1  0  0  0  0
 17 18  1  0  0  0  0
 17 19  2  0  0  0  0
 19 20  1  0  0  0  0
 20 21  1  0  0  0  0
 22 23  2  0  0  0  0
 22 24  1  0  0  0  0
 24 25  1  0  0  0  0
 24 26  1  0  0  0  0
 26 27  1  0  0  0  0
 26 28  1  0  0  0  0
 26 29  1  0  0  0  0
M  END
$$$$

  -OEChem-01062216083D

 29 29  0     1  0  0  0  0  0999 V2000
   -3.3925   -2.6577    0.7830 H   0  0  0  0  0  0  0  0  0  0  0  0
   -3.2797   -1.7098    0.2490 C   0  0  0  0  0  0  0  0  0  0  0  0
   -4.0723   -1.0288    0.5687 H   0  0  0  0  0  0  0  0  0  0  0  0
   -3.3797   -1.8974   -0.8230 H   0  0  0  0  0  0  0  0  0  0  0  0
   -1.9223   -1.1010    0.5445 C   0  0  0  0  0  0  0  0  0  0  0  0
   -1.1706   -1.6481    1.3336 O   0  0  0  0  0  0  0  0  0  0  0  0
   -1.5441    0.0625   -0.0938 N   0  0  0  0  0  0  0  0  0  0  0  0
   -2.1841    0.4036   -0.8054 H   0  0  0  0  0  0  0  0  0  0  0  0
   -0.2230    0.7255   -0.0108 C   0  0  1  0  0  0  0  0  0  0  0  0
    0.5338    0.0154   -0.3586 H   0  0  0  0  0  0  0  0  0  0  0  0
   -0.2594    1.9222   -0.9842 C   0  0  0  0  0  0  0  0  0  0  0  0
   -1.0774    2.5956   -0.7070 H   0  0  0  0  0  0  0  0  0  0  0  0
    0.6709    2.4970   -0.9230 H   0  0  0  0  0  0  0  0  0  0  0  0
   -0.4242    1.4504   -2.4066 C   0  0  0  0  0  0  0  0  0  0  0  0
    0.5293    0.8664   -3.2107 N   0  0  0  0  0  0  0  0  0  0  0  0
    1.4930    0.6604   -2.9530 H   0  0  0  0  0  0  0  0  0  0  0  0
   -0.0370    0.6188   -4.4472 C   0  0  0  0  0  0  0  0  0  0  0  0
    0.4731    0.1551   -5.2868 H   0  0  0  0  0  0  0  0  0  0  0  0
   -1.2847    1.0242   -4.4605 N   0  0  0  0  0  0  0  0  0  0  0  0
   -1.5321    1.5630   -3.2039 C   0  0  0  0  0  0  0  0  0  0  0  0
   -2.4749    2.0060   -2.8968 H   0  0  0  0  0  0  0  0  0  0  0  0
    0.2498    1.1895    1.3973 C   0  0  0  0  0  0  0  0  0  0  0  0
    1.1433    2.0232    1.4911 O   0  0  0  0  0  0  0  0  0  0  0  0
   -0.3469    0.7469    2.5630 N   0  0  0  0  0  0  0  0  0  0  0  0
   -0.8752   -0.1217    2.4637 H   0  0  0  0  0  0  0  0  0  0  0  0
    0.1434    1.0982    3.8901 C   0  0  0  0  0  0  0  0  0  0  0  0
    0.1205    2.1837    4.0331 H   0  0  0  0  0  0  0  0  0  0  0  0
   -0.4853    0.6370    4.6578 H   0  0  0  0  0  0  0  0  0  0  0  0
    1.1715    0.7462    4.0244 H   0  0  0  0  0  0  0  0  0  0  0  0
  1  2  1  0  0  0  0
  2  3  1  0  0  0  0
  2  4  1  0  0  0  0
  2  5  1  0  0  0  0
  5  6  2  0  0  0  0
  5  7  1  0  0  0  0
  7  8  1  0  0  0  0
  7  9  1  0  0  0  0
  9 10  1  0  0  0  0
  9 11  1  0  0  0  0
  9 22  1  0  0  0  0
 11 12  1  0  0  0  0
 11 13  1  0  0  0  0
 11 14  1  0  0  0  0
 14 15  1  0  0  0  0
 14 20  2  0  0  0  0
 15 16  1  0  0  0  0
 15 17  1  0  0  0  0
 17 18  1  0  0  0  0
 17 19  2  0  0  0  0
 19 20  1  0  0  0  0
 20 21  1  0  0  0  0
 22 23  2  0  0  0  0
 22 24  1  0  0  0  0
 24 25  1  0  0  0  0
 24 26  1  0  0  0  0
 26 27  1  0  0  0  0
 26 28  1  0  0  0  0
 26 29  1  0  0  0  0
M  END
$$$$

  -OEChem-01062216083D

 29 29  0     1  0  0  0  0  0999 V2000
   -3.4068   -2.6216    0.8511 H   0  0  0  0  0  0  0  0  0  0  0  0
   -3.2927   -1.6718    0.3210 C   0  0  0  0  0  0  0  0  0  0  0  0
   -4.0251   -0.9609    0.7110 H   0  0  0  0  0  0  0  0  0  0  0  0
   -3.4848   -1.8374   -0.7420 H   0  0  0  0  0  0  0  0  0  0  0  0
   -1.8899   -1.1294    0.5155 C   0  0  0  0  0  0  0  0  0  0  0  0
   -1.0875   -1.7508    1.1928 O   0  0  0  0  0  0  0  0  0  0  0  0
   -1.5237    0.0475   -0.1051 N   0  0  0  0  0  0  0  0  0  0  0  0
   -2.2217    0.4650   -0.7136 H   0  0  0  0  0  0  0  0  0  0  0  0
   -0.2108    0.7260   -0.0224 C   0  0  1  0  0  0  0  0  0  0  0  0
    0.5522    0.0256   -0.3762 H   0  0  0  0  0  0  0  0  0  0  0  0
   -0.2571    1.9235   -0.9961 C   0  0  0  0  0  0  0  0  0  0  0  0
   -1.0804    2.5906   -0.7200 H   0  0  0  0  0  0  0  0  0  0  0  0
    0.6689    2.5051   -0.9341 H   0  0  0  0  0  0  0  0  0  0  0  0
   -0.4147    1.4519   -2.4196 C   0  0  0  0  0  0  0  0  0  0  0  0
    0.5458    0.8780   -3.2227 N   0  0  0  0  0  0  0  0  0  0  0  0
    1.5103    0.6789   -2.9633 H   0  0  0  0  0  0  0  0  0  0  0  0
   -0.0159    0.6261   -4.4605 C   0  0  0  0  0  0  0  0  0  0  0  0
    0.5007    0.1685   -5.2996 H   0  0  0  0  0  0  0  0  0  0  0  0
   -1.2674    1.0194   -4.4763 N   0  0  0  0  0  0  0  0  0  0  0  0
   -1.5228    1.5525   -3.2186 C   0  0  0  0  0  0  0  0  0  0  0  0
   -2.4709    1.9845   -2.9128 H   0  0  0  0  0  0  0  0  0  0  0  0
    0.2551    1.1721    1.3958 C   0  0  0  0  0  0  0  0  0  0  0  0
    0.9460    2.1757    1.5283 O   0  0  0  0  0  0  0  0  0  0  0  0
   -0.1120    0.4944    2.5430 N   0  0  0  0  0  0  0  0  0  0  0  0
   -0.5168   -0.4327    2.3942 H   0  0  0  0  0  0  0  0  0  0  0  0
    0.3759    0.8323    3.8741 C   0  0  0  0  0  0  0  0  0  0  0  0
    0.0962    1.8580    4.1364 H   0  0  0  0  0  0  0  0  0  0  0  0
   -0.0592    0.1563    4.6165 H   0  0  0  0  0  0  0  0  0  0  0  0
    1.4662    0.7413    3.9176 H   0  0  0  0  0  0  0  0  0  0  0  0
  1  2  1  0  0  0  0
  2  3  1  0  0  0  0
  2  4  1  0  0  0  0
  2  5  1  0  0  0  0
  5  6  2  0  0  0  0
  5  7  1  0  0  0  0
  7  8  1  0  0  0  0
  7  9  1  0  0  0  0
  9 10  1  0  0  0  0
  9 11  1  0  0  0  0
  9 22  1  0  0  0  0
 11 12  1  0  0  0  0
 11 13  1  0  0  0  0
 11 14  1  0  0  0  0
 14 15  1  0  0  0  0
 14 20  2  0  0  0  0
 15 16  1  0  0  0  0
 15 17  1  0  0  0  0
 17 18  1  0  0  0  0
 17 19  2  0  0  0  0
 19 20  1  0  0  0  0
 20 21  1  0  0  0  0
 22 23  2  0  0  0  0
 22 24  1  0  0  0  0
 24 25  1  0  0  0  0
 24 26  1  0  0  0  0
 26 27  1  0  0  0  0
 26 28  1  0  0  0  0
 26 29  1  0  0  0  0
M  END
$$$$

  -OEChem-01062216083D

 29 29  0     1  0  0  0  0  0999 V2000
   -3.3871   -2.5992    0.9326 H   0  0  0  0  0  0  0  0  0  0  0  0
   -3.2815   -1.6505    0.3988 C   0  0  0  0  0  0  0  0  0  0  0  0
   -3.9718   -0.9237    0.8339 H   0  0  0  0  0  0  0  0  0  0  0  0
   -3.5413   -1.8072   -0.6510 H   0  0  0  0  0  0  0  0  0  0  0  0
   -1.8559   -1.1438    0.5100 C   0  0  0  0  0  0  0  0  0  0  0  0
   -1.0218   -1.8052    1.1075 O   0  0  0  0  0  0  0  0  0  0  0  0
   -1.5028    0.0382   -0.1092 N   0  0  0  0  0  0  0  0  0  0  0  0
   -2.2374    0.5039   -0.6336 H   0  0  0  0  0  0  0  0  0  0  0  0
   -0.1903    0.7172   -0.0388 C   0  0  1  0  0  0  0  0  0  0  0  0
    0.5698    0.0185   -0.4021 H   0  0  0  0  0  0  0  0  0  0  0  0
   -0.2358    1.9178   -1.0075 C   0  0  0  0  0  0  0  0  0  0  0  0
   -1.0546    2.5878   -0.7242 H   0  0  0  0  0  0  0  0  0  0  0  0
    0.6941    2.4931   -0.9434 H   0  0  0  0  0  0  0  0  0  0  0  0
   -0.4028    1.4554   -2.4330 C   0  0  0  0  0  0  0  0  0  0  0  0
    0.5510    0.8816   -3.2442 N   0  0  0  0  0  0  0  0  0  0  0  0
    1.5148    0.6741   -2.9899 H   0  0  0  0  0  0  0  0  0  0  0  0
   -0.0170    0.6412   -4.4813 C   0  0  0  0  0  0  0  0  0  0  0  0
    0.4939    0.1868   -5.3256 H   0  0  0  0  0  0  0  0  0  0  0  0
   -1.2664    1.0412   -4.4890 N   0  0  0  0  0  0  0  0  0  0  0  0
   -1.5143    1.5657   -3.2259 C   0  0  0  0  0  0  0  0  0  0  0  0
   -2.4593    1.9993   -2.9122 H   0  0  0  0  0  0  0  0  0  0  0  0
    0.2792    1.1482    1.3823 C   0  0  0  0  0  0  0  0  0  0  0  0
    0.7416    2.2674    1.5715 O   0  0  0  0  0  0  0  0  0  0  0  0
    0.1792    0.3072    2.4733 N   0  0  0  0  0  0  0  0  0  0  0  0
   -0.1501   -0.6430    2.2845 H   0  0  0  0  0  0  0  0  0  0  0  0
    0.6342    0.6463    3.8155 C   0  0  0  0  0  0  0  0  0  0  0  0
    0.0955    1.5219    4.1925 H   0  0  0  0  0  0  0  0  0  0  0  0
    0.4538   -0.1903    4.4974 H   0  0  0  0  0  0  0  0  0  0  0  0
    1.7071    0.8652    3.8126 H   0  0  0  0  0  0  0  0  0  0  0  0
  1  2  1  0  0  0  0
  2  3  1  0  0  0  0
  2  4  1  0  0  0  0
  2  5  1  0  0  0  0
  5  6  2  0  0  0  0
  5  7  1  0  0  0  0
  7  8  1  0  0  0  0
  7  9  1  0  0  0  0
  9 10  1  0  0  0  0
  9 11  1  0  0  0  0
  9 22  1  0  0  0  0
 11 12  1  0  0  0  0
 11 13  1  0  0  0  0
 11 14  1  0  0  0  0
 14 15  1  0  0  0  0
 14 20  2  0  0  0  0
 15 16  1  0  0  0  0
 15 17  1  0  0  0  0
 17 18  1  0  0  0  0
 17 19  2  0  0  0  0
 19 20  1  0  0  0  0
 20 21  1  0  0  0  0
 22 23  2  0  0  0  0
 22 24  1  0  0  0  0
 24 25  1  0  0  0  0
 24 26  1  0  0  0  0
 26 27  1  0  0  0  0
 26 28  1  0  0  0  0
 26 29  1  0  0  0  0
M  END
$$$$

  -OEChem-01062216083D

 29 29  0     1  0  0  0  0  0999 V2000
   -3.3241   -2.5700    1.0523 H   0  0  0  0  0  0  0  0  0  0  0  0
   -3.2308   -1.6380    0.4878 C   0  0  0  0  0  0  0  0  0  0  0  0
   -3.8974   -0.8924    0.9277 H   0  0  0  0  0  0  0  0  0  0  0  0
   -3.5313   -1.8213   -0.5467 H   0  0  0  0  0  0  0  0  0  0  0  0
   -1.7979   -1.1426    0.5307 C   0  0  0  0  0  0  0  0  0  0  0  0
   -0.9406   -1.8128    1.0847 O   0  0  0  0  0  0  0  0  0  0  0  0
   -1.4626    0.0348   -0.1069 N   0  0  0  0  0  0  0  0  0  0  0  0
   -2.2191    0.5220   -0.5779 H   0  0  0  0  0  0  0  0  0  0  0  0
   -0.1463    0.7056   -0.0647 C   0  0  1  0  0  0  0  0  0  0  0  0
    0.6059    0.0039   -0.4389 H   0  0  0  0  0  0  0  0  0  0  0  0
   -0.1922    1.9106   -1.0264 C   0  0  0  0  0  0  0  0  0  0  0  0
   -0.9992    2.5884   -0.7281 H   0  0  0  0  0  0  0  0  0  0  0  0
    0.7454    2.4739   -0.9671 H   0  0  0  0  0  0  0  0  0  0  0  0
   -0.3886    1.4605   -2.4519 C   0  0  0  0  0  0  0  0  0  0  0  0
    0.5402    0.8795   -3.2870 N   0  0  0  0  0  0  0  0  0  0  0  0
    1.5042    0.6507   -3.0531 H   0  0  0  0  0  0  0  0  0  0  0  0
   -0.0551    0.6617   -4.5155 C   0  0  0  0  0  0  0  0  0  0  0  0
    0.4314    0.2070   -5.3739 H   0  0  0  0  0  0  0  0  0  0  0  0
   -1.2971    1.0833   -4.4960 N   0  0  0  0  0  0  0  0  0  0  0  0
   -1.5122    1.5982   -3.2230 C   0  0  0  0  0  0  0  0  0  0  0  0
   -2.4429    2.0460   -2.8883 H   0  0  0  0  0  0  0  0  0  0  0  0
    0.3286    1.1302    1.3539 C   0  0  0  0  0  0  0  0  0  0  0  0
    0.5500    2.3075    1.6135 O   0  0  0  0  0  0  0  0  0  0  0  0
    0.5106    0.1998    2.3580 N   0  0  0  0  0  0  0  0  0  0  0  0
    0.2174   -0.7572    2.1426 H   0  0  0  0  0  0  0  0  0  0  0  0
    0.8668    0.5368    3.7299 C   0  0  0  0  0  0  0  0  0  0  0  0
    0.1050    1.1850    4.1751 H   0  0  0  0  0  0  0  0  0  0  0  0
    0.9434   -0.3730    4.3329 H   0  0  0  0  0  0  0  0  0  0  0  0
    1.8318    1.0533    3.7596 H   0  0  0  0  0  0  0  0  0  0  0  0
  1  2  1  0  0  0  0
  2  3  1  0  0  0  0
  2  4  1  0  0  0  0
  2  5  1  0  0  0  0
  5  6  2  0  0  0  0
  5  7  1  0  0  0  0
  7  8  1  0  0  0  0
  7  9  1  0  0  0  0
  9 10  1  0  0  0  0
  9 11  1  0  0  0  0
  9 22  1  0  0  0  0
 11 12  1  0  0  0  0
 11 13  1  0  0  0  0
 11 14  1  0  0  0  0
 14 15  1  0  0  0  0
 14 20  2  0  0  0  0
 15 16  1  0  0  0  0
 15 17  1  0  0  0  0
 17 18  1  0  0  0  0
 17 19  2  0  0  0  0
 19 20  1  0  0  0  0
 20 21  1  0  0  0  0
 22 23  2  0  0  0  0
 22 24  1  0  0  0  0
 24 25  1  0  0  0  0
 24 26  1  0  0  0  0
 26 27  1  0  0  0  0
 26 28  1  0  0  0  0
 26 29  1  0  0  0  0
M  END
$$$$

  -OEChem-01062216083D

 29 29  0     1  0  0  0  0  0999 V2000
   -3.2570   -2.5638    1.1132 H   0  0  0  0  0  0  0  0  0  0  0  0
   -3.1844   -1.6374    0.5366 C   0  0  0  0  0  0  0  0  0  0  0  0
   -3.8563   -0.8962    0.9758 H   0  0  0  0  0  0  0  0  0  0  0  0
   -3.4949   -1.8376   -0.4918 H   0  0  0  0  0  0  0  0  0  0  0  0
   -1.7585   -1.1210    0.5552 C   0  0  0  0  0  0  0  0  0  0  0  0
   -0.8823   -1.7680    1.1089 O   0  0  0  0  0  0  0  0  0  0  0  0
   -1.4447    0.0491   -0.1061 N   0  0  0  0  0  0  0  0  0  0  0  0
   -2.2103    0.5344   -0.5643 H   0  0  0  0  0  0  0  0  0  0  0  0
   -0.1275    0.7133   -0.0803 C   0  0  1  0  0  0  0  0  0  0  0  0
    0.6229    0.0101   -0.4560 H   0  0  0  0  0  0  0  0  0  0  0  0
   -0.1710    1.9192   -1.0389 C   0  0  0  0  0  0  0  0  0  0  0  0
   -0.9731    2.6010   -0.7359 H   0  0  0  0  0  0  0  0  0  0  0  0
    0.7699    2.4768   -0.9806 H   0  0  0  0  0  0  0  0  0  0  0  0
   -0.3830    1.4696   -2.4623 C   0  0  0  0  0  0  0  0  0  0  0  0
    0.5346    0.8804   -3.3038 N   0  0  0  0  0  0  0  0  0  0  0  0
    1.4989    0.6450   -3.0779 H   0  0  0  0  0  0  0  0  0  0  0  0
   -0.0737    0.6612   -4.5258 C   0  0  0  0  0  0  0  0  0  0  0  0
    0.4020    0.2002   -5.3870 H   0  0  0  0  0  0  0  0  0  0  0  0
   -1.3129    1.0900   -4.4964 N   0  0  0  0  0  0  0  0  0  0  0  0
   -1.5133    1.6105   -3.2233 C   0  0  0  0  0  0  0  0  0  0  0  0
   -2.4391    2.0631   -2.8811 H   0  0  0  0  0  0  0  0  0  0  0  0
    0.3360    1.1398    1.3376 C   0  0  0  0  0  0  0  0  0  0  0  0
    0.3482    2.3207    1.6666 O   0  0  0  0  0  0  0  0  0  0  0  0
    0.7957    0.1952    2.2343 N   0  0  0  0  0  0  0  0  0  0  0  0
    0.5565   -0.7729    2.0021 H   0  0  0  0  0  0  0  0  0  0  0  0
    1.1539    0.5077    3.6118 C   0  0  0  0  0  0  0  0  0  0  0  0
    0.2917    0.9164    4.1487 H   0  0  0  0  0  0  0  0  0  0  0  0
    1.4879   -0.3974    4.1282 H   0  0  0  0  0  0  0  0  0  0  0  0
    1.9675    1.2399    3.6402 H   0  0  0  0  0  0  0  0  0  0  0  0
  1  2  1  0  0  0  0
  2  3  1  0  0  0  0
  2  4  1  0  0  0  0
  2  5  1  0  0  0  0
  5  6  2  0  0  0  0
  5  7  1  0  0  0  0
  7  8  1  0  0  0  0
  7  9  1  0  0  0  0
  9 10  1  0  0  0  0
  9 11  1  0  0  0  0
  9 22  1  0  0  0  0
 11 12  1  0  0  0  0
 11 13  1  0  0  0  0
 11 14  1  0  0  0  0
 14 15  1  0  0  0  0
 14 20  2  0  0  0  0
 15 16  1  0  0  0  0
 15 17  1  0  0  0  0
 17 18  1  0  0  0  0
 17 19  2  0  0  0  0
 19 20  1  0  0  0  0
 20 21  1  0  0  0  0
 22 23  2  0  0  0  0
 22 24  1  0  0  0  0
 24 25  1  0  0  0  0
 24 26  1  0  0  0  0
 26 27  1  0  0  0  0
 26 28  1  0  0  0  0
 26 29  1  0  0  0  0
M  END
$$$$

  -OEChem-01062216083D

 29 29  0     1  0  0  0  0  0999 V2000
   -3.1823   -2.5601    1.2110 H   0  0  0  0  0  0  0  0  0  0  0  0
   -3.1422   -1.6385    0.6235 C   0  0  0  0  0  0  0  0  0  0  0  0
   -3.7923   -0.8948    1.0907 H   0  0  0  0  0  0  0  0  0  0  0  0
   -3.5051   -1.8482   -0.3858 H   0  0  0  0  0  0  0  0  0  0  0  0
   -1.7189   -1.1182    0.5644 C   0  0  0  0  0  0  0  0  0  0  0  0
   -0.8139   -1.7425    1.0996 O   0  0  0  0  0  0  0  0  0  0  0  0
   -1.4375    0.0438   -0.1252 N   0  0  0  0  0  0  0  0  0  0  0  0
   -2.2236    0.5485   -0.5238 H   0  0  0  0  0  0  0  0  0  0  0  0
   -0.1222    0.7063   -0.1069 C   0  0  1  0  0  0  0  0  0  0  0  0
    0.6317    0.0039   -0.4775 H   0  0  0  0  0  0  0  0  0  0  0  0
   -0.1545    1.9167   -1.0583 C   0  0  0  0  0  0  0  0  0  0  0  0
   -0.9531    2.6023   -0.7540 H   0  0  0  0  0  0  0  0  0  0  0  0
    0.7901    2.4671   -0.9913 H   0  0  0  0  0  0  0  0  0  0  0  0
   -0.3693    1.4795   -2.4846 C   0  0  0  0  0  0  0  0  0  0  0  0
    0.5434    0.8883   -3.3299 N   0  0  0  0  0  0  0  0  0  0  0  0
    1.5053    0.6427   -3.1045 H   0  0  0  0  0  0  0  0  0  0  0  0
   -0.0658    0.6860   -4.5544 C   0  0  0  0  0  0  0  0  0  0  0  0
    0.4066    0.2295   -5.4196 H   0  0  0  0  0  0  0  0  0  0  0  0
   -1.3009    1.1263   -4.5223 N   0  0  0  0  0  0  0  0  0  0  0  0
   -1.4980    1.6368   -3.2445 C   0  0  0  0  0  0  0  0  0  0  0  0
   -2.4194    2.0956   -2.8985 H   0  0  0  0  0  0  0  0  0  0  0  0
    0.3113    1.1377    1.3152 C   0  0  0  0  0  0  0  0  0  0  0  0
    0.0972    2.2754    1.7186 O   0  0  0  0  0  0  0  0  0  0  0  0
    1.0343    0.2636    2.1035 N   0  0  0  0  0  0  0  0  0  0  0  0
    0.9216   -0.7207    1.8515 H   0  0  0  0  0  0  0  0  0  0  0  0
    1.4161    0.5759    3.4749 C   0  0  0  0  0  0  0  0  0  0  0  0
    0.5267    0.7229    4.0967 H   0  0  0  0  0  0  0  0  0  0  0  0
    2.0053   -0.2437    3.8972 H   0  0  0  0  0  0  0  0  0  0  0  0
    2.0232    1.4867    3.5064 H   0  0  0  0  0  0  0  0  0  0  0  0
  1  2  1  0  0  0  0
  2  3  1  0  0  0  0
  2  4  1  0  0  0  0
  2  5  1  0  0  0  0
  5  6  2  0  0  0  0
  5  7  1  0  0  0  0
  7  8  1  0  0  0  0
  7  9  1  0  0  0  0
  9 10  1  0  0  0  0
  9 11  1  0  0  0  0
  9 22  1  0  0  0  0
 11 12  1  0  0  0  0
 11 13  1  0  0  0  0
 11 14  1  0  0  0  0
 14 15  1  0  0  0  0
 14 20  2  0  0  0  0
 15 16  1  0  0  0  0
 15 17  1  0  0  0  0
 17 18  1  0  0  0  0
 17 19  2  0  0  0  0
 19 20  1  0  0  0  0
 20 21  1  0  0  0  0
 22 23  2  0  0  0  0
 22 24  1  0  0  0  0
 24 25  1  0  0  0  0
 24 26  1  0  0  0  0
 26 27  1  0  0  0  0
 26 28  1  0  0  0  0
 26 29  1  0  0  0  0
M  END
$$$$

  -OEChem-01062216083D

 29 29  0     1  0  0  0  0  0999 V2000
   -3.1354   -2.5455    1.2894 H   0  0  0  0  0  0  0  0  0  0  0  0
   -3.1162   -1.6324    0.6878 C   0  0  0  0  0  0  0  0  0  0  0  0
   -3.7419   -0.8788    1.1720 H   0  0  0  0  0  0  0  0  0  0  0  0
   -3.5229   -1.8536   -0.3020 H   0  0  0  0  0  0  0  0  0  0  0  0
   -1.6939   -1.1210    0.5605 C   0  0  0  0  0  0  0  0  0  0  0  0
   -0.7686   -1.7409    1.0656 O   0  0  0  0  0  0  0  0  0  0  0  0
   -1.4341    0.0347   -0.1477 N   0  0  0  0  0  0  0  0  0  0  0  0
   -2.2349    0.5660   -0.4757 H   0  0  0  0  0  0  0  0  0  0  0  0
   -0.1193    0.6949   -0.1308 C   0  0  1  0  0  0  0  0  0  0  0  0
    0.6354   -0.0072   -0.4994 H   0  0  0  0  0  0  0  0  0  0  0  0
   -0.1439    1.9111   -1.0730 C   0  0  0  0  0  0  0  0  0  0  0  0
   -0.9401    2.5978   -0.7651 H   0  0  0  0  0  0  0  0  0  0  0  0
    0.8029    2.4564   -0.9996 H   0  0  0  0  0  0  0  0  0  0  0  0
   -0.3605    1.4871   -2.5030 C   0  0  0  0  0  0  0  0  0  0  0  0
    0.5489    0.8974   -3.3531 N   0  0  0  0  0  0  0  0  0  0  0  0
    1.5095    0.6450   -3.1307 H   0  0  0  0  0  0  0  0  0  0  0  0
   -0.0612    0.7087   -4.5794 C   0  0  0  0  0  0  0  0  0  0  0  0
    0.4096    0.2577   -5.4485 H   0  0  0  0  0  0  0  0  0  0  0  0
   -1.2941    1.1547   -4.5438 N   0  0  0  0  0  0  0  0  0  0  0  0
   -1.4894    1.6537   -3.2609 C   0  0  0  0  0  0  0  0  0  0  0  0
   -2.4093    2.1116   -2.9102 H   0  0  0  0  0  0  0  0  0  0  0  0
    0.2953    1.1309    1.2931 C   0  0  0  0  0  0  0  0  0  0  0  0
   -0.1485    2.1655    1.7782 O   0  0  0  0  0  0  0  0  0  0  0  0
    1.2562    0.4121    1.9783 N   0  0  0  0  0  0  0  0  0  0  0  0
    1.3643   -0.5538    1.6712 H   0  0  0  0  0  0  0  0  0  0  0  0
    1.6466    0.7376    3.3445 C   0  0  0  0  0  0  0  0  0  0  0  0
    0.7913    0.6400    4.0212 H   0  0  0  0  0  0  0  0  0  0  0  0
    2.4373    0.0608    3.6822 H   0  0  0  0  0  0  0  0  0  0  0  0
    2.0257    1.7634    3.4011 H   0  0  0  0  0  0  0  0  0  0  0  0
  1  2  1  0  0  0  0
  2  3  1  0  0  0  0
  2  4  1  0  0  0  0
  2  5  1  0  0  0  0
  5  6  2  0  0  0  0
  5  7  1  0  0  0  0
  7  8  1  0  0  0  0
  7  9  1  0  0  0  0
  9 10  1  0  0  0  0
  9 11  1  0  0  0  0
  9 22  1  0  0  0  0
 11 12  1  0  0  0  0
 11 13  1  0  0  0  0
 11 14  1  0  0  0  0
 14 15  1  0  0  0  0
 14 20  2  0  0  0  0
 15 16  1  0  0  0  0
 15 17  1  0  0  0  0
 17 18  1  0  0  0  0
 17 19  2  0  0  0  0
 19 20  1  0  0  0  0
 20 21  1  0  0  0  0
 22 23  2  0  0  0  0
 22 24  1  0  0  0  0
 24 25  1  0  0  0  0
 24 26  1  0  0  0  0
 26 27  1  0  0  0  0
 26 28  1  0  0  0  0
 26 29  1  0  0  0  0
M  END
$$$$

  -OEChem-01062216083D

 29 29  0     1  0  0  0  0  0999 V2000
   -3.1132   -2.5290    1.3386 H   0  0  0  0  0  0  0  0  0  0  0  0
   -3.1037   -1.6179    0.7338 C   0  0  0  0  0  0  0  0  0  0  0  0
   -3.6966   -0.8530    1.2410 H   0  0  0  0  0  0  0  0  0  0  0  0
   -3.5532   -1.8347   -0.2382 H   0  0  0  0  0  0  0  0  0  0  0  0
   -1.6799   -1.1297    0.5482 C   0  0  0  0  0  0  0  0  0  0  0  0
   -0.7449   -1.7625    1.0172 O   0  0  0  0  0  0  0  0  0  0  0  0
   -1.4321    0.0220   -0.1700 N   0  0  0  0  0  0  0  0  0  0  0  0
   -2.2413    0.5789   -0.4272 H   0  0  0  0  0  0  0  0  0  0  0  0
   -0.1187    0.6844   -0.1501 C   0  0  1  0  0  0  0  0  0  0  0  0
    0.6381   -0.0169   -0.5156 H   0  0  0  0  0  0  0  0  0  0  0  0
   -0.1404    1.9061   -1.0832 C   0  0  0  0  0  0  0  0  0  0  0  0
   -0.9367    2.5912   -0.7712 H   0  0  0  0  0  0  0  0  0  0  0  0
    0.8068    2.4500   -1.0055 H   0  0  0  0  0  0  0  0  0  0  0  0
   -0.3553    1.4903   -2.5158 C   0  0  0  0  0  0  0  0  0  0  0  0
    0.5542    0.9044   -3.3685 N   0  0  0  0  0  0  0  0  0  0  0  0
    1.5120    0.6431   -3.1455 H   0  0  0  0  0  0  0  0  0  0  0  0
   -0.0562    0.7204   -4.5951 C   0  0  0  0  0  0  0  0  0  0  0  0
    0.4136    0.2699   -5.4649 H   0  0  0  0  0  0  0  0  0  0  0  0
   -1.2879    1.1694   -4.5588 N   0  0  0  0  0  0  0  0  0  0  0  0
   -1.4839    1.6612   -3.2734 C   0  0  0  0  0  0  0  0  0  0  0  0
   -2.4045    2.1165   -2.9209 H   0  0  0  0  0  0  0  0  0  0  0  0
    0.2848    1.1277    1.2732 C   0  0  0  0  0  0  0  0  0  0  0  0
   -0.3595    1.9987    1.8469 O   0  0  0  0  0  0  0  0  0  0  0  0
    1.4366    0.6324    1.8554 N   0  0  0  0  0  0  0  0  0  0  0  0
    1.7897   -0.2359    1.4605 H   0  0  0  0  0  0  0  0  0  0  0  0
    1.8289    0.9717    3.2177 C   0  0  0  0  0  0  0  0  0  0  0  0
    1.0678    0.6364    3.9301 H   0  0  0  0  0  0  0  0  0  0  0  0
    2.7777    0.4882    3.4690 H   0  0  0  0  0  0  0  0  0  0  0  0
    1.9568    2.0543    3.3217 H   0  0  0  0  0  0  0  0  0  0  0  0
  1  2  1  0  0  0  0
  2  3  1  0  0  0  0
  2  4  1  0  0  0  0
  2  5  1  0  0  0  0
  5  6  2  0  0  0  0
  5  7  1  0  0  0  0
  7  8  1  0  0  0  0
  7  9  1  0  0  0  0
  9 10  1  0  0  0  0
  9 11  1  0  0  0  0
  9 22  1  0  0  0  0
 11 12  1  0  0  0  0
 11 13  1  0  0  0  0
 11 14  1  0  0  0  0
 14 15  1  0  0  0  0
 14 20  2  0  0  0  0
 15 16  1  0  0  0  0
 15 17  1  0  0  0  0
 17 18  1  0  0  0  0
 17 19  2  0  0  0  0
 19 20  1  0  0  0  0
 20 21  1  0  0  0  0
 22 23  2  0  0  0  0
 22 24  1  0  0  0  0
 24 25  1  0  0  0  0
 24 26  1  0  0  0  0
 26 27  1  0  0  0  0
 26 28  1  0  0  0  0
 26 29  1  0  0  0  0
M  END
$$$$

  -OEChem-01062216083D

 29 29  0     1  0  0  0  0  0999 V2000
   -3.1085   -2.5194    1.3690 H   0  0  0  0  0  0  0  0  0  0  0  0
   -3.1036   -1.6075    0.7655 C   0  0  0  0  0  0  0  0  0  0  0  0
   -3.6683   -0.8345    1.2921 H   0  0  0  0  0  0  0  0  0  0  0  0
   -3.5867   -1.8155   -0.1923 H   0  0  0  0  0  0  0  0  0  0  0  0
   -1.6790   -1.1408    0.5363 C   0  0  0  0  0  0  0  0  0  0  0  0
   -0.7402   -1.7898    0.9740 O   0  0  0  0  0  0  0  0  0  0  0  0
   -1.4368    0.0084   -0.1884 N   0  0  0  0  0  0  0  0  0  0  0  0
   -2.2485    0.5811   -0.3981 H   0  0  0  0  0  0  0  0  0  0  0  0
   -0.1238    0.6728   -0.1597 C   0  0  1  0  0  0  0  0  0  0  0  0
    0.6354   -0.0287   -0.5195 H   0  0  0  0  0  0  0  0  0  0  0  0
   -0.1422    1.8983   -1.0863 C   0  0  0  0  0  0  0  0  0  0  0  0
   -0.9407    2.5801   -0.7728 H   0  0  0  0  0  0  0  0  0  0  0  0
    0.8040    2.4431   -1.0024 H   0  0  0  0  0  0  0  0  0  0  0  0
   -0.3502    1.4896   -2.5219 C   0  0  0  0  0  0  0  0  0  0  0  0
    0.5621    0.9085   -3.3752 N   0  0  0  0  0  0  0  0  0  0  0  0
    1.5182    0.6423   -3.1502 H   0  0  0  0  0  0  0  0  0  0  0  0
   -0.0448    0.7301   -4.6044 C   0  0  0  0  0  0  0  0  0  0  0  0
    0.4271    0.2832   -5.4748 H   0  0  0  0  0  0  0  0  0  0  0  0
   -1.2761    1.1797   -4.5700 N   0  0  0  0  0  0  0  0  0  0  0  0
   -1.4765    1.6637   -3.2823 C   0  0  0  0  0  0  0  0  0  0  0  0
   -2.3987    2.1164   -2.9304 H   0  0  0  0  0  0  0  0  0  0  0  0
    0.2704    1.1240    1.2635 C   0  0  0  0  0  0  0  0  0  0  0  0
   -0.5090    1.8035    1.9223 O   0  0  0  0  0  0  0  0  0  0  0  0
    1.5472    0.8934    1.7420 N   0  0  0  0  0  0  0  0  0  0  0  0
    2.0928    0.1905    1.2511 H   0  0  0  0  0  0  0  0  0  0  0  0
    1.9570    1.2655    3.0906 C   0  0  0  0  0  0  0  0  0  0  0  0
    1.3476    0.7413    3.8343 H   0  0  0  0  0  0  0  0  0  0  0  0
    3.0065    1.0019    3.2530 H   0  0  0  0  0  0  0  0  0  0  0  0
    1.8462    2.3444    3.2415 H   0  0  0  0  0  0  0  0  0  0  0  0
  1  2  1  0  0  0  0
  2  3  1  0  0  0  0
  2  4  1  0  0  0  0
  2  5  1  0  0  0  0
  5  6  2  0  0  0  0
  5  7  1  0  0  0  0
  7  8  1  0  0  0  0
  7  9  1  0  0  0  0
  9 10  1  0  0  0  0
  9 11  1  0  0  0  0
  9 22  1  0  0  0  0
 11 12  1  0  0  0  0
 11 13  1  0  0  0  0
 11 14  1  0  0  0  0
 14 15  1  0  0  0  0
 14 20  2  0  0  0  0
 15 16  1  0  0  0  0
 15 17  1  0  0  0  0
 17 18  1  0  0  0  0
 17 19  2  0  0  0  0
 19 20  1  0  0  0  0
 20 21  1  0  0  0  0
 22 23  2  0  0  0  0
 22 24  1  0  0  0  0
 24 25  1  0  0  0  0
 24 26  1  0  0  0  0
 26 27  1  0  0  0  0
 26 28  1  0  0  0  0
 26 29  1  0  0  0  0
M  END
$$$$

  -OEChem-01062216083D

 29 29  0     1  0  0  0  0  0999 V2000
   -3.1061   -2.5146    1.3875 H   0  0  0  0  0  0  0  0  0  0  0  0
   -3.1063   -1.5991    0.7894 C   0  0  0  0  0  0  0  0  0  0  0  0
   -3.6431   -0.8211    1.3376 H   0  0  0  0  0  0  0  0  0  0  0  0
   -3.6207   -1.7936   -0.1546 H   0  0  0  0  0  0  0  0  0  0  0  0
   -1.6824   -1.1520    0.5212 C   0  0  0  0  0  0  0  0  0  0  0  0
   -0.7417   -1.8196    0.9259 O   0  0  0  0  0  0  0  0  0  0  0  0
   -1.4446   -0.0022   -0.2045 N   0  0  0  0  0  0  0  0  0  0  0  0
   -2.2570    0.5820   -0.3762 H   0  0  0  0  0  0  0  0  0  0  0  0
   -0.1319    0.6630   -0.1621 C   0  0  1  0  0  0  0  0  0  0  0  0
    0.6307   -0.0381   -0.5160 H   0  0  0  0  0  0  0  0  0  0  0  0
   -0.1486    1.8910   -1.0846 C   0  0  0  0  0  0  0  0  0  0  0  0
   -0.9514    2.5687   -0.7732 H   0  0  0  0  0  0  0  0  0  0  0  0
    0.7948    2.4395   -0.9949 H   0  0  0  0  0  0  0  0  0  0  0  0
   -0.3463    1.4873   -2.5230 C   0  0  0  0  0  0  0  0  0  0  0  0
    0.5720    0.9124   -3.3741 N   0  0  0  0  0  0  0  0  0  0  0  0
    1.5258    0.6427   -3.1439 H   0  0  0  0  0  0  0  0  0  0  0  0
   -0.0278    0.7388   -4.6076 C   0  0  0  0  0  0  0  0  0  0  0  0
    0.4495    0.2971   -5.4779 H   0  0  0  0  0  0  0  0  0  0  0  0
   -1.2600    1.1861   -4.5779 N   0  0  0  0  0  0  0  0  0  0  0  0
   -1.4688    1.6621   -3.2886 C   0  0  0  0  0  0  0  0  0  0  0  0
   -2.3934    2.1111   -2.9388 H   0  0  0  0  0  0  0  0  0  0  0  0
    0.2559    1.1175    1.2626 C   0  0  0  0  0  0  0  0  0  0  0  0
   -0.5970    1.5929    2.0045 O   0  0  0  0  0  0  0  0  0  0  0  0
    1.5861    1.1734    1.6388 N   0  0  0  0  0  0  0  0  0  0  0  0
    2.2483    0.6665    1.0590 H   0  0  0  0  0  0  0  0  0  0  0  0
    2.0103    1.5949    2.9686 C   0  0  0  0  0  0  0  0  0  0  0  0
    1.5897    0.9322    3.7323 H   0  0  0  0  0  0  0  0  0  0  0  0
    3.1013    1.5647    3.0448 H   0  0  0  0  0  0  0  0  0  0  0  0
    1.6796    2.6193    3.1700 H   0  0  0  0  0  0  0  0  0  0  0  0
  1  2  1  0  0  0  0
  2  3  1  0  0  0  0
  2  4  1  0  0  0  0
  2  5  1  0  0  0  0
  5  6  2  0  0  0  0
  5  7  1  0  0  0  0
  7  8  1  0  0  0  0
  7  9  1  0  0  0  0
  9 10  1  0  0  0  0
  9 11  1  0  0  0  0
  9 22  1  0  0  0  0
 11 12  1  0  0  0  0
 11 13  1  0  0  0  0
 11 14  1  0  0  0  0
 14 15  1  0  0  0  0
 14 20  2  0  0  0  0
 15 16  1  0  0  0  0
 15 17  1  0  0  0  0
 17 18  1  0  0  0  0
 17 19  2  0  0  0  0
 19 20  1  0  0  0  0
 20 21  1  0  0  0  0
 22 23  2  0  0  0  0
 22 24  1  0  0  0  0
 24 25  1  0  0  0  0
 24 26  1  0  0  0  0
 26 27  1  0  0  0  0
 26 28  1  0  0  0  0
 26 29  1  0  0  0  0
M  END
$$$$

  -OEChem-01062216083D

 29 29  0     1  0  0  0  0  0999 V2000
   -3.1101   -2.5156    1.3869 H   0  0  0  0  0  0  0  0  0  0  0  0
   -3.1110   -1.5916    0.8018 C   0  0  0  0  0  0  0  0  0  0  0  0
   -3.6224   -0.8138    1.3742 H   0  0  0  0  0  0  0  0  0  0  0  0
   -3.6509   -1.7649   -0.1321 H   0  0  0  0  0  0  0  0  0  0  0  0
   -1.6875   -1.1604    0.5060 C   0  0  0  0  0  0  0  0  0  0  0  0
   -0.7474   -1.8488    0.8758 O   0  0  0  0  0  0  0  0  0  0  0  0
   -1.4504   -0.0067   -0.2151 N   0  0  0  0  0  0  0  0  0  0  0  0
   -2.2626    0.5846   -0.3599 H   0  0  0  0  0  0  0  0  0  0  0  0
   -0.1370    0.6588   -0.1585 C   0  0  1  0  0  0  0  0  0  0  0  0
    0.6297   -0.0399   -0.5090 H   0  0  0  0  0  0  0  0  0  0  0  0
   -0.1558    1.8877   -1.0821 C   0  0  0  0  0  0  0  0  0  0  0  0
   -0.9641    2.5601   -0.7743 H   0  0  0  0  0  0  0  0  0  0  0  0
    0.7830    2.4435   -0.9908 H   0  0  0  0  0  0  0  0  0  0  0  0
   -0.3437    1.4841   -2.5218 C   0  0  0  0  0  0  0  0  0  0  0  0
    0.5806    0.9149   -3.3706 N   0  0  0  0  0  0  0  0  0  0  0  0
    1.5335    0.6457   -3.1369 H   0  0  0  0  0  0  0  0  0  0  0  0
   -0.0140    0.7408   -4.6066 C   0  0  0  0  0  0  0  0  0  0  0  0
    0.4688    0.3034   -5.4758 H   0  0  0  0  0  0  0  0  0  0  0  0
   -1.2483    1.1824   -4.5806 N   0  0  0  0  0  0  0  0  0  0  0  0
   -1.4648    1.6537   -3.2908 C   0  0  0  0  0  0  0  0  0  0  0  0
   -2.3934    2.0965   -2.9433 H   0  0  0  0  0  0  0  0  0  0  0  0
    0.2491    1.1119    1.2697 C   0  0  0  0  0  0  0  0  0  0  0  0
   -0.6231    1.3739    2.0913 O   0  0  0  0  0  0  0  0  0  0  0  0
    1.5575    1.4618    1.5552 N   0  0  0  0  0  0  0  0  0  0  0  0
    2.2697    1.1698    0.8929 H   0  0  0  0  0  0  0  0  0  0  0  0
    1.9802    1.9342    2.8684 C   0  0  0  0  0  0  0  0  0  0  0  0
    1.7706    1.1786    3.6331 H   0  0  0  0  0  0  0  0  0  0  0  0
    3.0550    2.1390    2.8685 H   0  0  0  0  0  0  0  0  0  0  0  0
    1.4536    2.8577    3.1318 H   0  0  0  0  0  0  0  0  0  0  0  0
  1  2  1  0  0  0  0
  2  3  1  0  0  0  0
  2  4  1  0  0  0  0
  2  5  1  0  0  0  0
  5  6  2  0  0  0  0
  5  7  1  0  0  0  0
  7  8  1  0  0  0  0
  7  9  1  0  0  0  0
  9 10  1  0  0  0  0
  9 11  1  0  0  0  0
  9 22  1  0  0  0  0
 11 12  1  0  0  0  0
 11 13  1  0  0  0  0
 11 14  1  0  0  0  0
 14 15  1  0  0  0  0
 14 20  2  0  0  0  0
 15 16  1  0  0  0  0
 15 17  1  0  0  0  0
 17 18  1  0  0  0  0
 17 19  2  0  0  0  0
 19 20  1  0  0  0  0
 20 21  1  0  0  0  0
 22 23  2  0  0  0  0
 22 24  1  0  0  0  0
 24 25  1  0  0  0  0
 24 26  1  0  0  0  0
 26 27  1  0  0  0  0
 26 28  1  0  0  0  0
 26 29  1  0  0  0  0
M  END
$$$$

  -OEChem-01062216083D

 29 29  0     1  0  0  0  0  0999 V2000
   -3.1482   -2.5517    1.2989 H   0  0  0  0  0  0  0  0  0  0  0  0
   -3.1317   -1.5966    0.7671 C   0  0  0  0  0  0  0  0  0  0  0  0
   -3.5827   -0.8324    1.4046 H   0  0  0  0  0  0  0  0  0  0  0  0
   -3.7164   -1.6921   -0.1507 H   0  0  0  0  0  0  0  0  0  0  0  0
   -1.7034   -1.2116    0.4343 C   0  0  0  0  0  0  0  0  0  0  0  0
   -0.7881   -1.9892    0.6604 O   0  0  0  0  0  0  0  0  0  0  0  0
   -1.4432   -0.0345   -0.2410 N   0  0  0  0  0  0  0  0  0  0  0  0
   -2.2522    0.5632   -0.3716 H   0  0  0  0  0  0  0  0  0  0  0  0
   -0.1339    0.6411   -0.1444 C   0  0  1  0  0  0  0  0  0  0  0  0
    0.5889    0.0736   -0.7384 H   0  0  0  0  0  0  0  0  0  0  0  0
   -0.2881    2.0529   -0.7407 C   0  0  0  0  0  0  0  0  0  0  0  0
   -1.0730    2.5912   -0.1977 H   0  0  0  0  0  0  0  0  0  0  0  0
    0.6382    2.6233   -0.6222 H   0  0  0  0  0  0  0  0  0  0  0  0
   -0.6238    1.9929   -2.2091 C   0  0  0  0  0  0  0  0  0  0  0  0
    0.2147    1.6900   -3.2601 N   0  0  0  0  0  0  0  0  0  0  0  0
    1.1919    1.4138   -3.1964 H   0  0  0  0  0  0  0  0  0  0  0  0
   -0.5069    1.7901   -4.4354 C   0  0  0  0  0  0  0  0  0  0  0  0
   -0.1132    1.5963   -5.4292 H   0  0  0  0  0  0  0  0  0  0  0  0
   -1.7397    2.1550   -4.1782 N   0  0  0  0  0  0  0  0  0  0  0  0
   -1.8242    2.2928   -2.7979 C   0  0  0  0  0  0  0  0  0  0  0  0
   -2.7179    2.5986   -2.2621 H   0  0  0  0  0  0  0  0  0  0  0  0
    0.4476    0.7595    1.2925 C   0  0  0  0  0  0  0  0  0  0  0  0
   -0.2792    0.6439    2.2735 O   0  0  0  0  0  0  0  0  0  0  0  0
    1.6754    1.3722    1.4871 N   0  0  0  0  0  0  0  0  0  0  0  0
    2.2836    1.4616    0.6796 H   0  0  0  0  0  0  0  0  0  0  0  0
    2.2294    1.6483    2.8085 C   0  0  0  0  0  0  0  0  0  0  0  0
    2.3212    0.7225    3.3865 H   0  0  0  0  0  0  0  0  0  0  0  0
    3.2225    2.0981    2.7158 H   0  0  0  0  0  0  0  0  0  0  0  0
    1.5861    2.3442    3.3576 H   0  0  0  0  0  0  0  0  0  0  0  0
  1  2  1  0  0  0  0
  2  3  1  0  0  0  0
  2  4  1  0  0  0  0
  2  5  1  0  0  0  0
  5  6  2  0  0  0  0
  5  7  1  0  0  0  0
  7  8  1  0  0  0  0
  7  9  1  0  0  0  0
  9 10  1  0  0  0  0
  9 11  1  0  0  0  0
  9 22  1  0  0  0  0
 11 12  1  0  0  0  0
 11 13  1  0  0  0  0
 11 14  1  0  0  0  0
 14 15  1  0  0  0  0
 14 20  2  0  0  0  0
 15 16  1  0  0  0  0
 15 17  1  0  0  0  0
 17 18  1  0  0  0  0
 17 19  2  0  0  0  0
 19 20  1  0  0  0  0
 20 21  1  0  0  0  0
 22 23  2  0  0  0  0
 22 24  1  0  0  0  0
 24 25  1  0  0  0  0
 24 26  1  0  0  0  0
 26 27  1  0  0  0  0
 26 28  1  0  0  0  0
 26 29  1  0  0  0  0
M  END
$$$$

  -OEChem-01062216083D

 29 29  0     1  0  0  0  0  0999 V2000
   -3.1424   -2.5453    1.2946 H   0  0  0  0  0  0  0  0  0  0  0  0
   -3.1272   -1.5821    0.7769 C   0  0  0  0  0  0  0  0  0  0  0  0
   -3.5494   -0.8220    1.4387 H   0  0  0  0  0  0  0  0  0  0  0  0
   -3.7389   -1.6553   -0.1255 H   0  0  0  0  0  0  0  0  0  0  0  0
   -1.7028   -1.2118    0.4108 C   0  0  0  0  0  0  0  0  0  0  0  0
   -0.7995   -2.0208    0.5608 O   0  0  0  0  0  0  0  0  0  0  0  0
   -1.4421   -0.0207   -0.2396 N   0  0  0  0  0  0  0  0  0  0  0  0
   -2.2524    0.5806   -0.3415 H   0  0  0  0  0  0  0  0  0  0  0  0
   -0.1343    0.6603   -0.1341 C   0  0  1  0  0  0  0  0  0  0  0  0
    0.5891    0.0982   -0.7331 H   0  0  0  0  0  0  0  0  0  0  0  0
   -0.3068    2.0663   -0.7460 C   0  0  0  0  0  0  0  0  0  0  0  0
   -1.1008    2.5989   -0.2112 H   0  0  0  0  0  0  0  0  0  0  0  0
    0.6088    2.6544   -0.6384 H   0  0  0  0  0  0  0  0  0  0  0  0
   -0.6342    1.9870   -2.2155 C   0  0  0  0  0  0  0  0  0  0  0  0
    0.2150    1.6860   -3.2588 N   0  0  0  0  0  0  0  0  0  0  0  0
    1.1932    1.4150   -3.1866 H   0  0  0  0  0  0  0  0  0  0  0  0
   -0.5004    1.7669   -4.4393 C   0  0  0  0  0  0  0  0  0  0  0  0
   -0.0985    1.5671   -5.4287 H   0  0  0  0  0  0  0  0  0  0  0  0
   -1.7384    2.1218   -4.1932 N   0  0  0  0  0  0  0  0  0  0  0  0
   -1.8338    2.2693   -2.8148 C   0  0  0  0  0  0  0  0  0  0  0  0
   -2.7344    2.5706   -2.2883 H   0  0  0  0  0  0  0  0  0  0  0  0
    0.4702    0.7676    1.3005 C   0  0  0  0  0  0  0  0  0  0  0  0
   -0.1537    0.3946    2.2870 O   0  0  0  0  0  0  0  0  0  0  0  0
    1.5218    1.6386    1.5448 N   0  0  0  0  0  0  0  0  0  0  0  0
    2.0460    1.9735    0.7430 H   0  0  0  0  0  0  0  0  0  0  0  0
    2.0398    1.9213    2.8798 C   0  0  0  0  0  0  0  0  0  0  0  0
    2.3632    0.9965    3.3693 H   0  0  0  0  0  0  0  0  0  0  0  0
    2.8978    2.5975    2.8176 H   0  0  0  0  0  0  0  0  0  0  0  0
    1.2705    2.3964    3.4977 H   0  0  0  0  0  0  0  0  0  0  0  0
  1  2  1  0  0  0  0
  2  3  1  0  0  0  0
  2  4  1  0  0  0  0
  2  5  1  0  0  0  0
  5  6  2  0  0  0  0
  5  7  1  0  0  0  0
  7  8  1  0  0  0  0
  7  9  1  0  0  0  0
  9 10  1  0  0  0  0
  9 11  1  0  0  0  0
  9 22  1  0  0  0  0
 11 12  1  0  0  0  0
 11 13  1  0  0  0  0
 11 14  1  0  0  0  0
 14 15  1  0  0  0  0
 14 20  2  0  0  0  0
 15 16  1  0  0  0  0
 15 17  1  0  0  0  0
 17 18  1  0  0  0  0
 17 19  2  0  0  0  0
 19 20  1  0  0  0  0
 20 21  1  0  0  0  0
 22 23  2  0  0  0  0
 22 24  1  0  0  0  0
 24 25  1  0  0  0  0
 24 26  1  0  0  0  0
 26 27  1  0  0  0  0
 26 28  1  0  0  0  0
 26 29  1  0  0  0  0
M  END
$$$$

  -OEChem-01062216083D

 29 29  0     1  0  0  0  0  0999 V2000
   -3.1361   -2.5568    1.2628 H   0  0  0  0  0  0  0  0  0  0  0  0
   -3.1181   -1.5638    0.8055 C   0  0  0  0  0  0  0  0  0  0  0  0
   -3.4866   -0.8367    1.5329 H   0  0  0  0  0  0  0  0  0  0  0  0
   -3.7738   -1.5646   -0.0680 H   0  0  0  0  0  0  0  0  0  0  0  0
   -1.7024   -1.2085    0.3931 C   0  0  0  0  0  0  0  0  0  0  0  0
   -0.8177   -2.0479    0.4549 O   0  0  0  0  0  0  0  0  0  0  0  0
   -1.4450   -0.0049   -0.2351 N   0  0  0  0  0  0  0  0  0  0  0  0
   -2.2595    0.5932   -0.3182 H   0  0  0  0  0  0  0  0  0  0  0  0
   -0.1436    0.6910   -0.1274 C   0  0  1  0  0  0  0  0  0  0  0  0
    0.5817    0.1315   -0.7271 H   0  0  0  0  0  0  0  0  0  0  0  0
   -0.3278    2.0866   -0.7624 C   0  0  0  0  0  0  0  0  0  0  0  0
   -1.1288    2.6216   -0.2404 H   0  0  0  0  0  0  0  0  0  0  0  0
    0.5831    2.6835   -0.6676 H   0  0  0  0  0  0  0  0  0  0  0  0
   -0.6425    1.9806   -2.2324 C   0  0  0  0  0  0  0  0  0  0  0  0
    0.2190    1.6734   -3.2633 N   0  0  0  0  0  0  0  0  0  0  0  0
    1.1971    1.4052   -3.1774 H   0  0  0  0  0  0  0  0  0  0  0  0
   -0.4858    1.7329   -4.4514 C   0  0  0  0  0  0  0  0  0  0  0  0
   -0.0727    1.5227   -5.4338 H   0  0  0  0  0  0  0  0  0  0  0  0
   -1.7286    2.0826   -4.2220 N   0  0  0  0  0  0  0  0  0  0  0  0
   -1.8383    2.2463   -2.8466 C   0  0  0  0  0  0  0  0  0  0  0  0
   -2.7454    2.5497   -2.3324 H   0  0  0  0  0  0  0  0  0  0  0  0
    0.4830    0.7947    1.3030 C   0  0  0  0  0  0  0  0  0  0  0  0
    0.0658    0.1414    2.2497 O   0  0  0  0  0  0  0  0  0  0  0  0
    1.2965    1.8687    1.6377 N   0  0  0  0  0  0  0  0  0  0  0  0
    1.6450    2.4480    0.8815 H   0  0  0  0  0  0  0  0  0  0  0  0
    1.7886    2.1230    2.9885 C   0  0  0  0  0  0  0  0  0  0  0  0
    2.3644    1.2664    3.3551 H   0  0  0  0  0  0  0  0  0  0  0  0
    2.4377    3.0039    2.9950 H   0  0  0  0  0  0  0  0  0  0  0  0
    0.9533    2.3053    3.6730 H   0  0  0  0  0  0  0  0  0  0  0  0
  1  2  1  0  0  0  0
  2  3  1  0  0  0  0
  2  4  1  0  0  0  0
  2  5  1  0  0  0  0
  5  6  2  0  0  0  0
  5  7  1  0  0  0  0
  7  8  1  0  0  0  0
  7  9  1  0  0  0  0
  9 10  1  0  0  0  0
  9 11  1  0  0  0  0
  9 22  1  0  0  0  0
 11 12  1  0  0  0  0
 11 13  1  0  0  0  0
 11 14  1  0  0  0  0
 14 15  1  0  0  0  0
 14 20  2  0  0  0  0
 15 16  1  0  0  0  0
 15 17  1  0  0  0  0
 17 18  1  0  0  0  0
 17 19  2  0  0  0  0
 19 20  1  0  0  0  0
 20 21  1  0  0  0  0
 22 23  2  0  0  0  0
 22 24  1  0  0  0  0
 24 25  1  0  0  0  0
 24 26  1  0  0  0  0
 26 27  1  0  0  0  0
 26 28  1  0  0  0  0
 26 29  1  0  0  0  0
M  END
$$$$

  -OEChem-01062216083D

 29 29  0     1  0  0  0  0  0999 V2000
   -3.1374   -2.5410    1.2679 H   0  0  0  0  0  0  0  0  0  0  0  0
   -3.1155   -1.5421    0.8236 C   0  0  0  0  0  0  0  0  0  0  0  0
   -3.4643   -0.8209    1.5665 H   0  0  0  0  0  0  0  0  0  0  0  0
   -3.7849   -1.5240   -0.0395 H   0  0  0  0  0  0  0  0  0  0  0  0
   -1.7027   -1.1969    0.3931 C   0  0  0  0  0  0  0  0  0  0  0  0
   -0.8368   -2.0557    0.4094 O   0  0  0  0  0  0  0  0  0  0  0  0
   -1.4481    0.0116   -0.2262 N   0  0  0  0  0  0  0  0  0  0  0  0
   -2.2693    0.5984   -0.3205 H   0  0  0  0  0  0  0  0  0  0  0  0
   -0.1584    0.7292   -0.1215 C   0  0  1  0  0  0  0  0  0  0  0  0
    0.5747    0.1715   -0.7133 H   0  0  0  0  0  0  0  0  0  0  0  0
   -0.3467    2.1129   -0.7792 C   0  0  0  0  0  0  0  0  0  0  0  0
   -1.1549    2.6533   -0.2748 H   0  0  0  0  0  0  0  0  0  0  0  0
    0.5646    2.7105   -0.6860 H   0  0  0  0  0  0  0  0  0  0  0  0
   -0.6456    1.9809   -2.2505 C   0  0  0  0  0  0  0  0  0  0  0  0
    0.2295    1.6641   -3.2671 N   0  0  0  0  0  0  0  0  0  0  0  0
    1.2090    1.4057   -3.1659 H   0  0  0  0  0  0  0  0  0  0  0  0
   -0.4641    1.6929   -4.4631 C   0  0  0  0  0  0  0  0  0  0  0  0
   -0.0391    1.4694   -5.4376 H   0  0  0  0  0  0  0  0  0  0  0  0
   -1.7133    2.0316   -4.2521 N   0  0  0  0  0  0  0  0  0  0  0  0
   -1.8387    2.2185   -2.8812 C   0  0  0  0  0  0  0  0  0  0  0  0
   -2.7555    2.5164   -2.3816 H   0  0  0  0  0  0  0  0  0  0  0  0
    0.4682    0.8396    1.3081 C   0  0  0  0  0  0  0  0  0  0  0  0
    0.3845   -0.0510    2.1397 O   0  0  0  0  0  0  0  0  0  0  0  0
    0.9959    2.0396    1.7654 N   0  0  0  0  0  0  0  0  0  0  0  0
    1.0553    2.8119    1.1108 H   0  0  0  0  0  0  0  0  0  0  0  0
    1.5089    2.2348    3.1183 C   0  0  0  0  0  0  0  0  0  0  0  0
    2.3268    1.5358    3.3229 H   0  0  0  0  0  0  0  0  0  0  0  0
    1.8884    3.2543    3.2360 H   0  0  0  0  0  0  0  0  0  0  0  0
    0.7161    2.0742    3.8567 H   0  0  0  0  0  0  0  0  0  0  0  0
  1  2  1  0  0  0  0
  2  3  1  0  0  0  0
  2  4  1  0  0  0  0
  2  5  1  0  0  0  0
  5  6  2  0  0  0  0
  5  7  1  0  0  0  0
  7  8  1  0  0  0  0
  7  9  1  0  0  0  0
  9 10  1  0  0  0  0
  9 11  1  0  0  0  0
  9 22  1  0  0  0  0
 11 12  1  0  0  0  0
 11 13  1  0  0  0  0
 11 14  1  0  0  0  0
 14 15  1  0  0  0  0
 14 20  2  0  0  0  0
 15 16  1  0  0  0  0
 15 17  1  0  0  0  0
 17 18  1  0  0  0  0
 17 19  2  0  0  0  0
 19 20  1  0  0  0  0
 20 21  1  0  0  0  0
 22 23  2  0  0  0  0
 22 24  1  0  0  0  0
 24 25  1  0  0  0  0
 24 26  1  0  0  0  0
 26 27  1  0  0  0  0
 26 28  1  0  0  0  0
 26 29  1  0  0  0  0
M  END
$$$$

  -OEChem-01062216083D

 29 29  0     1  0  0  0  0  0999 V2000
   -3.3819   -2.5615    1.0009 H   0  0  0  0  0  0  0  0  0  0  0  0
   -3.2653   -1.6123    0.4701 C   0  0  0  0  0  0  0  0  0  0  0  0
   -3.9107   -0.8666    0.9399 H   0  0  0  0  0  0  0  0  0  0  0  0
   -3.5724   -1.7506   -0.5693 H   0  0  0  0  0  0  0  0  0  0  0  0
   -1.8192   -1.1566    0.5276 C   0  0  0  0  0  0  0  0  0  0  0  0
   -0.9913   -1.8930    1.0249 O   0  0  0  0  0  0  0  0  0  0  0  0
   -1.4729    0.0330   -0.0849 N   0  0  0  0  0  0  0  0  0  0  0  0
   -2.2268    0.4951   -0.5824 H   0  0  0  0  0  0  0  0  0  0  0  0
   -0.1839    0.7560   -0.0089 C   0  0  1  0  0  0  0  0  0  0  0  0
    0.5439    0.1841   -0.5939 H   0  0  0  0  0  0  0  0  0  0  0  0
   -0.3746    2.1230   -0.6966 C   0  0  0  0  0  0  0  0  0  0  0  0
   -1.1837    2.6735   -0.2049 H   0  0  0  0  0  0  0  0  0  0  0  0
    0.5394    2.7204   -0.6131 H   0  0  0  0  0  0  0  0  0  0  0  0
   -0.6824    1.9537   -2.1616 C   0  0  0  0  0  0  0  0  0  0  0  0
    0.1932    1.6097   -3.1683 N   0  0  0  0  0  0  0  0  0  0  0  0
    1.1752    1.3619   -3.0594 H   0  0  0  0  0  0  0  0  0  0  0  0
   -0.4972    1.6139   -4.3661 C   0  0  0  0  0  0  0  0  0  0  0  0
   -0.0706    1.3680   -5.3345 H   0  0  0  0  0  0  0  0  0  0  0  0
   -1.7466    1.9591   -4.1638 N   0  0  0  0  0  0  0  0  0  0  0  0
   -1.8724    2.1867   -2.7995 C   0  0  0  0  0  0  0  0  0  0  0  0
   -2.7869    2.5081   -2.3098 H   0  0  0  0  0  0  0  0  0  0  0  0
    0.4639    0.9081    1.4009 C   0  0  0  0  0  0  0  0  0  0  0  0
    1.0141   -0.0300    1.9546 O   0  0  0  0  0  0  0  0  0  0  0  0
    0.7066    2.1625    1.9445 N   0  0  0  0  0  0  0  0  0  0  0  0
    0.2830    2.9636    1.4893 H   0  0  0  0  0  0  0  0  0  0  0  0
    1.4355    2.3742    3.1912 C   0  0  0  0  0  0  0  0  0  0  0  0
    2.4601    1.9971    3.1049 H   0  0  0  0  0  0  0  0  0  0  0  0
    1.4795    3.4417    3.4269 H   0  0  0  0  0  0  0  0  0  0  0  0
    0.9381    1.8570    4.0186 H   0  0  0  0  0  0  0  0  0  0  0  0
  1  2  1  0  0  0  0
  2  3  1  0  0  0  0
  2  4  1  0  0  0  0
  2  5  1  0  0  0  0
  5  6  2  0  0  0  0
  5  7  1  0  0  0  0
  7  8  1  0  0  0  0
  7  9  1  0  0  0  0
  9 10  1  0  0  0  0
  9 11  1  0  0  0  0
  9 22  1  0  0  0  0
 11 12  1  0  0  0  0
 11 13  1  0  0  0  0
 11 14  1  0  0  0  0
 14 15  1  0  0  0  0
 14 20  2  0  0  0  0
 15 16  1  0  0  0  0
 15 17  1  0  0  0  0
 17 18  1  0  0  0  0
 17 19  2  0  0  0  0
 19 20  1  0  0  0  0
 20 21  1  0  0  0  0
 22 23  2  0  0  0  0
 22 24  1  0  0  0  0
 24 25  1  0  0  0  0
 24 26  1  0  0  0  0
 26 27  1  0  0  0  0
 26 28  1  0  0  0  0
 26 29  1  0  0  0  0
M  END
$$$$

  -OEChem-01062216083D

 29 29  0     1  0  0  0  0  0999 V2000
   -3.3693   -2.6335    0.8329 H   0  0  0  0  0  0  0  0  0  0  0  0
   -3.2480   -1.6923    0.2889 C   0  0  0  0  0  0  0  0  0  0  0  0
   -4.0623   -1.0185    0.5654 H   0  0  0  0  0  0  0  0  0  0  0  0
   -3.3003   -1.8982   -0.7830 H   0  0  0  0  0  0  0  0  0  0  0  0
   -1.9125   -1.0591    0.6325 C   0  0  0  0  0  0  0  0  0  0  0  0
   -1.2100   -1.5844    1.4729 O   0  0  0  0  0  0  0  0  0  0  0  0
   -1.5395    0.1016   -0.0183 N   0  0  0  0  0  0  0  0  0  0  0  0
   -2.1540    0.3773   -0.7785 H   0  0  0  0  0  0  0  0  0  0  0  0
   -0.2211    0.7696    0.0288 C   0  0  1  0  0  0  0  0  0  0  0  0
    0.4746    0.1600   -0.5578 H   0  0  0  0  0  0  0  0  0  0  0  0
   -0.3571    2.1364   -0.6676 C   0  0  0  0  0  0  0  0  0  0  0  0
   -1.1362    2.7278   -0.1750 H   0  0  0  0  0  0  0  0  0  0  0  0
    0.5844    2.6913   -0.5917 H   0  0  0  0  0  0  0  0  0  0  0  0
   -0.6935    1.9616   -2.1259 C   0  0  0  0  0  0  0  0  0  0  0  0
    0.1514    1.5645   -3.1390 N   0  0  0  0  0  0  0  0  0  0  0  0
    1.1302    1.2987   -3.0426 H   0  0  0  0  0  0  0  0  0  0  0  0
   -0.5579    1.5725   -4.3257 C   0  0  0  0  0  0  0  0  0  0  0  0
   -0.1565    1.2938   -5.2960 H   0  0  0  0  0  0  0  0  0  0  0  0
   -1.7909    1.9651   -4.1092 N   0  0  0  0  0  0  0  0  0  0  0  0
   -1.8840    2.2291   -2.7487 C   0  0  0  0  0  0  0  0  0  0  0  0
   -2.7775    2.5933   -2.2504 H   0  0  0  0  0  0  0  0  0  0  0  0
    0.4435    0.9182    1.4257 C   0  0  0  0  0  0  0  0  0  0  0  0
    1.2705    0.0917    1.7853 O   0  0  0  0  0  0  0  0  0  0  0  0
    0.4647    2.1417    2.0803 N   0  0  0  0  0  0  0  0  0  0  0  0
   -0.2290    2.8267    1.8003 H   0  0  0  0  0  0  0  0  0  0  0  0
    1.2072    2.3717    3.3154 C   0  0  0  0  0  0  0  0  0  0  0  0
    2.2817    2.2410    3.1479 H   0  0  0  0  0  0  0  0  0  0  0  0
    1.0368    3.3906    3.6756 H   0  0  0  0  0  0  0  0  0  0  0  0
    0.8847    1.6706    4.0925 H   0  0  0  0  0  0  0  0  0  0  0  0
  1  2  1  0  0  0  0
  2  3  1  0  0  0  0
  2  4  1  0  0  0  0
  2  5  1  0  0  0  0
  5  6  2  0  0  0  0
  5  7  1  0  0  0  0
  7  8  1  0  0  0  0
  7  9  1  0  0  0  0
  9 10  1  0  0  0  0
  9 11  1  0  0  0  0
  9 22  1  0  0  0  0
 11 12  1  0  0  0  0
 11 13  1  0  0  0  0
 11 14  1  0  0  0  0
 14 15  1  0  0  0  0
 14 20  2  0  0  0  0
 15 16  1  0  0  0  0
 15 17  1  0  0  0  0
 17 18  1  0  0  0  0
 17 19  2  0  0  0  0
 19 20  1  0  0  0  0
 20 21  1  0  0  0  0
 22 23  2  0  0  0  0
 22 24  1  0  0  0  0
 24 25  1  0  0  0  0
 24 26  1  0  0  0  0
 26 27  1  0  0  0  0
 26 28  1  0  0  0  0
 26 29  1  0  0  0  0
M  END
$$$$

  -OEChem-01062216083D

 29 29  0     1  0  0  0  0  0999 V2000
   -3.3364   -2.6611    0.8391 H   0  0  0  0  0  0  0  0  0  0  0  0
   -3.2386   -1.7148    0.2993 C   0  0  0  0  0  0  0  0  0  0  0  0
   -4.0657   -1.0600    0.5835 H   0  0  0  0  0  0  0  0  0  0  0  0
   -3.2930   -1.9163   -0.7732 H   0  0  0  0  0  0  0  0  0  0  0  0
   -1.9149   -1.0552    0.6380 C   0  0  0  0  0  0  0  0  0  0  0  0
   -1.2069   -1.5491    1.4940 O   0  0  0  0  0  0  0  0  0  0  0  0
   -1.5517    0.0998   -0.0280 N   0  0  0  0  0  0  0  0  0  0  0  0
   -2.1567    0.3557   -0.8031 H   0  0  0  0  0  0  0  0  0  0  0  0
   -0.2278    0.7546    0.0141 C   0  0  1  0  0  0  0  0  0  0  0  0
    0.4604    0.1378   -0.5740 H   0  0  0  0  0  0  0  0  0  0  0  0
   -0.3395    2.1291   -0.6683 C   0  0  0  0  0  0  0  0  0  0  0  0
   -1.1073    2.7302   -0.1706 H   0  0  0  0  0  0  0  0  0  0  0  0
    0.6118    2.6660   -0.5832 H   0  0  0  0  0  0  0  0  0  0  0  0
   -0.6822    1.9723   -2.1266 C   0  0  0  0  0  0  0  0  0  0  0  0
    0.1543    1.5678   -3.1434 N   0  0  0  0  0  0  0  0  0  0  0  0
    1.1295    1.2878   -3.0499 H   0  0  0  0  0  0  0  0  0  0  0  0
   -0.5568    1.5949   -4.3286 C   0  0  0  0  0  0  0  0  0  0  0  0
   -0.1615    1.3159   -5.3013 H   0  0  0  0  0  0  0  0  0  0  0  0
   -1.7834    2.0049   -4.1071 N   0  0  0  0  0  0  0  0  0  0  0  0
   -1.8697    2.2622   -2.7448 C   0  0  0  0  0  0  0  0  0  0  0  0
   -2.7567    2.6361   -2.2418 H   0  0  0  0  0  0  0  0  0  0  0  0
    0.4302    0.8990    1.4106 C   0  0  0  0  0  0  0  0  0  0  0  0
    1.4141    0.2212    1.6766 O   0  0  0  0  0  0  0  0  0  0  0  0
    0.1962    2.0223    2.1888 N   0  0  0  0  0  0  0  0  0  0  0  0
   -0.6523    2.5431    1.9937 H   0  0  0  0  0  0  0  0  0  0  0  0
    0.8870    2.2697    3.4492 C   0  0  0  0  0  0  0  0  0  0  0  0
    1.9668    2.3512    3.2855 H   0  0  0  0  0  0  0  0  0  0  0  0
    0.5360    3.2047    3.8959 H   0  0  0  0  0  0  0  0  0  0  0  0
    0.6983    1.4544    4.1557 H   0  0  0  0  0  0  0  0  0  0  0  0
  1  2  1  0  0  0  0
  2  3  1  0  0  0  0
  2  4  1  0  0  0  0
  2  5  1  0  0  0  0
  5  6  2  0  0  0  0
  5  7  1  0  0  0  0
  7  8  1  0  0  0  0
  7  9  1  0  0  0  0
  9 10  1  0  0  0  0
  9 11  1  0  0  0  0
  9 22  1  0  0  0  0
 11 12  1  0  0  0  0
 11 13  1  0  0  0  0
 11 14  1  0  0  0  0
 14 15  1  0  0  0  0
 14 20  2  0  0  0  0
 15 16  1  0  0  0  0
 15 17  1  0  0  0  0
 17 18  1  0  0  0  0
 17 19  2  0  0  0  0
 19 20  1  0  0  0  0
 20 21  1  0  0  0  0
 22 23  2  0  0  0  0
 22 24  1  0  0  0  0
 24 25  1  0  0  0  0
 24 26  1  0  0  0  0
 26 27  1  0  0  0  0
 26 28  1  0  0  0  0
 26 29  1  0  0  0  0
M  END
$$$$

  -OEChem-01062216083D

 29 29  0     1  0  0  0  0  0999 V2000
   -3.3266   -2.6592    0.8727 H   0  0  0  0  0  0  0  0  0  0  0  0
   -3.2327   -1.7203    0.3194 C   0  0  0  0  0  0  0  0  0  0  0  0
   -4.0571   -1.0611    0.6014 H   0  0  0  0  0  0  0  0  0  0  0  0
   -3.2954   -1.9362   -0.7499 H   0  0  0  0  0  0  0  0  0  0  0  0
   -1.9062   -1.0570    0.6387 C   0  0  0  0  0  0  0  0  0  0  0  0
   -1.1870   -1.5403    1.4926 O   0  0  0  0  0  0  0  0  0  0  0  0
   -1.5474    0.0920   -0.0398 N   0  0  0  0  0  0  0  0  0  0  0  0
   -2.1527    0.3421   -0.8169 H   0  0  0  0  0  0  0  0  0  0  0  0
   -0.2203    0.7398   -0.0040 C   0  0  1  0  0  0  0  0  0  0  0  0
    0.4644    0.1199   -0.5929 H   0  0  0  0  0  0  0  0  0  0  0  0
   -0.3188    2.1209   -0.6719 C   0  0  0  0  0  0  0  0  0  0  0  0
   -1.0759    2.7273   -0.1641 H   0  0  0  0  0  0  0  0  0  0  0  0
    0.6392    2.6456   -0.5849 H   0  0  0  0  0  0  0  0  0  0  0  0
   -0.6709    1.9798   -2.1297 C   0  0  0  0  0  0  0  0  0  0  0  0
    0.1549    1.5740   -3.1545 N   0  0  0  0  0  0  0  0  0  0  0  0
    1.1295    1.2891   -3.0696 H   0  0  0  0  0  0  0  0  0  0  0  0
   -0.5634    1.6164   -4.3347 C   0  0  0  0  0  0  0  0  0  0  0  0
   -0.1767    1.3416   -5.3119 H   0  0  0  0  0  0  0  0  0  0  0  0
   -1.7850    2.0350   -4.1024 N   0  0  0  0  0  0  0  0  0  0  0  0
   -1.8597    2.2845   -2.7380 C   0  0  0  0  0  0  0  0  0  0  0  0
   -2.7401    2.6622   -2.2266 H   0  0  0  0  0  0  0  0  0  0  0  0
    0.4310    0.8859    1.3917 C   0  0  0  0  0  0  0  0  0  0  0  0
    1.5393    0.4026    1.5838 O   0  0  0  0  0  0  0  0  0  0  0  0
   -0.0325    1.8420    2.2804 N   0  0  0  0  0  0  0  0  0  0  0  0
   -0.9874    2.1569    2.1425 H   0  0  0  0  0  0  0  0  0  0  0  0
    0.5909    2.0750    3.5777 C   0  0  0  0  0  0  0  0  0  0  0  0
    1.6347    2.3821    3.4528 H   0  0  0  0  0  0  0  0  0  0  0  0
    0.0615    2.8678    4.1149 H   0  0  0  0  0  0  0  0  0  0  0  0
    0.5619    1.1638    4.1847 H   0  0  0  0  0  0  0  0  0  0  0  0
  1  2  1  0  0  0  0
  2  3  1  0  0  0  0
  2  4  1  0  0  0  0
  2  5  1  0  0  0  0
  5  6  2  0  0  0  0
  5  7  1  0  0  0  0
  7  8  1  0  0  0  0
  7  9  1  0  0  0  0
  9 10  1  0  0  0  0
  9 11  1  0  0  0  0
  9 22  1  0  0  0  0
 11 12  1  0  0  0  0
 11 13  1  0  0  0  0
 11 14  1  0  0  0  0
 14 15  1  0  0  0  0
 14 20  2  0  0  0  0
 15 16  1  0  0  0  0
 15 17  1  0  0  0  0
 17 18  1  0  0  0  0
 17 19  2  0  0  0  0
 19 20  1  0  0  0  0
 20 21  1  0  0  0  0
 22 23  2  0  0  0  0
 22 24  1  0  0  0  0
 24 25  1  0  0  0  0
 24 26  1  0  0  0  0
 26 27  1  0  0  0  0
 26 28  1  0  0  0  0
 26 29  1  0  0  0  0
M  END
$$$$

  -OEChem-01062216083D

 29 29  0     1  0  0  0  0  0999 V2000
   -3.3283   -2.6593    0.8881 H   0  0  0  0  0  0  0  0  0  0  0  0
   -3.2345   -1.7261    0.3254 C   0  0  0  0  0  0  0  0  0  0  0  0
   -4.0577   -1.0634    0.6026 H   0  0  0  0  0  0  0  0  0  0  0  0
   -3.3001   -1.9524   -0.7417 H   0  0  0  0  0  0  0  0  0  0  0  0
   -1.9066   -1.0614    0.6354 C   0  0  0  0  0  0  0  0  0  0  0  0
   -1.1832   -1.5381    1.4902 O   0  0  0  0  0  0  0  0  0  0  0  0
   -1.5459    0.0822   -0.0510 N   0  0  0  0  0  0  0  0  0  0  0  0
   -2.1500    0.3319   -0.8293 H   0  0  0  0  0  0  0  0  0  0  0  0
   -0.2158    0.7248   -0.0152 C   0  0  1  0  0  0  0  0  0  0  0  0
    0.4688    0.1043   -0.6034 H   0  0  0  0  0  0  0  0  0  0  0  0
   -0.3088    2.1114   -0.6704 C   0  0  0  0  0  0  0  0  0  0  0  0
   -1.0592    2.7173   -0.1518 H   0  0  0  0  0  0  0  0  0  0  0  0
    0.6523    2.6302   -0.5822 H   0  0  0  0  0  0  0  0  0  0  0  0
   -0.6664    1.9842   -2.1283 C   0  0  0  0  0  0  0  0  0  0  0  0
    0.1561    1.5821   -3.1573 N   0  0  0  0  0  0  0  0  0  0  0  0
    1.1304    1.2950   -3.0760 H   0  0  0  0  0  0  0  0  0  0  0  0
   -0.5643    1.6364   -4.3360 C   0  0  0  0  0  0  0  0  0  0  0  0
   -0.1806    1.3686   -5.3164 H   0  0  0  0  0  0  0  0  0  0  0  0
   -1.7842    2.0569   -4.0984 N   0  0  0  0  0  0  0  0  0  0  0  0
   -1.8551    2.2981   -2.7321 C   0  0  0  0  0  0  0  0  0  0  0  0
   -2.7331    2.6762   -2.2169 H   0  0  0  0  0  0  0  0  0  0  0  0
    0.4320    0.8771    1.3793 C   0  0  0  0  0  0  0  0  0  0  0  0
    1.6213    0.6178    1.5130 O   0  0  0  0  0  0  0  0  0  0  0  0
   -0.2094    1.6082    2.3642 N   0  0  0  0  0  0  0  0  0  0  0  0
   -1.2155    1.6966    2.2631 H   0  0  0  0  0  0  0  0  0  0  0  0
    0.3713    1.8163    3.6848 C   0  0  0  0  0  0  0  0  0  0  0  0
    1.3306    2.3387    3.6052 H   0  0  0  0  0  0  0  0  0  0  0  0
   -0.2991    2.4220    4.3017 H   0  0  0  0  0  0  0  0  0  0  0  0
    0.5337    0.8562    4.1860 H   0  0  0  0  0  0  0  0  0  0  0  0
  1  2  1  0  0  0  0
  2  3  1  0  0  0  0
  2  4  1  0  0  0  0
  2  5  1  0  0  0  0
  5  6  2  0  0  0  0
  5  7  1  0  0  0  0
  7  8  1  0  0  0  0
  7  9  1  0  0  0  0
  9 10  1  0  0  0  0
  9 11  1  0  0  0  0
  9 22  1  0  0  0  0
 11 12  1  0  0  0  0
 11 13  1  0  0  0  0
 11 14  1  0  0  0  0
 14 15  1  0  0  0  0
 14 20  2  0  0  0  0
 15 16  1  0  0  0  0
 15 17  1  0  0  0  0
 17 18  1  0  0  0  0
 17 19  2  0  0  0  0
 19 20  1  0  0  0  0
 20 21  1  0  0  0  0
 22 23  2  0  0  0  0
 22 24  1  0  0  0  0
 24 25  1  0  0  0  0
 24 26  1  0  0  0  0
 26 27  1  0  0  0  0
 26 28  1  0  0  0  0
 26 29  1  0  0  0  0
M  END
$$$$

  -OEChem-01062216083D

 29 29  0     1  0  0  0  0  0999 V2000
   -3.3731   -2.6361    0.8948 H   0  0  0  0  0  0  0  0  0  0  0  0
   -3.2498   -1.7258    0.3011 C   0  0  0  0  0  0  0  0  0  0  0  0
   -4.0714   -1.0425    0.5288 H   0  0  0  0  0  0  0  0  0  0  0  0
   -3.2881   -1.9910   -0.7582 H   0  0  0  0  0  0  0  0  0  0  0  0
   -1.9220   -1.0670    0.6240 C   0  0  0  0  0  0  0  0  0  0  0  0
   -1.2120   -1.5399    1.4925 O   0  0  0  0  0  0  0  0  0  0  0  0
   -1.5452    0.0707   -0.0632 N   0  0  0  0  0  0  0  0  0  0  0  0
   -2.1385    0.3215   -0.8499 H   0  0  0  0  0  0  0  0  0  0  0  0
   -0.2116    0.7078   -0.0170 C   0  0  1  0  0  0  0  0  0  0  0  0
    0.4763    0.0895   -0.6034 H   0  0  0  0  0  0  0  0  0  0  0  0
   -0.3101    2.0984   -0.6629 C   0  0  0  0  0  0  0  0  0  0  0  0
   -1.0625    2.6966   -0.1379 H   0  0  0  0  0  0  0  0  0  0  0  0
    0.6483    2.6215   -0.5716 H   0  0  0  0  0  0  0  0  0  0  0  0
   -0.6675    1.9810   -2.1216 C   0  0  0  0  0  0  0  0  0  0  0  0
    0.1556    1.5901   -3.1543 N   0  0  0  0  0  0  0  0  0  0  0  0
    1.1333    1.3133   -3.0766 H   0  0  0  0  0  0  0  0  0  0  0  0
   -0.5658    1.6505   -4.3320 C   0  0  0  0  0  0  0  0  0  0  0  0
   -0.1809    1.3926   -5.3148 H   0  0  0  0  0  0  0  0  0  0  0  0
   -1.7878    2.0630   -4.0896 N   0  0  0  0  0  0  0  0  0  0  0  0
   -1.8584    2.2940   -2.7213 C   0  0  0  0  0  0  0  0  0  0  0  0
   -2.7374    2.6639   -2.2016 H   0  0  0  0  0  0  0  0  0  0  0  0
    0.4352    0.8725    1.3763 C   0  0  0  0  0  0  0  0  0  0  0  0
    1.6563    0.8491    1.4674 O   0  0  0  0  0  0  0  0  0  0  0  0
   -0.3138    1.3391    2.4418 N   0  0  0  0  0  0  0  0  0  0  0  0
   -1.3144    1.1838    2.3661 H   0  0  0  0  0  0  0  0  0  0  0  0
    0.2529    1.5169    3.7728 C   0  0  0  0  0  0  0  0  0  0  0  0
    1.0776    2.2369    3.7467 H   0  0  0  0  0  0  0  0  0  0  0  0
   -0.5101    1.8937    4.4605 H   0  0  0  0  0  0  0  0  0  0  0  0
    0.6289    0.5632    4.1582 H   0  0  0  0  0  0  0  0  0  0  0  0
  1  2  1  0  0  0  0
  2  3  1  0  0  0  0
  2  4  1  0  0  0  0
  2  5  1  0  0  0  0
  5  6  2  0  0  0  0
  5  7  1  0  0  0  0
  7  8  1  0  0  0  0
  7  9  1  0  0  0  0
  9 10  1  0  0  0  0
  9 11  1  0  0  0  0
  9 22  1  0  0  0  0
 11 12  1  0  0  0  0
 11 13  1  0  0  0  0
 11 14  1  0  0  0  0
 14 15  1  0  0  0  0
 14 20  2  0  0  0  0
 15 16  1  0  0  0  0
 15 17  1  0  0  0  0
 17 18  1  0  0  0  0
 17 19  2  0  0  0  0
 19 20  1  0  0  0  0
 20 21  1  0  0  0  0
 22 23  2  0  0  0  0
 22 24  1  0  0  0  0
 24 25  1  0  0  0  0
 24 26  1  0  0  0  0
 26 27  1  0  0  0  0
 26 28  1  0  0  0  0
 26 29  1  0  0  0  0
M  END
$$$$

  -OEChem-01062216083D

 29 29  0     1  0  0  0  0  0999 V2000
   -3.4171   -2.6472    0.8093 H   0  0  0  0  0  0  0  0  0  0  0  0
   -3.2859   -1.7191    0.2455 C   0  0  0  0  0  0  0  0  0  0  0  0
   -4.1056   -1.0392    0.4897 H   0  0  0  0  0  0  0  0  0  0  0  0
   -3.3190   -1.9506   -0.8219 H   0  0  0  0  0  0  0  0  0  0  0  0
   -1.9572   -1.0774    0.5969 C   0  0  0  0  0  0  0  0  0  0  0  0
   -1.2679   -1.5618    1.4759 O   0  0  0  0  0  0  0  0  0  0  0  0
   -1.5561    0.0603   -0.0746 N   0  0  0  0  0  0  0  0  0  0  0  0
   -2.1444    0.3332   -0.8577 H   0  0  0  0  0  0  0  0  0  0  0  0
   -0.2218    0.6966   -0.0071 C   0  0  1  0  0  0  0  0  0  0  0  0
    0.4723    0.0838   -0.5916 H   0  0  0  0  0  0  0  0  0  0  0  0
   -0.3309    2.0885   -0.6516 C   0  0  0  0  0  0  0  0  0  0  0  0
   -1.0927    2.6767   -0.1288 H   0  0  0  0  0  0  0  0  0  0  0  0
    0.6204    2.6233   -0.5545 H   0  0  0  0  0  0  0  0  0  0  0  0
   -0.6754    1.9730   -2.1139 C   0  0  0  0  0  0  0  0  0  0  0  0
    0.1609    1.5951   -3.1405 N   0  0  0  0  0  0  0  0  0  0  0  0
    1.1418    1.3331   -3.0555 H   0  0  0  0  0  0  0  0  0  0  0  0
   -0.5512    1.6503   -4.3239 C   0  0  0  0  0  0  0  0  0  0  0  0
   -0.1546    1.3999   -5.3038 H   0  0  0  0  0  0  0  0  0  0  0  0
   -1.7799    2.0475   -4.0913 N   0  0  0  0  0  0  0  0  0  0  0  0
   -1.8643    2.2750   -2.7232 C   0  0  0  0  0  0  0  0  0  0  0  0
   -2.7515    2.6339   -2.2101 H   0  0  0  0  0  0  0  0  0  0  0  0
    0.4300    0.8705    1.3856 C   0  0  0  0  0  0  0  0  0  0  0  0
    1.6350    1.0844    1.4442 O   0  0  0  0  0  0  0  0  0  0  0  0
   -0.3401    1.0420    2.5215 N   0  0  0  0  0  0  0  0  0  0  0  0
   -1.2613    0.6148    2.4682 H   0  0  0  0  0  0  0  0  0  0  0  0
    0.2541    1.2023    3.8429 C   0  0  0  0  0  0  0  0  0  0  0  0
    0.9007    2.0857    3.8695 H   0  0  0  0  0  0  0  0  0  0  0  0
   -0.5290    1.3280    4.5967 H   0  0  0  0  0  0  0  0  0  0  0  0
    0.8497    0.3212    4.1035 H   0  0  0  0  0  0  0  0  0  0  0  0
  1  2  1  0  0  0  0
  2  3  1  0  0  0  0
  2  4  1  0  0  0  0
  2  5  1  0  0  0  0
  5  6  2  0  0  0  0
  5  7  1  0  0  0  0
  7  8  1  0  0  0  0
  7  9  1  0  0  0  0
  9 10  1  0  0  0  0
  9 11  1  0  0  0  0
  9 22  1  0  0  0  0
 11 12  1  0  0  0  0
 11 13  1  0  0  0  0
 11 14  1  0  0  0  0
 14 15  1  0  0  0  0
 14 20  2  0  0  0  0
 15 16  1  0  0  0  0
 15 17  1  0  0  0  0
 17 18  1  0  0  0  0
 17 19  2  0  0  0  0
 19 20  1  0  0  0  0
 20 21  1  0  0  0  0
 22 23  2  0  0  0  0
 22 24  1  0  0  0  0
 24 25  1  0  0  0  0
 24 26  1  0  0  0  0
 26 27  1  0  0  0  0
 26 28  1  0  0  0  0
 26 29  1  0  0  0  0
M  END
$$$$

  -OEChem-01062216083D

 29 29  0     1  0  0  0  0  0999 V2000
   -3.4781   -2.6450    0.7353 H   0  0  0  0  0  0  0  0  0  0  0  0
   -3.3342   -1.6979    0.2075 C   0  0  0  0  0  0  0  0  0  0  0  0
   -4.1306   -1.0087    0.4980 H   0  0  0  0  0  0  0  0  0  0  0  0
   -3.3958   -1.8838   -0.8676 H   0  0  0  0  0  0  0  0  0  0  0  0
   -1.9819   -1.1045    0.5556 C   0  0  0  0  0  0  0  0  0  0  0  0
   -1.2890   -1.6432    1.4000 O   0  0  0  0  0  0  0  0  0  0  0  0
   -1.5593    0.0418   -0.0875 N   0  0  0  0  0  0  0  0  0  0  0  0
   -2.1617    0.3629   -0.8406 H   0  0  0  0  0  0  0  0  0  0  0  0
   -0.2293    0.6886    0.0034 C   0  0  1  0  0  0  0  0  0  0  0  0
    0.4738    0.0867   -0.5810 H   0  0  0  0  0  0  0  0  0  0  0  0
   -0.3584    2.0804   -0.6436 C   0  0  0  0  0  0  0  0  0  0  0  0
   -1.1357    2.6537   -0.1270 H   0  0  0  0  0  0  0  0  0  0  0  0
    0.5794    2.6374   -0.5413 H   0  0  0  0  0  0  0  0  0  0  0  0
   -0.6850    1.9611   -2.1102 C   0  0  0  0  0  0  0  0  0  0  0  0
    0.1699    1.6006   -3.1281 N   0  0  0  0  0  0  0  0  0  0  0  0
    1.1536    1.3529   -3.0319 H   0  0  0  0  0  0  0  0  0  0  0  0
   -0.5273    1.6535   -4.3206 C   0  0  0  0  0  0  0  0  0  0  0  0
   -0.1153    1.4147   -5.2971 H   0  0  0  0  0  0  0  0  0  0  0  0
   -1.7641    2.0334   -4.1019 N   0  0  0  0  0  0  0  0  0  0  0  0
   -1.8693    2.2521   -2.7337 C   0  0  0  0  0  0  0  0  0  0  0  0
   -2.7668    2.5999   -2.2307 H   0  0  0  0  0  0  0  0  0  0  0  0
    0.4278    0.8655    1.3980 C   0  0  0  0  0  0  0  0  0  0  0  0
    1.5722    1.3009    1.4523 O   0  0  0  0  0  0  0  0  0  0  0  0
   -0.2858    0.7267    2.5739 N   0  0  0  0  0  0  0  0  0  0  0  0
   -1.0718    0.0819    2.4990 H   0  0  0  0  0  0  0  0  0  0  0  0
    0.3365    0.8723    3.8842 C   0  0  0  0  0  0  0  0  0  0  0  0
    0.7618    1.8748    3.9989 H   0  0  0  0  0  0  0  0  0  0  0  0
   -0.4071    0.7228    4.6728 H   0  0  0  0  0  0  0  0  0  0  0  0
    1.1349    0.1342    4.0135 H   0  0  0  0  0  0  0  0  0  0  0  0
  1  2  1  0  0  0  0
  2  3  1  0  0  0  0
  2  4  1  0  0  0  0
  2  5  1  0  0  0  0
  5  6  2  0  0  0  0
  5  7  1  0  0  0  0
  7  8  1  0  0  0  0
  7  9  1  0  0  0  0
  9 10  1  0  0  0  0
  9 11  1  0  0  0  0
  9 22  1  0  0  0  0
 11 12  1  0  0  0  0
 11 13  1  0  0  0  0
 11 14  1  0  0  0  0
 14 15  1  0  0  0  0
 14 20  2  0  0  0  0
 15 16  1  0  0  0  0
 15 17  1  0  0  0  0
 17 18  1  0  0  0  0
 17 19  2  0  0  0  0
 19 20  1  0  0  0  0
 20 21  1  0  0  0  0
 22 23  2  0  0  0  0
 22 24  1  0  0  0  0
 24 25  1  0  0  0  0
 24 26  1  0  0  0  0
 26 27  1  0  0  0  0
 26 28  1  0  0  0  0
 26 29  1  0  0  0  0
M  END
$$$$

  -OEChem-01062216083D

 29 29  0     1  0  0  0  0  0999 V2000
   -3.5425   -2.6063    0.7173 H   0  0  0  0  0  0  0  0  0  0  0  0
   -3.3729   -1.6569    0.2011 C   0  0  0  0  0  0  0  0  0  0  0  0
   -4.1232   -0.9359    0.5348 H   0  0  0  0  0  0  0  0  0  0  0  0
   -3.4846   -1.8178   -0.8740 H   0  0  0  0  0  0  0  0  0  0  0  0
   -1.9812   -1.1359    0.5064 C   0  0  0  0  0  0  0  0  0  0  0  0
   -1.2620   -1.7579    1.2683 O   0  0  0  0  0  0  0  0  0  0  0  0
   -1.5449    0.0217   -0.1066 N   0  0  0  0  0  0  0  0  0  0  0  0
   -2.1776    0.4062   -0.8028 H   0  0  0  0  0  0  0  0  0  0  0  0
   -0.2240    0.6851    0.0087 C   0  0  1  0  0  0  0  0  0  0  0  0
    0.4937    0.0992   -0.5740 H   0  0  0  0  0  0  0  0  0  0  0  0
   -0.3827    2.0760   -0.6405 C   0  0  0  0  0  0  0  0  0  0  0  0
   -1.1776    2.6298   -0.1293 H   0  0  0  0  0  0  0  0  0  0  0  0
    0.5388    2.6585   -0.5344 H   0  0  0  0  0  0  0  0  0  0  0  0
   -0.6915    1.9532   -2.1112 C   0  0  0  0  0  0  0  0  0  0  0  0
    0.1808    1.6178   -3.1227 N   0  0  0  0  0  0  0  0  0  0  0  0
    1.1697    1.3962   -3.0185 H   0  0  0  0  0  0  0  0  0  0  0  0
   -0.5073    1.6543   -4.3211 C   0  0  0  0  0  0  0  0  0  0  0  0
   -0.0810    1.4273   -5.2943 H   0  0  0  0  0  0  0  0  0  0  0  0
   -1.7553    2.0016   -4.1124 N   0  0  0  0  0  0  0  0  0  0  0  0
   -1.8776    2.2139   -2.7448 C   0  0  0  0  0  0  0  0  0  0  0  0
   -2.7889    2.5350   -2.2491 H   0  0  0  0  0  0  0  0  0  0  0  0
    0.4258    0.8616    1.4120 C   0  0  0  0  0  0  0  0  0  0  0  0
    1.4734    1.4921    1.4980 O   0  0  0  0  0  0  0  0  0  0  0  0
   -0.1670    0.4279    2.5830 N   0  0  0  0  0  0  0  0  0  0  0  0
   -0.8405   -0.3284    2.4533 H   0  0  0  0  0  0  0  0  0  0  0  0
    0.4851    0.5311    3.8826 C   0  0  0  0  0  0  0  0  0  0  0  0
    0.6986    1.5778    4.1236 H   0  0  0  0  0  0  0  0  0  0  0  0
   -0.1650    0.1244    4.6630 H   0  0  0  0  0  0  0  0  0  0  0  0
    1.4248   -0.0311    3.8855 H   0  0  0  0  0  0  0  0  0  0  0  0
  1  2  1  0  0  0  0
  2  3  1  0  0  0  0
  2  4  1  0  0  0  0
  2  5  1  0  0  0  0
  5  6  2  0  0  0  0
  5  7  1  0  0  0  0
  7  8  1  0  0  0  0
  7  9  1  0  0  0  0
  9 10  1  0  0  0  0
  9 11  1  0  0  0  0
  9 22  1  0  0  0  0
 11 12  1  0  0  0  0
 11 13  1  0  0  0  0
 11 14  1  0  0  0  0
 14 15  1  0  0  0  0
 14 20  2  0  0  0  0
 15 16  1  0  0  0  0
 15 17  1  0  0  0  0
 17 18  1  0  0  0  0
 17 19  2  0  0  0  0
 19 20  1  0  0  0  0
 20 21  1  0  0  0  0
 22 23  2  0  0  0  0
 22 24  1  0  0  0  0
 24 25  1  0  0  0  0
 24 26  1  0  0  0  0
 26 27  1  0  0  0  0
 26 28  1  0  0  0  0
 26 29  1  0  0  0  0
M  END
$$$$

  -OEChem-01062216083D

 29 29  0     1  0  0  0  0  0999 V2000
   -3.5739   -2.5797    0.7347 H   0  0  0  0  0  0  0  0  0  0  0  0
   -3.3986   -1.6240    0.2327 C   0  0  0  0  0  0  0  0  0  0  0  0
   -4.0973   -0.8845    0.6313 H   0  0  0  0  0  0  0  0  0  0  0  0
   -3.5831   -1.7505   -0.8369 H   0  0  0  0  0  0  0  0  0  0  0  0
   -1.9707   -1.1656    0.4619 C   0  0  0  0  0  0  0  0  0  0  0  0
   -1.2118   -1.8697    1.1053 O   0  0  0  0  0  0  0  0  0  0  0  0
   -1.5385    0.0090   -0.1206 N   0  0  0  0  0  0  0  0  0  0  0  0
   -2.2164    0.4638   -0.7254 H   0  0  0  0  0  0  0  0  0  0  0  0
   -0.2254    0.6867    0.0088 C   0  0  1  0  0  0  0  0  0  0  0  0
    0.4983    0.1122   -0.5775 H   0  0  0  0  0  0  0  0  0  0  0  0
   -0.3986    2.0771   -0.6432 C   0  0  0  0  0  0  0  0  0  0  0  0
   -1.2037    2.6211   -0.1378 H   0  0  0  0  0  0  0  0  0  0  0  0
    0.5136    2.6736   -0.5357 H   0  0  0  0  0  0  0  0  0  0  0  0
   -0.6931    1.9497   -2.1164 C   0  0  0  0  0  0  0  0  0  0  0  0
    0.1937    1.6264   -3.1191 N   0  0  0  0  0  0  0  0  0  0  0  0
    1.1837    1.4159   -3.0051 H   0  0  0  0  0  0  0  0  0  0  0  0
   -0.4825    1.6553   -4.3242 C   0  0  0  0  0  0  0  0  0  0  0  0
   -0.0433    1.4342   -5.2929 H   0  0  0  0  0  0  0  0  0  0  0  0
   -1.7366    1.9880   -4.1287 N   0  0  0  0  0  0  0  0  0  0  0  0
   -1.8758    2.1954   -2.7619 C   0  0  0  0  0  0  0  0  0  0  0  0
   -2.7956    2.5050   -2.2749 H   0  0  0  0  0  0  0  0  0  0  0  0
    0.4250    0.8439    1.4182 C   0  0  0  0  0  0  0  0  0  0  0  0
    1.3300    1.6571    1.5678 O   0  0  0  0  0  0  0  0  0  0  0  0
    0.0176    0.1418    2.5366 N   0  0  0  0  0  0  0  0  0  0  0  0
   -0.5468   -0.6880    2.3450 H   0  0  0  0  0  0  0  0  0  0  0  0
    0.6905    0.2275    3.8270 C   0  0  0  0  0  0  0  0  0  0  0  0
    0.6744    1.2567    4.2004 H   0  0  0  0  0  0  0  0  0  0  0  0
    0.1858   -0.4111    4.5581 H   0  0  0  0  0  0  0  0  0  0  0  0
    1.7315   -0.1002    3.7390 H   0  0  0  0  0  0  0  0  0  0  0  0
  1  2  1  0  0  0  0
  2  3  1  0  0  0  0
  2  4  1  0  0  0  0
  2  5  1  0  0  0  0
  5  6  2  0  0  0  0
  5  7  1  0  0  0  0
  7  8  1  0  0  0  0
  7  9  1  0  0  0  0
  9 10  1  0  0  0  0
  9 11  1  0  0  0  0
  9 22  1  0  0  0  0
 11 12  1  0  0  0  0
 11 13  1  0  0  0  0
 11 14  1  0  0  0  0
 14 15  1  0  0  0  0
 14 20  2  0  0  0  0
 15 16  1  0  0  0  0
 15 17  1  0  0  0  0
 17 18  1  0  0  0  0
 17 19  2  0  0  0  0
 19 20  1  0  0  0  0
 20 21  1  0  0  0  0
 22 23  2  0  0  0  0
 22 24  1  0  0  0  0
 24 25  1  0  0  0  0
 24 26  1  0  0  0  0
 26 27  1  0  0  0  0
 26 28  1  0  0  0  0
 26 29  1  0  0  0  0
M  END
$$$$

  -OEChem-01062216083D

 29 29  0     1  0  0  0  0  0999 V2000
   -3.6608   -2.4423    0.8739 H   0  0  0  0  0  0  0  0  0  0  0  0
   -3.4600   -1.5066    0.3446 C   0  0  0  0  0  0  0  0  0  0  0  0
   -4.0781   -0.7177    0.7797 H   0  0  0  0  0  0  0  0  0  0  0  0
   -3.7285   -1.6328   -0.7073 H   0  0  0  0  0  0  0  0  0  0  0  0
   -1.9924   -1.1424    0.4645 C   0  0  0  0  0  0  0  0  0  0  0  0
   -1.2226   -1.9256    0.9942 O   0  0  0  0  0  0  0  0  0  0  0  0
   -1.5393    0.0253   -0.1160 N   0  0  0  0  0  0  0  0  0  0  0  0
   -2.2437    0.5503   -0.6260 H   0  0  0  0  0  0  0  0  0  0  0  0
   -0.2052    0.6648   -0.0118 C   0  0  1  0  0  0  0  0  0  0  0  0
    0.4888    0.0686   -0.6123 H   0  0  0  0  0  0  0  0  0  0  0  0
   -0.3465    2.0579   -0.6676 C   0  0  0  0  0  0  0  0  0  0  0  0
   -1.1239    2.6299   -0.1500 H   0  0  0  0  0  0  0  0  0  0  0  0
    0.5868    2.6242   -0.5804 H   0  0  0  0  0  0  0  0  0  0  0  0
   -0.6689    1.9358   -2.1356 C   0  0  0  0  0  0  0  0  0  0  0  0
    0.1902    1.5828   -3.1523 N   0  0  0  0  0  0  0  0  0  0  0  0
    1.1741    1.3386   -3.0544 H   0  0  0  0  0  0  0  0  0  0  0  0
   -0.5048    1.6332   -4.3462 C   0  0  0  0  0  0  0  0  0  0  0  0
   -0.0887    1.3977   -5.3217 H   0  0  0  0  0  0  0  0  0  0  0  0
   -1.7439    2.0068   -4.1309 N   0  0  0  0  0  0  0  0  0  0  0  0
   -1.8540    2.2180   -2.7619 C   0  0  0  0  0  0  0  0  0  0  0  0
   -2.7554    2.5571   -2.2604 H   0  0  0  0  0  0  0  0  0  0  0  0
    0.4727    0.7842    1.3909 C   0  0  0  0  0  0  0  0  0  0  0  0
    1.2246    1.7245    1.6218 O   0  0  0  0  0  0  0  0  0  0  0  0
    0.2733   -0.1162    2.4194 N   0  0  0  0  0  0  0  0  0  0  0  0
   -0.2324   -0.9705    2.1755 H   0  0  0  0  0  0  0  0  0  0  0  0
    0.9562   -0.0546    3.7059 C   0  0  0  0  0  0  0  0  0  0  0  0
    0.7335    0.8899    4.2130 H   0  0  0  0  0  0  0  0  0  0  0  0
    0.6239   -0.8765    4.3470 H   0  0  0  0  0  0  0  0  0  0  0  0
    2.0395   -0.1362    3.5702 H   0  0  0  0  0  0  0  0  0  0  0  0
  1  2  1  0  0  0  0
  2  3  1  0  0  0  0
  2  4  1  0  0  0  0
  2  5  1  0  0  0  0
  5  6  2  0  0  0  0
  5  7  1  0  0  0  0
  7  8  1  0  0  0  0
  7  9  1  0  0  0  0
  9 10  1  0  0  0  0
  9 11  1  0  0  0  0
  9 22  1  0  0  0  0
 11 12  1  0  0  0  0
 11 13  1  0  0  0  0
 11 14  1  0  0  0  0
 14 15  1  0  0  0  0
 14 20  2  0  0  0  0
 15 16  1  0  0  0  0
 15 17  1  0  0  0  0
 17 18  1  0  0  0  0
 17 19  2  0  0  0  0
 19 20  1  0  0  0  0
 20 21  1  0  0  0  0
 22 23  2  0  0  0  0
 22 24  1  0  0  0  0
 24 25  1  0  0  0  0
 24 26  1  0  0  0  0
 26 27  1  0  0  0  0
 26 28  1  0  0  0  0
 26 29  1  0  0  0  0
M  END
$$$$

  -OEChem-01062216083D

 29 29  0     1  0  0  0  0  0999 V2000
   -3.5236   -2.5410    0.8784 H   0  0  0  0  0  0  0  0  0  0  0  0
   -3.3655   -1.5847    0.3717 C   0  0  0  0  0  0  0  0  0  0  0  0
   -3.9788   -0.8236    0.8603 H   0  0  0  0  0  0  0  0  0  0  0  0
   -3.6789   -1.6824   -0.6705 H   0  0  0  0  0  0  0  0  0  0  0  0
   -1.9016   -1.1933    0.4380 C   0  0  0  0  0  0  0  0  0  0  0  0
   -1.0933   -1.9778    0.9051 O   0  0  0  0  0  0  0  0  0  0  0  0
   -1.4967   -0.0023   -0.1312 N   0  0  0  0  0  0  0  0  0  0  0  0
   -2.2361    0.5281   -0.5825 H   0  0  0  0  0  0  0  0  0  0  0  0
   -0.1848    0.6800   -0.0250 C   0  0  1  0  0  0  0  0  0  0  0  0
    0.5276    0.1121   -0.6312 H   0  0  0  0  0  0  0  0  0  0  0  0
   -0.3594    2.0741   -0.6689 C   0  0  0  0  0  0  0  0  0  0  0  0
   -1.1519    2.6224   -0.1486 H   0  0  0  0  0  0  0  0  0  0  0  0
    0.5609    2.6600   -0.5710 H   0  0  0  0  0  0  0  0  0  0  0  0
   -0.6756    1.9572   -2.1387 C   0  0  0  0  0  0  0  0  0  0  0  0
    0.1922    1.6351   -3.1585 N   0  0  0  0  0  0  0  0  0  0  0  0
    1.1822    1.4168   -3.0630 H   0  0  0  0  0  0  0  0  0  0  0  0
   -0.5040    1.6775   -4.3520 C   0  0  0  0  0  0  0  0  0  0  0  0
   -0.0813    1.4623   -5.3294 H   0  0  0  0  0  0  0  0  0  0  0  0
   -1.7526    2.0161   -4.1337 N   0  0  0  0  0  0  0  0  0  0  0  0
   -1.8681    2.2118   -2.7627 C   0  0  0  0  0  0  0  0  0  0  0  0
   -2.7786    2.5216   -2.2583 H   0  0  0  0  0  0  0  0  0  0  0  0
    0.4797    0.7925    1.3838 C   0  0  0  0  0  0  0  0  0  0  0  0
    0.9729    1.8542    1.7477 O   0  0  0  0  0  0  0  0  0  0  0  0
    0.5487   -0.2618    2.2728 N   0  0  0  0  0  0  0  0  0  0  0  0
    0.1275   -1.1433    1.9695 H   0  0  0  0  0  0  0  0  0  0  0  0
    1.1501   -0.1869    3.5981 C   0  0  0  0  0  0  0  0  0  0  0  0
    0.6254    0.5491    4.2160 H   0  0  0  0  0  0  0  0  0  0  0  0
    1.0898   -1.1608    4.0932 H   0  0  0  0  0  0  0  0  0  0  0  0
    2.2045    0.0994    3.5256 H   0  0  0  0  0  0  0  0  0  0  0  0
  1  2  1  0  0  0  0
  2  3  1  0  0  0  0
  2  4  1  0  0  0  0
  2  5  1  0  0  0  0
  5  6  2  0  0  0  0
  5  7  1  0  0  0  0
  7  8  1  0  0  0  0
  7  9  1  0  0  0  0
  9 10  1  0  0  0  0
  9 11  1  0  0  0  0
  9 22  1  0  0  0  0
 11 12  1  0  0  0  0
 11 13  1  0  0  0  0
 11 14  1  0  0  0  0
 14 15  1  0  0  0  0
 14 20  2  0  0  0  0
 15 16  1  0  0  0  0
 15 17  1  0  0  0  0
 17 18  1  0  0  0  0
 17 19  2  0  0  0  0
 19 20  1  0  0  0  0
 20 21  1  0  0  0  0
 22 23  2  0  0  0  0
 22 24  1  0  0  0  0
 24 25  1  0  0  0  0
 24 26  1  0  0  0  0
 26 27  1  0  0  0  0
 26 28  1  0  0  0  0
 26 29  1  0  0  0  0
M  END
$$$$

  -OEChem-01062216083D

 29 29  0     1  0  0  0  0  0999 V2000
   -3.4456   -2.5327    0.9916 H   0  0  0  0  0  0  0  0  0  0  0  0
   -3.3090   -1.5921    0.4505 C   0  0  0  0  0  0  0  0  0  0  0  0
   -3.9146   -0.8201    0.9312 H   0  0  0  0  0  0  0  0  0  0  0  0
   -3.6498   -1.7253   -0.5791 H   0  0  0  0  0  0  0  0  0  0  0  0
   -1.8468   -1.1886    0.4643 C   0  0  0  0  0  0  0  0  0  0  0  0
   -1.0157   -1.9620    0.9101 O   0  0  0  0  0  0  0  0  0  0  0  0
   -1.4677   -0.0005   -0.1280 N   0  0  0  0  0  0  0  0  0  0  0  0
   -2.2236    0.5333   -0.5468 H   0  0  0  0  0  0  0  0  0  0  0  0
   -0.1537    0.6783   -0.0522 C   0  0  1  0  0  0  0  0  0  0  0  0
    0.5483    0.1068   -0.6672 H   0  0  0  0  0  0  0  0  0  0  0  0
   -0.3206    2.0745   -0.6903 C   0  0  0  0  0  0  0  0  0  0  0  0
   -1.0971    2.6327   -0.1563 H   0  0  0  0  0  0  0  0  0  0  0  0
    0.6110    2.6440   -0.6002 H   0  0  0  0  0  0  0  0  0  0  0  0
   -0.6640    1.9669   -2.1546 C   0  0  0  0  0  0  0  0  0  0  0  0
    0.1790    1.6363   -3.1926 N   0  0  0  0  0  0  0  0  0  0  0  0
    1.1661    1.3981   -3.1174 H   0  0  0  0  0  0  0  0  0  0  0  0
   -0.5387    1.6977   -4.3726 C   0  0  0  0  0  0  0  0  0  0  0  0
   -0.1392    1.4802   -5.3591 H   0  0  0  0  0  0  0  0  0  0  0  0
   -1.7765    2.0569   -4.1292 N   0  0  0  0  0  0  0  0  0  0  0  0
   -1.8631    2.2463   -2.7551 C   0  0  0  0  0  0  0  0  0  0  0  0
   -2.7578    2.5702   -2.2320 H   0  0  0  0  0  0  0  0  0  0  0  0
    0.5165    0.7839    1.3516 C   0  0  0  0  0  0  0  0  0  0  0  0
    0.7891    1.8811    1.8264 O   0  0  0  0  0  0  0  0  0  0  0  0
    0.8468   -0.3313    2.0962 N   0  0  0  0  0  0  0  0  0  0  0  0
    0.4588   -1.2177    1.7623 H   0  0  0  0  0  0  0  0  0  0  0  0
    1.3824   -0.2735    3.4505 C   0  0  0  0  0  0  0  0  0  0  0  0
    0.6735    0.2217    4.1221 H   0  0  0  0  0  0  0  0  0  0  0  0
    1.5671   -1.2848    3.8252 H   0  0  0  0  0  0  0  0  0  0  0  0
    2.3284    0.2776    3.4663 H   0  0  0  0  0  0  0  0  0  0  0  0
  1  2  1  0  0  0  0
  2  3  1  0  0  0  0
  2  4  1  0  0  0  0
  2  5  1  0  0  0  0
  5  6  2  0  0  0  0
  5  7  1  0  0  0  0
  7  8  1  0  0  0  0
  7  9  1  0  0  0  0
  9 10  1  0  0  0  0
  9 11  1  0  0  0  0
  9 22  1  0  0  0  0
 11 12  1  0  0  0  0
 11 13  1  0  0  0  0
 11 14  1  0  0  0  0
 14 15  1  0  0  0  0
 14 20  2  0  0  0  0
 15 16  1  0  0  0  0
 15 17  1  0  0  0  0
 17 18  1  0  0  0  0
 17 19  2  0  0  0  0
 19 20  1  0  0  0  0
 20 21  1  0  0  0  0
 22 23  2  0  0  0  0
 22 24  1  0  0  0  0
 24 25  1  0  0  0  0
 24 26  1  0  0  0  0
 26 27  1  0  0  0  0
 26 28  1  0  0  0  0
 26 29  1  0  0  0  0
M  END
$$$$

  -OEChem-01062216083D

 29 29  0     1  0  0  0  0  0999 V2000
   -3.3525   -2.5408    1.0744 H   0  0  0  0  0  0  0  0  0  0  0  0
   -3.2475   -1.6069    0.5150 C   0  0  0  0  0  0  0  0  0  0  0  0
   -3.8602   -0.8397    0.9945 H   0  0  0  0  0  0  0  0  0  0  0  0
   -3.6052   -1.7648   -0.5054 H   0  0  0  0  0  0  0  0  0  0  0  0
   -1.7947   -1.1721    0.4920 C   0  0  0  0  0  0  0  0  0  0  0  0
   -0.9347   -1.9134    0.9402 O   0  0  0  0  0  0  0  0  0  0  0  0
   -1.4489    0.0098   -0.1322 N   0  0  0  0  0  0  0  0  0  0  0  0
   -2.2186    0.5396   -0.5307 H   0  0  0  0  0  0  0  0  0  0  0  0
   -0.1368    0.6880   -0.0736 C   0  0  1  0  0  0  0  0  0  0  0  0
    0.5658    0.1156   -0.6868 H   0  0  0  0  0  0  0  0  0  0  0  0
   -0.2968    2.0848   -0.7071 C   0  0  0  0  0  0  0  0  0  0  0  0
   -1.0680    2.6464   -0.1686 H   0  0  0  0  0  0  0  0  0  0  0  0
    0.6395    2.6460   -0.6149 H   0  0  0  0  0  0  0  0  0  0  0  0
   -0.6532    1.9812   -2.1686 C   0  0  0  0  0  0  0  0  0  0  0  0
    0.1769    1.6446   -3.2152 N   0  0  0  0  0  0  0  0  0  0  0  0
    1.1625    1.3980   -3.1502 H   0  0  0  0  0  0  0  0  0  0  0  0
   -0.5534    1.7074   -4.3876 C   0  0  0  0  0  0  0  0  0  0  0  0
   -0.1659    1.4847   -5.3778 H   0  0  0  0  0  0  0  0  0  0  0  0
   -1.7862    2.0750   -4.1314 N   0  0  0  0  0  0  0  0  0  0  0  0
   -1.8572    2.2662   -2.7565 C   0  0  0  0  0  0  0  0  0  0  0  0
   -2.7452    2.5939   -2.2240 H   0  0  0  0  0  0  0  0  0  0  0  0
    0.5116    0.7953    1.3358 C   0  0  0  0  0  0  0  0  0  0  0  0
    0.5765    1.8764    1.9107 O   0  0  0  0  0  0  0  0  0  0  0  0
    1.0934   -0.3041    1.9369 N   0  0  0  0  0  0  0  0  0  0  0  0
    0.7709   -1.2046    1.5724 H   0  0  0  0  0  0  0  0  0  0  0  0
    1.6360   -0.2734    3.2894 C   0  0  0  0  0  0  0  0  0  0  0  0
    0.8514   -0.0262    4.0119 H   0  0  0  0  0  0  0  0  0  0  0  0
    2.0536   -1.2507    3.5495 H   0  0  0  0  0  0  0  0  0  0  0  0
    2.4340    0.4724    3.3660 H   0  0  0  0  0  0  0  0  0  0  0  0
  1  2  1  0  0  0  0
  2  3  1  0  0  0  0
  2  4  1  0  0  0  0
  2  5  1  0  0  0  0
  5  6  2  0  0  0  0
  5  7  1  0  0  0  0
  7  8  1  0  0  0  0
  7  9  1  0  0  0  0
  9 10  1  0  0  0  0
  9 11  1  0  0  0  0
  9 22  1  0  0  0  0
 11 12  1  0  0  0  0
 11 13  1  0  0  0  0
 11 14  1  0  0  0  0
 14 15  1  0  0  0  0
 14 20  2  0  0  0  0
 15 16  1  0  0  0  0
 15 17  1  0  0  0  0
 17 18  1  0  0  0  0
 17 19  2  0  0  0  0
 19 20  1  0  0  0  0
 20 21  1  0  0  0  0
 22 23  2  0  0  0  0
 22 24  1  0  0  0  0
 24 25  1  0  0  0  0
 24 26  1  0  0  0  0
 26 27  1  0  0  0  0
 26 28  1  0  0  0  0
 26 29  1  0  0  0  0
M  END
$$$$

  -OEChem-01062216083D

 29 29  0     1  0  0  0  0  0999 V2000
   -3.2489   -2.5584    1.1646 H   0  0  0  0  0  0  0  0  0  0  0  0
   -3.1877   -1.6274    0.5938 C   0  0  0  0  0  0  0  0  0  0  0  0
   -3.7958   -0.8692    1.0932 H   0  0  0  0  0  0  0  0  0  0  0  0
   -3.5848   -1.8020   -0.4093 H   0  0  0  0  0  0  0  0  0  0  0  0
   -1.7465   -1.1621    0.5072 C   0  0  0  0  0  0  0  0  0  0  0  0
   -0.8506   -1.8702    0.9415 O   0  0  0  0  0  0  0  0  0  0  0  0
   -1.4430    0.0150   -0.1477 N   0  0  0  0  0  0  0  0  0  0  0  0
   -2.2320    0.5491   -0.4996 H   0  0  0  0  0  0  0  0  0  0  0  0
   -0.1342    0.6954   -0.0989 C   0  0  1  0  0  0  0  0  0  0  0  0
    0.5722    0.1232   -0.7081 H   0  0  0  0  0  0  0  0  0  0  0  0
   -0.2830    2.0947   -0.7265 C   0  0  0  0  0  0  0  0  0  0  0  0
   -1.0516    2.6599   -0.1878 H   0  0  0  0  0  0  0  0  0  0  0  0
    0.6567    2.6489   -0.6285 H   0  0  0  0  0  0  0  0  0  0  0  0
   -0.6434    1.9975   -2.1870 C   0  0  0  0  0  0  0  0  0  0  0  0
    0.1822    1.6561   -3.2355 N   0  0  0  0  0  0  0  0  0  0  0  0
    1.1657    1.4007   -3.1732 H   0  0  0  0  0  0  0  0  0  0  0  0
   -0.5497    1.7273   -4.4061 C   0  0  0  0  0  0  0  0  0  0  0  0
   -0.1654    1.5035   -5.3972 H   0  0  0  0  0  0  0  0  0  0  0  0
   -1.7791    2.1040   -4.1474 N   0  0  0  0  0  0  0  0  0  0  0  0
   -1.8464    2.2929   -2.7721 C   0  0  0  0  0  0  0  0  0  0  0  0
   -2.7304    2.6276   -2.2377 H   0  0  0  0  0  0  0  0  0  0  0  0
    0.4848    0.8026    1.3195 C   0  0  0  0  0  0  0  0  0  0  0  0
    0.3399    1.8210    1.9868 O   0  0  0  0  0  0  0  0  0  0  0  0
    1.3109   -0.1996    1.7914 N   0  0  0  0  0  0  0  0  0  0  0  0
    1.1261   -1.1139    1.3746 H   0  0  0  0  0  0  0  0  0  0  0  0
    1.8707   -0.1783    3.1373 C   0  0  0  0  0  0  0  0  0  0  0  0
    1.0706   -0.1868    3.8848 H   0  0  0  0  0  0  0  0  0  0  0  0
    2.5043   -1.0562    3.2958 H   0  0  0  0  0  0  0  0  0  0  0  0
    2.4823    0.7178    3.2853 H   0  0  0  0  0  0  0  0  0  0  0  0
  1  2  1  0  0  0  0
  2  3  1  0  0  0  0
  2  4  1  0  0  0  0
  2  5  1  0  0  0  0
  5  6  2  0  0  0  0
  5  7  1  0  0  0  0
  7  8  1  0  0  0  0
  7  9  1  0  0  0  0
  9 10  1  0  0  0  0
  9 11  1  0  0  0  0
  9 22  1  0  0  0  0
 11 12  1  0  0  0  0
 11 13  1  0  0  0  0
 11 14  1  0  0  0  0
 14 15  1  0  0  0  0
 14 20  2  0  0  0  0
 15 16  1  0  0  0  0
 15 17  1  0  0  0  0
 17 18  1  0  0  0  0
 17 19  2  0  0  0  0
 19 20  1  0  0  0  0
 20 21  1  0  0  0  0
 22 23  2  0  0  0  0
 22 24  1  0  0  0  0
 24 25  1  0  0  0  0
 24 26  1  0  0  0  0
 26 27  1  0  0  0  0
 26 28  1  0  0  0  0
 26 29  1  0  0  0  0
M  END
$$$$

  -OEChem-01062216083D

 29 29  0     1  0  0  0  0  0999 V2000
   -3.1718   -2.5578    1.2409 H   0  0  0  0  0  0  0  0  0  0  0  0
   -3.1404   -1.6265    0.6684 C   0  0  0  0  0  0  0  0  0  0  0  0
   -3.7196   -0.8678    1.2003 H   0  0  0  0  0  0  0  0  0  0  0  0
   -3.5907   -1.7995   -0.3119 H   0  0  0  0  0  0  0  0  0  0  0  0
   -1.7059   -1.1626    0.5045 C   0  0  0  0  0  0  0  0  0  0  0  0
   -0.7866   -1.8575    0.9116 O   0  0  0  0  0  0  0  0  0  0  0  0
   -1.4340    0.0086   -0.1742 N   0  0  0  0  0  0  0  0  0  0  0  0
   -2.2383    0.5568   -0.4636 H   0  0  0  0  0  0  0  0  0  0  0  0
   -0.1287    0.6915   -0.1291 C   0  0  1  0  0  0  0  0  0  0  0  0
    0.5811    0.1201   -0.7351 H   0  0  0  0  0  0  0  0  0  0  0  0
   -0.2726    2.0941   -0.7467 C   0  0  0  0  0  0  0  0  0  0  0  0
   -1.0411    2.6562   -0.2045 H   0  0  0  0  0  0  0  0  0  0  0  0
    0.6682    2.6451   -0.6428 H   0  0  0  0  0  0  0  0  0  0  0  0
   -0.6360    2.0080   -2.2071 C   0  0  0  0  0  0  0  0  0  0  0  0
    0.1850    1.6703   -3.2607 N   0  0  0  0  0  0  0  0  0  0  0  0
    1.1666    1.4072   -3.2030 H   0  0  0  0  0  0  0  0  0  0  0  0
   -0.5504    1.7519   -4.4286 C   0  0  0  0  0  0  0  0  0  0  0  0
   -0.1704    1.5341   -5.4228 H   0  0  0  0  0  0  0  0  0  0  0  0
   -1.7774    2.1317   -4.1635 N   0  0  0  0  0  0  0  0  0  0  0  0
   -1.8403    2.3092   -2.7863 C   0  0  0  0  0  0  0  0  0  0  0  0
   -2.7225    2.6397   -2.2465 H   0  0  0  0  0  0  0  0  0  0  0  0
    0.4659    0.8033    1.2963 C   0  0  0  0  0  0  0  0  0  0  0  0
    0.0900    1.6924    2.0522 O   0  0  0  0  0  0  0  0  0  0  0  0
    1.5132   -0.0161    1.6740 N   0  0  0  0  0  0  0  0  0  0  0  0
    1.5683   -0.8929    1.1586 H   0  0  0  0  0  0  0  0  0  0  0  0
    2.0637    0.0039    3.0237 C   0  0  0  0  0  0  0  0  0  0  0  0
    1.2962   -0.2722    3.7544 H   0  0  0  0  0  0  0  0  0  0  0  0
    2.8915   -0.7071    3.1036 H   0  0  0  0  0  0  0  0  0  0  0  0
    2.4426    1.0013    3.2700 H   0  0  0  0  0  0  0  0  0  0  0  0
  1  2  1  0  0  0  0
  2  3  1  0  0  0  0
  2  4  1  0  0  0  0
  2  5  1  0  0  0  0
  5  6  2  0  0  0  0
  5  7  1  0  0  0  0
  7  8  1  0  0  0  0
  7  9  1  0  0  0  0
  9 10  1  0  0  0  0
  9 11  1  0  0  0  0
  9 22  1  0  0  0  0
 11 12  1  0  0  0  0
 11 13  1  0  0  0  0
 11 14  1  0  0  0  0
 14 15  1  0  0  0  0
 14 20  2  0  0  0  0
 15 16  1  0  0  0  0
 15 17  1  0  0  0  0
 17 18  1  0  0  0  0
 17 19  2  0  0  0  0
 19 20  1  0  0  0  0
 20 21  1  0  0  0  0
 22 23  2  0  0  0  0
 22 24  1  0  0  0  0
 24 25  1  0  0  0  0
 24 26  1  0  0  0  0
 26 27  1  0  0  0  0
 26 28  1  0  0  0  0
 26 29  1  0  0  0  0
M  END
$$$$

  -OEChem-01062216083D

 29 29  0     1  0  0  0  0  0999 V2000
   -3.1475   -2.5480    1.2862 H   0  0  0  0  0  0  0  0  0  0  0  0
   -3.1248   -1.6233    0.7028 C   0  0  0  0  0  0  0  0  0  0  0  0
   -3.6886   -0.8560    1.2387 H   0  0  0  0  0  0  0  0  0  0  0  0
   -3.5970   -1.8049   -0.2655 H   0  0  0  0  0  0  0  0  0  0  0  0
   -1.6924   -1.1673    0.5021 C   0  0  0  0  0  0  0  0  0  0  0  0
   -0.7664   -1.8625    0.8931 O   0  0  0  0  0  0  0  0  0  0  0  0
   -1.4315   -0.0028   -0.1923 N   0  0  0  0  0  0  0  0  0  0  0  0
   -2.2412    0.5558   -0.4435 H   0  0  0  0  0  0  0  0  0  0  0  0
   -0.1269    0.6806   -0.1472 C   0  0  1  0  0  0  0  0  0  0  0  0
    0.5844    0.1072   -0.7491 H   0  0  0  0  0  0  0  0  0  0  0  0
   -0.2662    2.0861   -0.7556 C   0  0  0  0  0  0  0  0  0  0  0  0
   -1.0320    2.6473   -0.2084 H   0  0  0  0  0  0  0  0  0  0  0  0
    0.6766    2.6328   -0.6493 H   0  0  0  0  0  0  0  0  0  0  0  0
   -0.6313    2.0108   -2.2158 C   0  0  0  0  0  0  0  0  0  0  0  0
    0.1850    1.6774   -3.2745 N   0  0  0  0  0  0  0  0  0  0  0  0
    1.1656    1.4101   -3.2226 H   0  0  0  0  0  0  0  0  0  0  0  0
   -0.5548    1.7669   -4.4390 C   0  0  0  0  0  0  0  0  0  0  0  0
   -0.1797    1.5525   -5.4359 H   0  0  0  0  0  0  0  0  0  0  0  0
   -1.7795    2.1491   -4.1674 N   0  0  0  0  0  0  0  0  0  0  0  0
   -1.8371    2.3180   -2.7888 C   0  0  0  0  0  0  0  0  0  0  0  0
   -2.7165    2.6472   -2.2432 H   0  0  0  0  0  0  0  0  0  0  0  0
    0.4553    0.8037    1.2806 C   0  0  0  0  0  0  0  0  0  0  0  0
   -0.1024    1.5196    2.1053 O   0  0  0  0  0  0  0  0  0  0  0  0
    1.6757    0.2305    1.5874 N   0  0  0  0  0  0  0  0  0  0  0  0
    1.9703   -0.5249    0.9743 H   0  0  0  0  0  0  0  0  0  0  0  0
    2.2340    0.2682    2.9336 C   0  0  0  0  0  0  0  0  0  0  0  0
    1.5666   -0.2383    3.6388 H   0  0  0  0  0  0  0  0  0  0  0  0
    3.2062   -0.2333    2.9534 H   0  0  0  0  0  0  0  0  0  0  0  0
    2.3746    1.3033    3.2624 H   0  0  0  0  0  0  0  0  0  0  0  0
  1  2  1  0  0  0  0
  2  3  1  0  0  0  0
  2  4  1  0  0  0  0
  2  5  1  0  0  0  0
  5  6  2  0  0  0  0
  5  7  1  0  0  0  0
  7  8  1  0  0  0  0
  7  9  1  0  0  0  0
  9 10  1  0  0  0  0
  9 11  1  0  0  0  0
  9 22  1  0  0  0  0
 11 12  1  0  0  0  0
 11 13  1  0  0  0  0
 11 14  1  0  0  0  0
 14 15  1  0  0  0  0
 14 20  2  0  0  0  0
 15 16  1  0  0  0  0
 15 17  1  0  0  0  0
 17 18  1  0  0  0  0
 17 19  2  0  0  0  0
 19 20  1  0  0  0  0
 20 21  1  0  0  0  0
 22 23  2  0  0  0  0
 22 24  1  0  0  0  0
 24 25  1  0  0  0  0
 24 26  1  0  0  0  0
 26 27  1  0  0  0  0
 26 28  1  0  0  0  0
 26 29  1  0  0  0  0
M  END
$$$$

  -OEChem-01062216083D

 29 29  0     1  0  0  0  0  0999 V2000
   -3.1336   -2.5448    1.3166 H   0  0  0  0  0  0  0  0  0  0  0  0
   -3.1204   -1.6213    0.7314 C   0  0  0  0  0  0  0  0  0  0  0  0
   -3.6629   -0.8493    1.2825 H   0  0  0  0  0  0  0  0  0  0  0  0
   -3.6212   -1.8010   -0.2229 H   0  0  0  0  0  0  0  0  0  0  0  0
   -1.6902   -1.1770    0.4917 C   0  0  0  0  0  0  0  0  0  0  0  0
   -0.7603   -1.8813    0.8558 O   0  0  0  0  0  0  0  0  0  0  0  0
   -1.4361   -0.0150   -0.2099 N   0  0  0  0  0  0  0  0  0  0  0  0
   -2.2484    0.5538   -0.4270 H   0  0  0  0  0  0  0  0  0  0  0  0
   -0.1317    0.6689   -0.1568 C   0  0  1  0  0  0  0  0  0  0  0  0
    0.5824    0.0944   -0.7541 H   0  0  0  0  0  0  0  0  0  0  0  0
   -0.2680    2.0771   -0.7573 C   0  0  0  0  0  0  0  0  0  0  0  0
   -1.0352    2.6347   -0.2082 H   0  0  0  0  0  0  0  0  0  0  0  0
    0.6746    2.6233   -0.6453 H   0  0  0  0  0  0  0  0  0  0  0  0
   -0.6280    2.0106   -2.2192 C   0  0  0  0  0  0  0  0  0  0  0  0
    0.1916    1.6828   -3.2771 N   0  0  0  0  0  0  0  0  0  0  0  0
    1.1711    1.4119   -3.2236 H   0  0  0  0  0  0  0  0  0  0  0  0
   -0.5451    1.7786   -4.4431 C   0  0  0  0  0  0  0  0  0  0  0  0
   -0.1672    1.5685   -5.4397 H   0  0  0  0  0  0  0  0  0  0  0  0
   -1.7700    2.1615   -4.1733 N   0  0  0  0  0  0  0  0  0  0  0  0
   -1.8319    2.3220   -2.7940 C   0  0  0  0  0  0  0  0  0  0  0  0
   -2.7126    2.6489   -2.2495 H   0  0  0  0  0  0  0  0  0  0  0  0
    0.4417    0.7992    1.2737 C   0  0  0  0  0  0  0  0  0  0  0  0
   -0.2353    1.3237    2.1515 O   0  0  0  0  0  0  0  0  0  0  0  0
    1.7715    0.5107    1.5224 N   0  0  0  0  0  0  0  0  0  0  0  0
    2.2416   -0.0682    0.8327 H   0  0  0  0  0  0  0  0  0  0  0  0
    2.3491    0.5893    2.8587 C   0  0  0  0  0  0  0  0  0  0  0  0
    1.8329   -0.0964    3.5390 H   0  0  0  0  0  0  0  0  0  0  0  0
    3.4086    0.3172    2.8293 H   0  0  0  0  0  0  0  0  0  0  0  0
    2.2660    1.6073    3.2541 H   0  0  0  0  0  0  0  0  0  0  0  0
  1  2  1  0  0  0  0
  2  3  1  0  0  0  0
  2  4  1  0  0  0  0
  2  5  1  0  0  0  0
  5  6  2  0  0  0  0
  5  7  1  0  0  0  0
  7  8  1  0  0  0  0
  7  9  1  0  0  0  0
  9 10  1  0  0  0  0
  9 11  1  0  0  0  0
  9 22  1  0  0  0  0
 11 12  1  0  0  0  0
 11 13  1  0  0  0  0
 11 14  1  0  0  0  0
 14 15  1  0  0  0  0
 14 20  2  0  0  0  0
 15 16  1  0  0  0  0
 15 17  1  0  0  0  0
 17 18  1  0  0  0  0
 17 19  2  0  0  0  0
 19 20  1  0  0  0  0
 20 21  1  0  0  0  0
 22 23  2  0  0  0  0
 22 24  1  0  0  0  0
 24 25  1  0  0  0  0
 24 26  1  0  0  0  0
 26 27  1  0  0  0  0
 26 28  1  0  0  0  0
 26 29  1  0  0  0  0
M  END
$$$$

  -OEChem-01062216083D

 29 29  0     1  0  0  0  0  0999 V2000
   -3.1302   -2.5472    1.3341 H   0  0  0  0  0  0  0  0  0  0  0  0
   -3.1207   -1.6168    0.7595 C   0  0  0  0  0  0  0  0  0  0  0  0
   -3.6295   -0.8417    1.3379 H   0  0  0  0  0  0  0  0  0  0  0  0
   -3.6570   -1.7757   -0.1790 H   0  0  0  0  0  0  0  0  0  0  0  0
   -1.6920   -1.1945    0.4756 C   0  0  0  0  0  0  0  0  0  0  0  0
   -0.7620   -1.9179    0.8007 O   0  0  0  0  0  0  0  0  0  0  0  0
   -1.4409   -0.0323   -0.2274 N   0  0  0  0  0  0  0  0  0  0  0  0
   -2.2539    0.5474   -0.4089 H   0  0  0  0  0  0  0  0  0  0  0  0
   -0.1359    0.6508   -0.1609 C   0  0  1  0  0  0  0  0  0  0  0  0
    0.5835    0.0768   -0.7527 H   0  0  0  0  0  0  0  0  0  0  0  0
   -0.2729    2.0614   -0.7555 C   0  0  0  0  0  0  0  0  0  0  0  0
   -1.0443    2.6129   -0.2066 H   0  0  0  0  0  0  0  0  0  0  0  0
    0.6667    2.6110   -0.6367 H   0  0  0  0  0  0  0  0  0  0  0  0
   -0.6242    2.0050   -2.2197 C   0  0  0  0  0  0  0  0  0  0  0  0
    0.2016    1.6869   -3.2758 N   0  0  0  0  0  0  0  0  0  0  0  0
    1.1788    1.4087   -3.2191 H   0  0  0  0  0  0  0  0  0  0  0  0
   -0.5270    1.7971   -4.4457 C   0  0  0  0  0  0  0  0  0  0  0  0
   -0.1434    1.5963   -5.4420 H   0  0  0  0  0  0  0  0  0  0  0  0
   -1.7527    2.1801   -4.1800 N   0  0  0  0  0  0  0  0  0  0  0  0
   -1.8239    2.3242   -2.7995 C   0  0  0  0  0  0  0  0  0  0  0  0
   -2.7081    2.6469   -2.2581 H   0  0  0  0  0  0  0  0  0  0  0  0
    0.4298    0.7846    1.2734 C   0  0  0  0  0  0  0  0  0  0  0  0
   -0.3149    1.1086    2.1926 O   0  0  0  0  0  0  0  0  0  0  0  0
    1.7976    0.8012    1.4820 N   0  0  0  0  0  0  0  0  0  0  0  0
    2.3780    0.4295    0.7363 H   0  0  0  0  0  0  0  0  0  0  0  0
    2.3866    0.9486    2.8078 C   0  0  0  0  0  0  0  0  0  0  0  0
    2.0557    0.1378    3.4655 H   0  0  0  0  0  0  0  0  0  0  0  0
    3.4783    0.9187    2.7422 H   0  0  0  0  0  0  0  0  0  0  0  0
    2.0948    1.9052    3.2539 H   0  0  0  0  0  0  0  0  0  0  0  0
  1  2  1  0  0  0  0
  2  3  1  0  0  0  0
  2  4  1  0  0  0  0
  2  5  1  0  0  0  0
  5  6  2  0  0  0  0
  5  7  1  0  0  0  0
  7  8  1  0  0  0  0
  7  9  1  0  0  0  0
  9 10  1  0  0  0  0
  9 11  1  0  0  0  0
  9 22  1  0  0  0  0
 11 12  1  0  0  0  0
 11 13  1  0  0  0  0
 11 14  1  0  0  0  0
 14 15  1  0  0  0  0
 14 20  2  0  0  0  0
 15 16  1  0  0  0  0
 15 17  1  0  0  0  0
 17 18  1  0  0  0  0
 17 19  2  0  0  0  0
 19 20  1  0  0  0  0
 20 21  1  0  0  0  0
 22 23  2  0  0  0  0
 22 24  1  0  0  0  0
 24 25  1  0  0  0  0
 24 26  1  0  0  0  0
 26 27  1  0  0  0  0
 26 28  1  0  0  0  0
 26 29  1  0  0  0  0
M  END
$$$$

  -OEChem-01062216083D

 29 29  0     1  0  0  0  0  0999 V2000
   -3.1373   -2.5468    1.3338 H   0  0  0  0  0  0  0  0  0  0  0  0
   -3.1264   -1.6105    0.7690 C   0  0  0  0  0  0  0  0  0  0  0  0
   -3.6085   -0.8342    1.3681 H   0  0  0  0  0  0  0  0  0  0  0  0
   -3.6873   -1.7502   -0.1579 H   0  0  0  0  0  0  0  0  0  0  0  0
   -1.6982   -1.2078    0.4566 C   0  0  0  0  0  0  0  0  0  0  0  0
   -0.7735   -1.9552    0.7396 O   0  0  0  0  0  0  0  0  0  0  0  0
   -1.4437   -0.0412   -0.2386 N   0  0  0  0  0  0  0  0  0  0  0  0
   -2.2545    0.5485   -0.3945 H   0  0  0  0  0  0  0  0  0  0  0  0
   -0.1363    0.6374   -0.1567 C   0  0  1  0  0  0  0  0  0  0  0  0
    0.5861    0.0659   -0.7471 H   0  0  0  0  0  0  0  0  0  0  0  0
   -0.2764    2.0509   -0.7470 C   0  0  0  0  0  0  0  0  0  0  0  0
   -1.0524    2.5971   -0.1990 H   0  0  0  0  0  0  0  0  0  0  0  0
    0.6593    2.6057   -0.6247 H   0  0  0  0  0  0  0  0  0  0  0  0
   -0.6199    1.9999   -2.2136 C   0  0  0  0  0  0  0  0  0  0  0  0
    0.2104    1.6906   -3.2690 N   0  0  0  0  0  0  0  0  0  0  0  0
    1.1862    1.4082   -3.2104 H   0  0  0  0  0  0  0  0  0  0  0  0
   -0.5148    1.8034   -4.4409 C   0  0  0  0  0  0  0  0  0  0  0  0
   -0.1274    1.6081   -5.4370 H   0  0  0  0  0  0  0  0  0  0  0  0
   -1.7420    2.1824   -4.1773 N   0  0  0  0  0  0  0  0  0  0  0  0
   -1.8187    2.3180   -2.7962 C   0  0  0  0  0  0  0  0  0  0  0  0
   -2.7058    2.6351   -2.2559 H   0  0  0  0  0  0  0  0  0  0  0  0
    0.4305    0.7671    1.2801 C   0  0  0  0  0  0  0  0  0  0  0  0
   -0.3325    0.8833    2.2335 O   0  0  0  0  0  0  0  0  0  0  0  0
    1.7641    1.0890    1.4677 N   0  0  0  0  0  0  0  0  0  0  0  0
    2.3903    0.9414    0.6825 H   0  0  0  0  0  0  0  0  0  0  0  0
    2.3450    1.3143    2.7865 C   0  0  0  0  0  0  0  0  0  0  0  0
    2.2197    0.4270    3.4162 H   0  0  0  0  0  0  0  0  0  0  0  0
    3.4144    1.5284    2.6975 H   0  0  0  0  0  0  0  0  0  0  0  0
    1.8629    2.1659    3.2782 H   0  0  0  0  0  0  0  0  0  0  0  0
  1  2  1  0  0  0  0
  2  3  1  0  0  0  0
  2  4  1  0  0  0  0
  2  5  1  0  0  0  0
  5  6  2  0  0  0  0
  5  7  1  0  0  0  0
  7  8  1  0  0  0  0
  7  9  1  0  0  0  0
  9 10  1  0  0  0  0
  9 11  1  0  0  0  0
  9 22  1  0  0  0  0
 11 12  1  0  0  0  0
 11 13  1  0  0  0  0
 11 14  1  0  0  0  0
 14 15  1  0  0  0  0
 14 20  2  0  0  0  0
 15 16  1  0  0  0  0
 15 17  1  0  0  0  0
 17 18  1  0  0  0  0
 17 19  2  0  0  0  0
 19 20  1  0  0  0  0
 20 21  1  0  0  0  0
 22 23  2  0  0  0  0
 22 24  1  0  0  0  0
 24 25  1  0  0  0  0
 24 26  1  0  0  0  0
 26 27  1  0  0  0  0
 26 28  1  0  0  0  0
 26 29  1  0  0  0  0
M  END
$$$$

  -OEChem-01062216083D

 29 29  0     1  0  0  0  0  0999 V2000
   -3.2427   -2.5541    1.1863 H   0  0  0  0  0  0  0  0  0  0  0  0
   -3.1796   -1.5684    0.7170 C   0  0  0  0  0  0  0  0  0  0  0  0
   -3.5639   -0.8223    1.4165 H   0  0  0  0  0  0  0  0  0  0  0  0
   -3.7945   -1.5664   -0.1859 H   0  0  0  0  0  0  0  0  0  0  0  0
   -1.7386   -1.2507    0.3662 C   0  0  0  0  0  0  0  0  0  0  0  0
   -0.8761   -2.1068    0.4889 O   0  0  0  0  0  0  0  0  0  0  0  0
   -1.4276   -0.0647   -0.2715 N   0  0  0  0  0  0  0  0  0  0  0  0
   -2.2227    0.5486   -0.4149 H   0  0  0  0  0  0  0  0  0  0  0  0
   -0.1156    0.6066   -0.1441 C   0  0  1  0  0  0  0  0  0  0  0  0
    0.5357    0.2256   -0.9361 H   0  0  0  0  0  0  0  0  0  0  0  0
   -0.3601    2.1138   -0.3577 C   0  0  0  0  0  0  0  0  0  0  0  0
   -1.0880    2.4693    0.3801 H   0  0  0  0  0  0  0  0  0  0  0  0
    0.5624    2.6809   -0.2006 H   0  0  0  0  0  0  0  0  0  0  0  0
   -0.8556    2.3975   -1.7529 C   0  0  0  0  0  0  0  0  0  0  0  0
   -0.1327    2.3955   -2.9263 N   0  0  0  0  0  0  0  0  0  0  0  0
    0.8521    2.1624   -3.0321 H   0  0  0  0  0  0  0  0  0  0  0  0
   -0.9793    2.7518   -3.9599 C   0  0  0  0  0  0  0  0  0  0  0  0
   -0.6932    2.8257   -5.0055 H   0  0  0  0  0  0  0  0  0  0  0  0
   -2.1820    2.9904   -3.4951 N   0  0  0  0  0  0  0  0  0  0  0  0
   -2.1167    2.7857   -2.1225 C   0  0  0  0  0  0  0  0  0  0  0  0
   -2.9501    2.9180   -1.4390 H   0  0  0  0  0  0  0  0  0  0  0  0
    0.6523    0.4209    1.1974 C   0  0  0  0  0  0  0  0  0  0  0  0
    0.0505    0.1490    2.2303 O   0  0  0  0  0  0  0  0  0  0  0  0
    1.8898    1.0261    1.3567 N   0  0  0  0  0  0  0  0  0  0  0  0
    2.3947    1.2804    0.5139 H   0  0  0  0  0  0  0  0  0  0  0  0
    2.5977    1.0783    2.6319 C   0  0  0  0  0  0  0  0  0  0  0  0
    2.7436    0.0686    3.0308 H   0  0  0  0  0  0  0  0  0  0  0  0
    3.5795    1.5436    2.5015 H   0  0  0  0  0  0  0  0  0  0  0  0
    2.0313    1.6667    3.3615 H   0  0  0  0  0  0  0  0  0  0  0  0
  1  2  1  0  0  0  0
  2  3  1  0  0  0  0
  2  4  1  0  0  0  0
  2  5  1  0  0  0  0
  5  6  2  0  0  0  0
  5  7  1  0  0  0  0
  7  8  1  0  0  0  0
  7  9  1  0  0  0  0
  9 10  1  0  0  0  0
  9 11  1  0  0  0  0
  9 22  1  0  0  0  0
 11 12  1  0  0  0  0
 11 13  1  0  0  0  0
 11 14  1  0  0  0  0
 14 15  1  0  0  0  0
 14 20  2  0  0  0  0
 15 16  1  0  0  0  0
 15 17  1  0  0  0  0
 17 18  1  0  0  0  0
 17 19  2  0  0  0  0
 19 20  1  0  0  0  0
 20 21  1  0  0  0  0
 22 23  2  0  0  0  0
 22 24  1  0  0  0  0
 24 25  1  0  0  0  0
 24 26  1  0  0  0  0
 26 27  1  0  0  0  0
 26 28  1  0  0  0  0
 26 29  1  0  0  0  0
M  END
$$$$

  -OEChem-01062216083D

 29 29  0     1  0  0  0  0  0999 V2000
   -3.2352   -2.5492    1.1750 H   0  0  0  0  0  0  0  0  0  0  0  0
   -3.1693   -1.5488    0.7380 C   0  0  0  0  0  0  0  0  0  0  0  0
   -3.5068   -0.8203    1.4788 H   0  0  0  0  0  0  0  0  0  0  0  0
   -3.8204   -1.5013   -0.1379 H   0  0  0  0  0  0  0  0  0  0  0  0
   -1.7368   -1.2506    0.3389 C   0  0  0  0  0  0  0  0  0  0  0  0
   -0.8996   -2.1389    0.3608 O   0  0  0  0  0  0  0  0  0  0  0  0
   -1.4226   -0.0494   -0.2672 N   0  0  0  0  0  0  0  0  0  0  0  0
   -2.2192    0.5682   -0.3786 H   0  0  0  0  0  0  0  0  0  0  0  0
   -0.1134    0.6290   -0.1274 C   0  0  1  0  0  0  0  0  0  0  0  0
    0.5383    0.2560   -0.9232 H   0  0  0  0  0  0  0  0  0  0  0  0
   -0.3846    2.1325   -0.3576 C   0  0  0  0  0  0  0  0  0  0  0  0
   -1.1248    2.4818    0.3708 H   0  0  0  0  0  0  0  0  0  0  0  0
    0.5221    2.7247   -0.2070 H   0  0  0  0  0  0  0  0  0  0  0  0
   -0.8706    2.3926   -1.7609 C   0  0  0  0  0  0  0  0  0  0  0  0
   -0.1331    2.3920   -2.9253 N   0  0  0  0  0  0  0  0  0  0  0  0
    0.8542    2.1635   -3.0189 H   0  0  0  0  0  0  0  0  0  0  0  0
   -0.9726    2.7242   -3.9726 C   0  0  0  0  0  0  0  0  0  0  0  0
   -0.6749    2.7901   -5.0153 H   0  0  0  0  0  0  0  0  0  0  0  0
   -2.1840    2.9503   -3.5248 N   0  0  0  0  0  0  0  0  0  0  0  0
   -2.1329    2.7581   -2.1498 C   0  0  0  0  0  0  0  0  0  0  0  0
   -2.9769    2.8849   -1.4784 H   0  0  0  0  0  0  0  0  0  0  0  0
    0.6823    0.4366    1.2046 C   0  0  0  0  0  0  0  0  0  0  0  0
    0.1910   -0.1230    2.1764 O   0  0  0  0  0  0  0  0  0  0  0  0
    1.7448    1.2817    1.4933 N   0  0  0  0  0  0  0  0  0  0  0  0
    2.1579    1.7915    0.7193 H   0  0  0  0  0  0  0  0  0  0  0  0
    2.4210    1.3195    2.7869 C   0  0  0  0  0  0  0  0  0  0  0  0
    2.7909    0.3242    3.0559 H   0  0  0  0  0  0  0  0  0  0  0  0
    3.2728    2.0049    2.7482 H   0  0  0  0  0  0  0  0  0  0  0  0
    1.7353    1.6642    3.5682 H   0  0  0  0  0  0  0  0  0  0  0  0
  1  2  1  0  0  0  0
  2  3  1  0  0  0  0
  2  4  1  0  0  0  0
  2  5  1  0  0  0  0
  5  6  2  0  0  0  0
  5  7  1  0  0  0  0
  7  8  1  0  0  0  0
  7  9  1  0  0  0  0
  9 10  1  0  0  0  0
  9 11  1  0  0  0  0
  9 22  1  0  0  0  0
 11 12  1  0  0  0  0
 11 13  1  0  0  0  0
 11 14  1  0  0  0  0
 14 15  1  0  0  0  0
 14 20  2  0  0  0  0
 15 16  1  0  0  0  0
 15 17  1  0  0  0  0
 17 18  1  0  0  0  0
 17 19  2  0  0  0  0
 19 20  1  0  0  0  0
 20 21  1  0  0  0  0
 22 23  2  0  0  0  0
 22 24  1  0  0  0  0
 24 25  1  0  0  0  0
 24 26  1  0  0  0  0
 26 27  1  0  0  0  0
 26 28  1  0  0  0  0
 26 29  1  0  0  0  0
M  END
$$$$

  -OEChem-01062216083D

 29 29  0     1  0  0  0  0  0999 V2000
   -3.2213   -2.5234    1.2050 H   0  0  0  0  0  0  0  0  0  0  0  0
   -3.1565   -1.5268    0.7596 C   0  0  0  0  0  0  0  0  0  0  0  0
   -3.4713   -0.7908    1.5030 H   0  0  0  0  0  0  0  0  0  0  0  0
   -3.8265   -1.4792   -0.1020 H   0  0  0  0  0  0  0  0  0  0  0  0
   -1.7309   -1.2455    0.3256 C   0  0  0  0  0  0  0  0  0  0  0  0
   -0.9279   -2.1612    0.2575 O   0  0  0  0  0  0  0  0  0  0  0  0
   -1.4159   -0.0326   -0.2553 N   0  0  0  0  0  0  0  0  0  0  0  0
   -2.2188    0.5781   -0.3571 H   0  0  0  0  0  0  0  0  0  0  0  0
   -0.1189    0.6692   -0.1065 C   0  0  1  0  0  0  0  0  0  0  0  0
    0.5407    0.3012   -0.8982 H   0  0  0  0  0  0  0  0  0  0  0  0
   -0.4160    2.1639   -0.3673 C   0  0  0  0  0  0  0  0  0  0  0  0
   -1.1697    2.5150    0.3461 H   0  0  0  0  0  0  0  0  0  0  0  0
    0.4790    2.7754   -0.2264 H   0  0  0  0  0  0  0  0  0  0  0  0
   -0.8864    2.3903   -1.7816 C   0  0  0  0  0  0  0  0  0  0  0  0
   -0.1340    2.3843   -2.9364 N   0  0  0  0  0  0  0  0  0  0  0  0
    0.8559    2.1608   -3.0154 H   0  0  0  0  0  0  0  0  0  0  0  0
   -0.9657    2.6851   -3.9994 C   0  0  0  0  0  0  0  0  0  0  0  0
   -0.6572    2.7365   -5.0399 H   0  0  0  0  0  0  0  0  0  0  0  0
   -2.1856    2.9015   -3.5697 N   0  0  0  0  0  0  0  0  0  0  0  0
   -2.1486    2.7316   -2.1917 C   0  0  0  0  0  0  0  0  0  0  0  0
   -3.0020    2.8576   -1.5321 H   0  0  0  0  0  0  0  0  0  0  0  0
    0.6930    0.4854    1.2220 C   0  0  0  0  0  0  0  0  0  0  0  0
    0.4434   -0.3834    2.0439 O   0  0  0  0  0  0  0  0  0  0  0  0
    1.5191    1.5018    1.6840 N   0  0  0  0  0  0  0  0  0  0  0  0
    1.7442    2.2527    1.0406 H   0  0  0  0  0  0  0  0  0  0  0  0
    2.1996    1.4718    2.9758 C   0  0  0  0  0  0  0  0  0  0  0  0
    2.8450    0.5900    3.0491 H   0  0  0  0  0  0  0  0  0  0  0  0
    2.8198    2.3651    3.0972 H   0  0  0  0  0  0  0  0  0  0  0  0
    1.4713    1.4443    3.7933 H   0  0  0  0  0  0  0  0  0  0  0  0
  1  2  1  0  0  0  0
  2  3  1  0  0  0  0
  2  4  1  0  0  0  0
  2  5  1  0  0  0  0
  5  6  2  0  0  0  0
  5  7  1  0  0  0  0
  7  8  1  0  0  0  0
  7  9  1  0  0  0  0
  9 10  1  0  0  0  0
  9 11  1  0  0  0  0
  9 22  1  0  0  0  0
 11 12  1  0  0  0  0
 11 13  1  0  0  0  0
 11 14  1  0  0  0  0
 14 15  1  0  0  0  0
 14 20  2  0  0  0  0
 15 16  1  0  0  0  0
 15 17  1  0  0  0  0
 17 18  1  0  0  0  0
 17 19  2  0  0  0  0
 19 20  1  0  0  0  0
 20 21  1  0  0  0  0
 22 23  2  0  0  0  0
 22 24  1  0  0  0  0
 24 25  1  0  0  0  0
 24 26  1  0  0  0  0
 26 27  1  0  0  0  0
 26 28  1  0  0  0  0
 26 29  1  0  0  0  0
M  END
$$$$

  -OEChem-01062216083D

 29 29  0     1  0  0  0  0  0999 V2000
   -3.4535   -2.5842    0.7227 H   0  0  0  0  0  0  0  0  0  0  0  0
   -3.2456   -1.6765    0.1489 C   0  0  0  0  0  0  0  0  0  0  0  0
   -4.1164   -1.0188    0.2022 H   0  0  0  0  0  0  0  0  0  0  0  0
   -3.0680   -1.9544   -0.8926 H   0  0  0  0  0  0  0  0  0  0  0  0
   -2.0266   -0.9705    0.7132 C   0  0  0  0  0  0  0  0  0  0  0  0
   -1.5821   -1.3435    1.7805 O   0  0  0  0  0  0  0  0  0  0  0  0
   -1.5698    0.1659    0.0706 N   0  0  0  0  0  0  0  0  0  0  0  0
   -2.0959    0.3821   -0.7715 H   0  0  0  0  0  0  0  0  0  0  0  0
   -0.2201    0.7789    0.1161 C   0  0  1  0  0  0  0  0  0  0  0  0
    0.3762    0.3109   -0.6736 H   0  0  0  0  0  0  0  0  0  0  0  0
   -0.4221    2.2635   -0.2513 C   0  0  0  0  0  0  0  0  0  0  0  0
   -1.1242    2.7235    0.4531 H   0  0  0  0  0  0  0  0  0  0  0  0
    0.5234    2.8111   -0.1918 H   0  0  0  0  0  0  0  0  0  0  0  0
   -0.9337    2.3962   -1.6632 C   0  0  0  0  0  0  0  0  0  0  0  0
   -0.2244    2.2351   -2.8336 N   0  0  0  0  0  0  0  0  0  0  0  0
    0.7586    1.9816   -2.9174 H   0  0  0  0  0  0  0  0  0  0  0  0
   -1.0767    2.4754   -3.8953 C   0  0  0  0  0  0  0  0  0  0  0  0
   -0.8019    2.4141   -4.9447 H   0  0  0  0  0  0  0  0  0  0  0  0
   -2.2709    2.7859   -3.4503 N   0  0  0  0  0  0  0  0  0  0  0  0
   -2.1925    2.7605   -2.0633 C   0  0  0  0  0  0  0  0  0  0  0  0
   -3.0156    2.9896   -1.3928 H   0  0  0  0  0  0  0  0  0  0  0  0
    0.6457    0.6165    1.4016 C   0  0  0  0  0  0  0  0  0  0  0  0
    1.1355   -0.4787    1.6404 O   0  0  0  0  0  0  0  0  0  0  0  0
    1.3245    1.6933    1.9571 N   0  0  0  0  0  0  0  0  0  0  0  0
    0.9529    2.6184    1.7705 H   0  0  0  0  0  0  0  0  0  0  0  0
    2.3198    1.5526    3.0160 C   0  0  0  0  0  0  0  0  0  0  0  0
    3.1797    0.9750    2.6608 H   0  0  0  0  0  0  0  0  0  0  0  0
    2.6750    2.5371    3.3347 H   0  0  0  0  0  0  0  0  0  0  0  0
    1.8873    1.0424    3.8834 H   0  0  0  0  0  0  0  0  0  0  0  0
  1  2  1  0  0  0  0
  2  3  1  0  0  0  0
  2  4  1  0  0  0  0
  2  5  1  0  0  0  0
  5  6  2  0  0  0  0
  5  7  1  0  0  0  0
  7  8  1  0  0  0  0
  7  9  1  0  0  0  0
  9 10  1  0  0  0  0
  9 11  1  0  0  0  0
  9 22  1  0  0  0  0
 11 12  1  0  0  0  0
 11 13  1  0  0  0  0
 11 14  1  0  0  0  0
 14 15  1  0  0  0  0
 14 20  2  0  0  0  0
 15 16  1  0  0  0  0
 15 17  1  0  0  0  0
 17 18  1  0  0  0  0
 17 19  2  0  0  0  0
 19 20  1  0  0  0  0
 20 21  1  0  0  0  0
 22 23  2  0  0  0  0
 22 24  1  0  0  0  0
 24 25  1  0  0  0  0
 24 26  1  0  0  0  0
 26 27  1  0  0  0  0
 26 28  1  0  0  0  0
 26 29  1  0  0  0  0
M  END
$$$$

  -OEChem-01062216083D

 29 29  0     1  0  0  0  0  0999 V2000
   -3.4615   -2.5653    0.7969 H   0  0  0  0  0  0  0  0  0  0  0  0
   -3.2529   -1.6769    0.1941 C   0  0  0  0  0  0  0  0  0  0  0  0
   -4.1051   -0.9968    0.2624 H   0  0  0  0  0  0  0  0  0  0  0  0
   -3.1202   -1.9827   -0.8462 H   0  0  0  0  0  0  0  0  0  0  0  0
   -1.9971   -0.9888    0.6958 C   0  0  0  0  0  0  0  0  0  0  0  0
   -1.4712   -1.4002    1.7114 O   0  0  0  0  0  0  0  0  0  0  0  0
   -1.5656    0.1529    0.0455 N   0  0  0  0  0  0  0  0  0  0  0  0
   -2.1162    0.3832   -0.7770 H   0  0  0  0  0  0  0  0  0  0  0  0
   -0.2214    0.7741    0.0848 C   0  0  1  0  0  0  0  0  0  0  0  0
    0.3754    0.3079   -0.7061 H   0  0  0  0  0  0  0  0  0  0  0  0
   -0.4102    2.2608   -0.2744 C   0  0  0  0  0  0  0  0  0  0  0  0
   -1.1093    2.7240    0.4303 H   0  0  0  0  0  0  0  0  0  0  0  0
    0.5434    2.7947   -0.2045 H   0  0  0  0  0  0  0  0  0  0  0  0
   -0.9232    2.4039   -1.6843 C   0  0  0  0  0  0  0  0  0  0  0  0
   -0.2172    2.2412   -2.8561 N   0  0  0  0  0  0  0  0  0  0  0  0
    0.7632    1.9781   -2.9418 H   0  0  0  0  0  0  0  0  0  0  0  0
   -1.0690    2.4930   -3.9155 C   0  0  0  0  0  0  0  0  0  0  0  0
   -0.7964    2.4327   -4.9655 H   0  0  0  0  0  0  0  0  0  0  0  0
   -2.2596    2.8132   -3.4677 N   0  0  0  0  0  0  0  0  0  0  0  0
   -2.1790    2.7815   -2.0811 C   0  0  0  0  0  0  0  0  0  0  0  0
   -2.9988    3.0158   -1.4084 H   0  0  0  0  0  0  0  0  0  0  0  0
    0.6322    0.6046    1.3742 C   0  0  0  0  0  0  0  0  0  0  0  0
    1.2945   -0.4175    1.4974 O   0  0  0  0  0  0  0  0  0  0  0  0
    1.0528    1.6983    2.1182 N   0  0  0  0  0  0  0  0  0  0  0  0
    0.4972    2.5438    2.0441 H   0  0  0  0  0  0  0  0  0  0  0  0
    1.9913    1.5861    3.2304 C   0  0  0  0  0  0  0  0  0  0  0  0
    2.9644    1.2288    2.8772 H   0  0  0  0  0  0  0  0  0  0  0  0
    2.1348    2.5615    3.7050 H   0  0  0  0  0  0  0  0  0  0  0  0
    1.6118    0.8863    3.9827 H   0  0  0  0  0  0  0  0  0  0  0  0
  1  2  1  0  0  0  0
  2  3  1  0  0  0  0
  2  4  1  0  0  0  0
  2  5  1  0  0  0  0
  5  6  2  0  0  0  0
  5  7  1  0  0  0  0
  7  8  1  0  0  0  0
  7  9  1  0  0  0  0
  9 10  1  0  0  0  0
  9 11  1  0  0  0  0
  9 22  1  0  0  0  0
 11 12  1  0  0  0  0
 11 13  1  0  0  0  0
 11 14  1  0  0  0  0
 14 15  1  0  0  0  0
 14 20  2  0  0  0  0
 15 16  1  0  0  0  0
 15 17  1  0  0  0  0
 17 18  1  0  0  0  0
 17 19  2  0  0  0  0
 19 20  1  0  0  0  0
 20 21  1  0  0  0  0
 22 23  2  0  0  0  0
 22 24  1  0  0  0  0
 24 25  1  0  0  0  0
 24 26  1  0  0  0  0
 26 27  1  0  0  0  0
 26 28  1  0  0  0  0
 26 29  1  0  0  0  0
M  END
$$$$

  -OEChem-01062216083D

 29 29  0     1  0  0  0  0  0999 V2000
   -3.4279   -2.5982    0.8141 H   0  0  0  0  0  0  0  0  0  0  0  0
   -3.2637   -1.6823    0.2391 C   0  0  0  0  0  0  0  0  0  0  0  0
   -4.1063   -1.0070    0.4040 H   0  0  0  0  0  0  0  0  0  0  0  0
   -3.2116   -1.9391   -0.8216 H   0  0  0  0  0  0  0  0  0  0  0  0
   -1.9722   -1.0164    0.6760 C   0  0  0  0  0  0  0  0  0  0  0  0
   -1.3757   -1.4660    1.6354 O   0  0  0  0  0  0  0  0  0  0  0  0
   -1.5605    0.1298    0.0203 N   0  0  0  0  0  0  0  0  0  0  0  0
   -2.1378    0.3835   -0.7767 H   0  0  0  0  0  0  0  0  0  0  0  0
   -0.2220    0.7607    0.0585 C   0  0  1  0  0  0  0  0  0  0  0  0
    0.3760    0.2972   -0.7333 H   0  0  0  0  0  0  0  0  0  0  0  0
   -0.4007    2.2497   -0.2904 C   0  0  0  0  0  0  0  0  0  0  0  0
   -1.1006    2.7127    0.4134 H   0  0  0  0  0  0  0  0  0  0  0  0
    0.5573    2.7744   -0.2060 H   0  0  0  0  0  0  0  0  0  0  0  0
   -0.9115    2.4082   -1.6992 C   0  0  0  0  0  0  0  0  0  0  0  0
   -0.2037    2.2499   -2.8704 N   0  0  0  0  0  0  0  0  0  0  0  0
    0.7757    1.9823   -2.9551 H   0  0  0  0  0  0  0  0  0  0  0  0
   -1.0494    2.5210   -3.9297 C   0  0  0  0  0  0  0  0  0  0  0  0
   -0.7728    2.4704   -4.9791 H   0  0  0  0  0  0  0  0  0  0  0  0
   -2.2390    2.8467   -3.4826 N   0  0  0  0  0  0  0  0  0  0  0  0
   -2.1626    2.8006   -2.0962 C   0  0  0  0  0  0  0  0  0  0  0  0
   -2.9819    3.0374   -1.4240 H   0  0  0  0  0  0  0  0  0  0  0  0
    0.6237    0.5932    1.3503 C   0  0  0  0  0  0  0  0  0  0  0  0
    1.4515   -0.3083    1.3887 O   0  0  0  0  0  0  0  0  0  0  0  0
    0.7760    1.6325    2.2562 N   0  0  0  0  0  0  0  0  0  0  0  0
    0.0500    2.3412    2.2603 H   0  0  0  0  0  0  0  0  0  0  0  0
    1.6555    1.5411    3.4165 C   0  0  0  0  0  0  0  0  0  0  0  0
    2.6965    1.4146    3.1006 H   0  0  0  0  0  0  0  0  0  0  0  0
    1.5872    2.4535    4.0165 H   0  0  0  0  0  0  0  0  0  0  0  0
    1.3722    0.6897    4.0447 H   0  0  0  0  0  0  0  0  0  0  0  0
  1  2  1  0  0  0  0
  2  3  1  0  0  0  0
  2  4  1  0  0  0  0
  2  5  1  0  0  0  0
  5  6  2  0  0  0  0
  5  7  1  0  0  0  0
  7  8  1  0  0  0  0
  7  9  1  0  0  0  0
  9 10  1  0  0  0  0
  9 11  1  0  0  0  0
  9 22  1  0  0  0  0
 11 12  1  0  0  0  0
 11 13  1  0  0  0  0
 11 14  1  0  0  0  0
 14 15  1  0  0  0  0
 14 20  2  0  0  0  0
 15 16  1  0  0  0  0
 15 17  1  0  0  0  0
 17 18  1  0  0  0  0
 17 19  2  0  0  0  0
 19 20  1  0  0  0  0
 20 21  1  0  0  0  0
 22 23  2  0  0  0  0
 22 24  1  0  0  0  0
 24 25  1  0  0  0  0
 24 26  1  0  0  0  0
 26 27  1  0  0  0  0
 26 28  1  0  0  0  0
 26 29  1  0  0  0  0
M  END
$$$$

  -OEChem-01062216083D

 29 29  0     1  0  0  0  0  0999 V2000
   -3.4001   -2.6237    0.7999 H   0  0  0  0  0  0  0  0  0  0  0  0
   -3.2715   -1.6769    0.2675 C   0  0  0  0  0  0  0  0  0  0  0  0
   -4.0990   -1.0118    0.5259 H   0  0  0  0  0  0  0  0  0  0  0  0
   -3.2920   -1.8741   -0.8070 H   0  0  0  0  0  0  0  0  0  0  0  0
   -1.9513   -1.0364    0.6540 C   0  0  0  0  0  0  0  0  0  0  0  0
   -1.3058   -1.5184    1.5653 O   0  0  0  0  0  0  0  0  0  0  0  0
   -1.5488    0.1112   -0.0044 N   0  0  0  0  0  0  0  0  0  0  0  0
   -2.1432    0.3829   -0.7829 H   0  0  0  0  0  0  0  0  0  0  0  0
   -0.2143    0.7490    0.0356 C   0  0  1  0  0  0  0  0  0  0  0  0
    0.3868    0.2907   -0.7569 H   0  0  0  0  0  0  0  0  0  0  0  0
   -0.3879    2.2412   -0.2977 C   0  0  0  0  0  0  0  0  0  0  0  0
   -1.0865    2.7008    0.4093 H   0  0  0  0  0  0  0  0  0  0  0  0
    0.5723    2.7605   -0.2034 H   0  0  0  0  0  0  0  0  0  0  0  0
   -0.8993    2.4118   -1.7047 C   0  0  0  0  0  0  0  0  0  0  0  0
   -0.1935    2.2609   -2.8781 N   0  0  0  0  0  0  0  0  0  0  0  0
    0.7859    1.9939   -2.9659 H   0  0  0  0  0  0  0  0  0  0  0  0
   -1.0416    2.5374   -3.9343 C   0  0  0  0  0  0  0  0  0  0  0  0
   -0.7673    2.4937   -4.9848 H   0  0  0  0  0  0  0  0  0  0  0  0
   -2.2310    2.8583   -3.4830 N   0  0  0  0  0  0  0  0  0  0  0  0
   -2.1517    2.8042   -2.0970 C   0  0  0  0  0  0  0  0  0  0  0  0
   -2.9706    3.0338   -1.4217 H   0  0  0  0  0  0  0  0  0  0  0  0
    0.6224    0.5857    1.3304 C   0  0  0  0  0  0  0  0  0  0  0  0
    1.6027   -0.1479    1.3048 O   0  0  0  0  0  0  0  0  0  0  0  0
    0.5168    1.4978    2.3686 N   0  0  0  0  0  0  0  0  0  0  0  0
   -0.3529    2.0181    2.4207 H   0  0  0  0  0  0  0  0  0  0  0  0
    1.3360    1.4085    3.5719 C   0  0  0  0  0  0  0  0  0  0  0  0
    2.3984    1.4950    3.3209 H   0  0  0  0  0  0  0  0  0  0  0  0
    1.0800    2.2156    4.2648 H   0  0  0  0  0  0  0  0  0  0  0  0
    1.1698    0.4508    4.0766 H   0  0  0  0  0  0  0  0  0  0  0  0
  1  2  1  0  0  0  0
  2  3  1  0  0  0  0
  2  4  1  0  0  0  0
  2  5  1  0  0  0  0
  5  6  2  0  0  0  0
  5  7  1  0  0  0  0
  7  8  1  0  0  0  0
  7  9  1  0  0  0  0
  9 10  1  0  0  0  0
  9 11  1  0  0  0  0
  9 22  1  0  0  0  0
 11 12  1  0  0  0  0
 11 13  1  0  0  0  0
 11 14  1  0  0  0  0
 14 15  1  0  0  0  0
 14 20  2  0  0  0  0
 15 16  1  0  0  0  0
 15 17  1  0  0  0  0
 17 18  1  0  0  0  0
 17 19  2  0  0  0  0
 19 20  1  0  0  0  0
 20 21  1  0  0  0  0
 22 23  2  0  0  0  0
 22 24  1  0  0  0  0
 24 25  1  0  0  0  0
 24 26  1  0  0  0  0
 26 27  1  0  0  0  0
 26 28  1  0  0  0  0
 26 29  1  0  0  0  0
M  END
$$$$

  -OEChem-01062216083D

 29 29  0     1  0  0  0  0  0999 V2000
   -3.4165   -2.6177    0.8280 H   0  0  0  0  0  0  0  0  0  0  0  0
   -3.2792   -1.6845    0.2744 C   0  0  0  0  0  0  0  0  0  0  0  0
   -4.0991   -1.0053    0.5199 H   0  0  0  0  0  0  0  0  0  0  0  0
   -3.3049   -1.9056   -0.7954 H   0  0  0  0  0  0  0  0  0  0  0  0
   -1.9511   -1.0498    0.6427 C   0  0  0  0  0  0  0  0  0  0  0  0
   -1.2877   -1.5403    1.5372 O   0  0  0  0  0  0  0  0  0  0  0  0
   -1.5487    0.0941   -0.0217 N   0  0  0  0  0  0  0  0  0  0  0  0
   -2.1497    0.3753   -0.7920 H   0  0  0  0  0  0  0  0  0  0  0  0
   -0.2135    0.7297    0.0193 C   0  0  1  0  0  0  0  0  0  0  0  0
    0.3873    0.2717   -0.7736 H   0  0  0  0  0  0  0  0  0  0  0  0
   -0.3770    2.2255   -0.2970 C   0  0  0  0  0  0  0  0  0  0  0  0
   -1.0689    2.6828    0.4180 H   0  0  0  0  0  0  0  0  0  0  0  0
    0.5873    2.7362   -0.1975 H   0  0  0  0  0  0  0  0  0  0  0  0
   -0.8910    2.4152   -1.7006 C   0  0  0  0  0  0  0  0  0  0  0  0
   -0.1877    2.2714   -2.8761 N   0  0  0  0  0  0  0  0  0  0  0  0
    0.7912    2.0032   -2.9668 H   0  0  0  0  0  0  0  0  0  0  0  0
   -1.0358    2.5618   -3.9286 C   0  0  0  0  0  0  0  0  0  0  0  0
   -0.7638    2.5247   -4.9798 H   0  0  0  0  0  0  0  0  0  0  0  0
   -2.2225    2.8863   -3.4727 N   0  0  0  0  0  0  0  0  0  0  0  0
   -2.1409    2.8207   -2.0873 C   0  0  0  0  0  0  0  0  0  0  0  0
   -2.9571    3.0506   -1.4088 H   0  0  0  0  0  0  0  0  0  0  0  0
    0.6175    0.5722    1.3155 C   0  0  0  0  0  0  0  0  0  0  0  0
    1.7238    0.0514    1.2460 O   0  0  0  0  0  0  0  0  0  0  0  0
    0.2918    1.2949    2.4511 N   0  0  0  0  0  0  0  0  0  0  0  0
   -0.6766    1.5906    2.5222 H   0  0  0  0  0  0  0  0  0  0  0  0
    1.0720    1.2062    3.6796 C   0  0  0  0  0  0  0  0  0  0  0  0
    2.1040    1.5275    3.5032 H   0  0  0  0  0  0  0  0  0  0  0  0
    0.6385    1.8507    4.4502 H   0  0  0  0  0  0  0  0  0  0  0  0
    1.0820    0.1762    4.0520 H   0  0  0  0  0  0  0  0  0  0  0  0
  1  2  1  0  0  0  0
  2  3  1  0  0  0  0
  2  4  1  0  0  0  0
  2  5  1  0  0  0  0
  5  6  2  0  0  0  0
  5  7  1  0  0  0  0
  7  8  1  0  0  0  0
  7  9  1  0  0  0  0
  9 10  1  0  0  0  0
  9 11  1  0  0  0  0
  9 22  1  0  0  0  0
 11 12  1  0  0  0  0
 11 13  1  0  0  0  0
 11 14  1  0  0  0  0
 14 15  1  0  0  0  0
 14 20  2  0  0  0  0
 15 16  1  0  0  0  0
 15 17  1  0  0  0  0
 17 18  1  0  0  0  0
 17 19  2  0  0  0  0
 19 20  1  0  0  0  0
 20 21  1  0  0  0  0
 22 23  2  0  0  0  0
 22 24  1  0  0  0  0
 24 25  1  0  0  0  0
 24 26  1  0  0  0  0
 26 27  1  0  0  0  0
 26 28  1  0  0  0  0
 26 29  1  0  0  0  0
M  END
$$$$

  -OEChem-01062216083D

 29 29  0     1  0  0  0  0  0999 V2000
   -3.4506   -2.6027    0.8380 H   0  0  0  0  0  0  0  0  0  0  0  0
   -3.2981   -1.6784    0.2735 C   0  0  0  0  0  0  0  0  0  0  0  0
   -4.1017   -0.9796    0.5175 H   0  0  0  0  0  0  0  0  0  0  0  0
   -3.3367   -1.9100   -0.7937 H   0  0  0  0  0  0  0  0  0  0  0  0
   -1.9546   -1.0668    0.6243 C   0  0  0  0  0  0  0  0  0  0  0  0
   -1.2824   -1.5718    1.5043 O   0  0  0  0  0  0  0  0  0  0  0  0
   -1.5427    0.0721   -0.0420 N   0  0  0  0  0  0  0  0  0  0  0  0
   -2.1475    0.3668   -0.8044 H   0  0  0  0  0  0  0  0  0  0  0  0
   -0.2075    0.7086    0.0063 C   0  0  1  0  0  0  0  0  0  0  0  0
    0.4000    0.2554   -0.7842 H   0  0  0  0  0  0  0  0  0  0  0  0
   -0.3727    2.2064   -0.2948 C   0  0  0  0  0  0  0  0  0  0  0  0
   -1.0638    2.6545    0.4269 H   0  0  0  0  0  0  0  0  0  0  0  0
    0.5911    2.7172   -0.1900 H   0  0  0  0  0  0  0  0  0  0  0  0
   -0.8861    2.4109   -1.6961 C   0  0  0  0  0  0  0  0  0  0  0  0
   -0.1825    2.2808   -2.8727 N   0  0  0  0  0  0  0  0  0  0  0  0
    0.7975    2.0179   -2.9653 H   0  0  0  0  0  0  0  0  0  0  0  0
   -1.0301    2.5844   -3.9218 C   0  0  0  0  0  0  0  0  0  0  0  0
   -0.7575    2.5613   -4.9731 H   0  0  0  0  0  0  0  0  0  0  0  0
   -2.2174    2.9020   -3.4625 N   0  0  0  0  0  0  0  0  0  0  0  0
   -2.1362    2.8203   -2.0778 C   0  0  0  0  0  0  0  0  0  0  0  0
   -2.9519    3.0421   -1.3959 H   0  0  0  0  0  0  0  0  0  0  0  0
    0.6173    0.5652    1.3062 C   0  0  0  0  0  0  0  0  0  0  0  0
    1.8088    0.2951    1.2194 O   0  0  0  0  0  0  0  0  0  0  0  0
    0.1200    1.0443    2.5056 N   0  0  0  0  0  0  0  0  0  0  0  0
   -0.8932    1.0746    2.5678 H   0  0  0  0  0  0  0  0  0  0  0  0
    0.8735    0.9435    3.7493 C   0  0  0  0  0  0  0  0  0  0  0  0
    1.8239    1.4815    3.6684 H   0  0  0  0  0  0  0  0  0  0  0  0
    0.3015    1.3795    4.5737 H   0  0  0  0  0  0  0  0  0  0  0  0
    1.0815   -0.1054    3.9857 H   0  0  0  0  0  0  0  0  0  0  0  0
  1  2  1  0  0  0  0
  2  3  1  0  0  0  0
  2  4  1  0  0  0  0
  2  5  1  0  0  0  0
  5  6  2  0  0  0  0
  5  7  1  0  0  0  0
  7  8  1  0  0  0  0
  7  9  1  0  0  0  0
  9 10  1  0  0  0  0
  9 11  1  0  0  0  0
  9 22  1  0  0  0  0
 11 12  1  0  0  0  0
 11 13  1  0  0  0  0
 11 14  1  0  0  0  0
 14 15  1  0  0  0  0
 14 20  2  0  0  0  0
 15 16  1  0  0  0  0
 15 17  1  0  0  0  0
 17 18  1  0  0  0  0
 17 19  2  0  0  0  0
 19 20  1  0  0  0  0
 20 21  1  0  0  0  0
 22 23  2  0  0  0  0
 22 24  1  0  0  0  0
 24 25  1  0  0  0  0
 24 26  1  0  0  0  0
 26 27  1  0  0  0  0
 26 28  1  0  0  0  0
 26 29  1  0  0  0  0
M  END
$$$$

  -OEChem-01062216083D

 29 29  0     1  0  0  0  0  0999 V2000
   -3.5011   -2.6067    0.7685 H   0  0  0  0  0  0  0  0  0  0  0  0
   -3.3417   -1.6663    0.2331 C   0  0  0  0  0  0  0  0  0  0  0  0
   -4.1362   -0.9671    0.5046 H   0  0  0  0  0  0  0  0  0  0  0  0
   -3.3898   -1.8629   -0.8408 H   0  0  0  0  0  0  0  0  0  0  0  0
   -1.9893   -1.0811    0.5943 C   0  0  0  0  0  0  0  0  0  0  0  0
   -1.3245   -1.6103    1.4657 O   0  0  0  0  0  0  0  0  0  0  0  0
   -1.5551    0.0578   -0.0566 N   0  0  0  0  0  0  0  0  0  0  0  0
   -2.1587    0.3793   -0.8093 H   0  0  0  0  0  0  0  0  0  0  0  0
   -0.2184    0.6923    0.0117 C   0  0  1  0  0  0  0  0  0  0  0  0
    0.3949    0.2448   -0.7771 H   0  0  0  0  0  0  0  0  0  0  0  0
   -0.3893    2.1913   -0.2812 C   0  0  0  0  0  0  0  0  0  0  0  0
   -1.0882    2.6295    0.4392 H   0  0  0  0  0  0  0  0  0  0  0  0
    0.5697    2.7088   -0.1652 H   0  0  0  0  0  0  0  0  0  0  0  0
   -0.8905    2.4016   -1.6869 C   0  0  0  0  0  0  0  0  0  0  0  0
   -0.1728    2.2824   -2.8564 N   0  0  0  0  0  0  0  0  0  0  0  0
    0.8102    2.0270   -2.9388 H   0  0  0  0  0  0  0  0  0  0  0  0
   -1.0101    2.5878   -3.9132 C   0  0  0  0  0  0  0  0  0  0  0  0
   -0.7250    2.5735   -4.9615 H   0  0  0  0  0  0  0  0  0  0  0  0
   -2.2046    2.8955   -3.4658 N   0  0  0  0  0  0  0  0  0  0  0  0
   -2.1382    2.8067   -2.0806 C   0  0  0  0  0  0  0  0  0  0  0  0
   -2.9631    3.0205   -1.4072 H   0  0  0  0  0  0  0  0  0  0  0  0
    0.6119    0.5597    1.3106 C   0  0  0  0  0  0  0  0  0  0  0  0
    1.8337    0.5598    1.2204 O   0  0  0  0  0  0  0  0  0  0  0  0
    0.0277    0.7483    2.5503 N   0  0  0  0  0  0  0  0  0  0  0  0
   -0.9521    0.4779    2.5883 H   0  0  0  0  0  0  0  0  0  0  0  0
    0.7949    0.6525    3.7863 C   0  0  0  0  0  0  0  0  0  0  0  0
    1.6067    1.3874    3.7942 H   0  0  0  0  0  0  0  0  0  0  0  0
    0.1484    0.8468    4.6473 H   0  0  0  0  0  0  0  0  0  0  0  0
    1.2253   -0.3490    3.8922 H   0  0  0  0  0  0  0  0  0  0  0  0
  1  2  1  0  0  0  0
  2  3  1  0  0  0  0
  2  4  1  0  0  0  0
  2  5  1  0  0  0  0
  5  6  2  0  0  0  0
  5  7  1  0  0  0  0
  7  8  1  0  0  0  0
  7  9  1  0  0  0  0
  9 10  1  0  0  0  0
  9 11  1  0  0  0  0
  9 22  1  0  0  0  0
 11 12  1  0  0  0  0
 11 13  1  0  0  0  0
 11 14  1  0  0  0  0
 14 15  1  0  0  0  0
 14 20  2  0  0  0  0
 15 16  1  0  0  0  0
 15 17  1  0  0  0  0
 17 18  1  0  0  0  0
 17 19  2  0  0  0  0
 19 20  1  0  0  0  0
 20 21  1  0  0  0  0
 22 23  2  0  0  0  0
 22 24  1  0  0  0  0
 24 25  1  0  0  0  0
 24 26  1  0  0  0  0
 26 27  1  0  0  0  0
 26 28  1  0  0  0  0
 26 29  1  0  0  0  0
M  END
$$$$

  -OEChem-01062216083D

 29 29  0     1  0  0  0  0  0999 V2000
   -3.5897   -2.5770    0.7126 H   0  0  0  0  0  0  0  0  0  0  0  0
   -3.4004   -1.6331    0.1933 C   0  0  0  0  0  0  0  0  0  0  0  0
   -4.1618   -0.9083    0.4909 H   0  0  0  0  0  0  0  0  0  0  0  0
   -3.4724   -1.8055   -0.8833 H   0  0  0  0  0  0  0  0  0  0  0  0
   -2.0206   -1.1096    0.5453 C   0  0  0  0  0  0  0  0  0  0  0  0
   -1.3552   -1.6997    1.3765 O   0  0  0  0  0  0  0  0  0  0  0  0
   -1.5564    0.0311   -0.0805 N   0  0  0  0  0  0  0  0  0  0  0  0
   -2.1677    0.4010   -0.8041 H   0  0  0  0  0  0  0  0  0  0  0  0
   -0.2216    0.6695    0.0168 C   0  0  1  0  0  0  0  0  0  0  0  0
    0.4051    0.2336   -0.7682 H   0  0  0  0  0  0  0  0  0  0  0  0
   -0.4147    2.1693   -0.2688 C   0  0  0  0  0  0  0  0  0  0  0  0
   -1.1297    2.5901    0.4467 H   0  0  0  0  0  0  0  0  0  0  0  0
    0.5321    2.7052   -0.1384 H   0  0  0  0  0  0  0  0  0  0  0  0
   -0.8991    2.3854   -1.6793 C   0  0  0  0  0  0  0  0  0  0  0  0
   -0.1632    2.2898   -2.8392 N   0  0  0  0  0  0  0  0  0  0  0  0
    0.8254    2.0532   -2.9096 H   0  0  0  0  0  0  0  0  0  0  0  0
   -0.9895    2.5949   -3.9047 C   0  0  0  0  0  0  0  0  0  0  0  0
   -0.6894    2.5962   -4.9489 H   0  0  0  0  0  0  0  0  0  0  0  0
   -2.1946    2.8805   -3.4712 N   0  0  0  0  0  0  0  0  0  0  0  0
   -2.1464    2.7777   -2.0864 C   0  0  0  0  0  0  0  0  0  0  0  0
   -2.9831    2.9733   -1.4225 H   0  0  0  0  0  0  0  0  0  0  0  0
    0.6104    0.5520    1.3196 C   0  0  0  0  0  0  0  0  0  0  0  0
    1.8105    0.7921    1.2577 O   0  0  0  0  0  0  0  0  0  0  0  0
    0.0177    0.4334    2.5631 N   0  0  0  0  0  0  0  0  0  0  0  0
   -0.8695   -0.0687    2.5402 H   0  0  0  0  0  0  0  0  0  0  0  0
    0.8019    0.3367    3.7881 C   0  0  0  0  0  0  0  0  0  0  0  0
    1.4255    1.2276    3.9173 H   0  0  0  0  0  0  0  0  0  0  0  0
    0.1383    0.2540    4.6542 H   0  0  0  0  0  0  0  0  0  0  0  0
    1.4489   -0.5463    3.7593 H   0  0  0  0  0  0  0  0  0  0  0  0
  1  2  1  0  0  0  0
  2  3  1  0  0  0  0
  2  4  1  0  0  0  0
  2  5  1  0  0  0  0
  5  6  2  0  0  0  0
  5  7  1  0  0  0  0
  7  8  1  0  0  0  0
  7  9  1  0  0  0  0
  9 10  1  0  0  0  0
  9 11  1  0  0  0  0
  9 22  1  0  0  0  0
 11 12  1  0  0  0  0
 11 13  1  0  0  0  0
 11 14  1  0  0  0  0
 14 15  1  0  0  0  0
 14 20  2  0  0  0  0
 15 16  1  0  0  0  0
 15 17  1  0  0  0  0
 17 18  1  0  0  0  0
 17 19  2  0  0  0  0
 19 20  1  0  0  0  0
 20 21  1  0  0  0  0
 22 23  2  0  0  0  0
 22 24  1  0  0  0  0
 24 25  1  0  0  0  0
 24 26  1  0  0  0  0
 26 27  1  0  0  0  0
 26 28  1  0  0  0  0
 26 29  1  0  0  0  0
M  END
$$$$

  -OEChem-01062216083D

 29 29  0     1  0  0  0  0  0999 V2000
   -3.6767   -2.5319    0.6789 H   0  0  0  0  0  0  0  0  0  0  0  0
   -3.4560   -1.5876    0.1729 C   0  0  0  0  0  0  0  0  0  0  0  0
   -4.1684   -0.8318    0.5121 H   0  0  0  0  0  0  0  0  0  0  0  0
   -3.5723   -1.7318   -0.9041 H   0  0  0  0  0  0  0  0  0  0  0  0
   -2.0400   -1.1430    0.4878 C   0  0  0  0  0  0  0  0  0  0  0  0
   -1.3587   -1.8202    1.2359 O   0  0  0  0  0  0  0  0  0  0  0  0
   -1.5527    0.0054   -0.1057 N   0  0  0  0  0  0  0  0  0  0  0  0
   -2.1825    0.4343   -0.7789 H   0  0  0  0  0  0  0  0  0  0  0  0
   -0.2240    0.6543    0.0235 C   0  0  1  0  0  0  0  0  0  0  0  0
    0.4177    0.2344   -0.7576 H   0  0  0  0  0  0  0  0  0  0  0  0
   -0.4485    2.1530   -0.2595 C   0  0  0  0  0  0  0  0  0  0  0  0
   -1.1844    2.5522    0.4467 H   0  0  0  0  0  0  0  0  0  0  0  0
    0.4809    2.7147   -0.1126 H   0  0  0  0  0  0  0  0  0  0  0  0
   -0.9133    2.3695   -1.6772 C   0  0  0  0  0  0  0  0  0  0  0  0
   -0.1529    2.2995   -2.8231 N   0  0  0  0  0  0  0  0  0  0  0  0
    0.8419    2.0856   -2.8755 H   0  0  0  0  0  0  0  0  0  0  0  0
   -0.9630    2.5998   -3.9021 C   0  0  0  0  0  0  0  0  0  0  0  0
   -0.6416    2.6185   -4.9397 H   0  0  0  0  0  0  0  0  0  0  0  0
   -2.1819    2.8579   -3.4906 N   0  0  0  0  0  0  0  0  0  0  0  0
   -2.1594    2.7427   -2.1060 C   0  0  0  0  0  0  0  0  0  0  0  0
   -3.0125    2.9185   -1.4575 H   0  0  0  0  0  0  0  0  0  0  0  0
    0.6077    0.5469    1.3324 C   0  0  0  0  0  0  0  0  0  0  0  0
    1.7517    0.9870    1.3212 O   0  0  0  0  0  0  0  0  0  0  0  0
    0.0829    0.1247    2.5391 N   0  0  0  0  0  0  0  0  0  0  0  0
   -0.7179   -0.5018    2.4446 H   0  0  0  0  0  0  0  0  0  0  0  0
    0.8921   -0.0034    3.7450 C   0  0  0  0  0  0  0  0  0  0  0  0
    1.3254    0.9634    4.0217 H   0  0  0  0  0  0  0  0  0  0  0  0
    0.2735   -0.3533    4.5770 H   0  0  0  0  0  0  0  0  0  0  0  0
    1.7032   -0.7220    3.5878 H   0  0  0  0  0  0  0  0  0  0  0  0
  1  2  1  0  0  0  0
  2  3  1  0  0  0  0
  2  4  1  0  0  0  0
  2  5  1  0  0  0  0
  5  6  2  0  0  0  0
  5  7  1  0  0  0  0
  7  8  1  0  0  0  0
  7  9  1  0  0  0  0
  9 10  1  0  0  0  0
  9 11  1  0  0  0  0
  9 22  1  0  0  0  0
 11 12  1  0  0  0  0
 11 13  1  0  0  0  0
 11 14  1  0  0  0  0
 14 15  1  0  0  0  0
 14 20  2  0  0  0  0
 15 16  1  0  0  0  0
 15 17  1  0  0  0  0
 17 18  1  0  0  0  0
 17 19  2  0  0  0  0
 19 20  1  0  0  0  0
 20 21  1  0  0  0  0
 22 23  2  0  0  0  0
 22 24  1  0  0  0  0
 24 25  1  0  0  0  0
 24 26  1  0  0  0  0
 26 27  1  0  0  0  0
 26 28  1  0  0  0  0
 26 29  1  0  0  0  0
M  END
$$$$

  -OEChem-01062216083D

 29 29  0     1  0  0  0  0  0999 V2000
   -3.7389   -2.4913    0.6583 H   0  0  0  0  0  0  0  0  0  0  0  0
   -3.4961   -1.5447    0.1669 C   0  0  0  0  0  0  0  0  0  0  0  0
   -4.1623   -0.7687    0.5516 H   0  0  0  0  0  0  0  0  0  0  0  0
   -3.6589   -1.6557   -0.9080 H   0  0  0  0  0  0  0  0  0  0  0  0
   -2.0513   -1.1686    0.4370 C   0  0  0  0  0  0  0  0  0  0  0  0
   -1.3549   -1.9273    1.0866 O   0  0  0  0  0  0  0  0  0  0  0  0
   -1.5488   -0.0109   -0.1243 N   0  0  0  0  0  0  0  0  0  0  0  0
   -2.1984    0.4717   -0.7396 H   0  0  0  0  0  0  0  0  0  0  0  0
   -0.2249    0.6446    0.0298 C   0  0  1  0  0  0  0  0  0  0  0  0
    0.4273    0.2377   -0.7494 H   0  0  0  0  0  0  0  0  0  0  0  0
   -0.4739    2.1425   -0.2534 C   0  0  0  0  0  0  0  0  0  0  0  0
   -1.2251    2.5263    0.4451 H   0  0  0  0  0  0  0  0  0  0  0  0
    0.4404    2.7254   -0.0981 H   0  0  0  0  0  0  0  0  0  0  0  0
   -0.9234    2.3566   -1.6767 C   0  0  0  0  0  0  0  0  0  0  0  0
   -0.1458    2.3049   -2.8120 N   0  0  0  0  0  0  0  0  0  0  0  0
    0.8525    2.1057   -2.8513 H   0  0  0  0  0  0  0  0  0  0  0  0
   -0.9451    2.5991   -3.9008 C   0  0  0  0  0  0  0  0  0  0  0  0
   -0.6095    2.6267   -4.9337 H   0  0  0  0  0  0  0  0  0  0  0  0
   -2.1730    2.8390   -3.5050 N   0  0  0  0  0  0  0  0  0  0  0  0
   -2.1683    2.7158   -2.1212 C   0  0  0  0  0  0  0  0  0  0  0  0
   -3.0326    2.8771   -1.4839 H   0  0  0  0  0  0  0  0  0  0  0  0
    0.6063    0.5323    1.3441 C   0  0  0  0  0  0  0  0  0  0  0  0
    1.6661    1.1452    1.4082 O   0  0  0  0  0  0  0  0  0  0  0  0
    0.2095   -0.1659    2.4684 N   0  0  0  0  0  0  0  0  0  0  0  0
   -0.5172   -0.8652    2.3064 H   0  0  0  0  0  0  0  0  0  0  0  0
    1.0492   -0.3227    3.6498 C   0  0  0  0  0  0  0  0  0  0  0  0
    1.2899    0.6542    4.0822 H   0  0  0  0  0  0  0  0  0  0  0  0
    0.5255   -0.9141    4.4069 H   0  0  0  0  0  0  0  0  0  0  0  0
    1.9821   -0.8350    3.3928 H   0  0  0  0  0  0  0  0  0  0  0  0
  1  2  1  0  0  0  0
  2  3  1  0  0  0  0
  2  4  1  0  0  0  0
  2  5  1  0  0  0  0
  5  6  2  0  0  0  0
  5  7  1  0  0  0  0
  7  8  1  0  0  0  0
  7  9  1  0  0  0  0
  9 10  1  0  0  0  0
  9 11  1  0  0  0  0
  9 22  1  0  0  0  0
 11 12  1  0  0  0  0
 11 13  1  0  0  0  0
 11 14  1  0  0  0  0
 14 15  1  0  0  0  0
 14 20  2  0  0  0  0
 15 16  1  0  0  0  0
 15 17  1  0  0  0  0
 17 18  1  0  0  0  0
 17 19  2  0  0  0  0
 19 20  1  0  0  0  0
 20 21  1  0  0  0  0
 22 23  2  0  0  0  0
 22 24  1  0  0  0  0
 24 25  1  0  0  0  0
 24 26  1  0  0  0  0
 26 27  1  0  0  0  0
 26 28  1  0  0  0  0
 26 29  1  0  0  0  0
M  END
$$$$

  -OEChem-01062216083D

 29 29  0     1  0  0  0  0  0999 V2000
   -3.8422   -2.3538    0.7989 H   0  0  0  0  0  0  0  0  0  0  0  0
   -3.5756   -1.4135    0.3079 C   0  0  0  0  0  0  0  0  0  0  0  0
   -4.1658   -0.6073    0.7502 H   0  0  0  0  0  0  0  0  0  0  0  0
   -3.8163   -1.4924   -0.7551 H   0  0  0  0  0  0  0  0  0  0  0  0
   -2.0956   -1.1303    0.4843 C   0  0  0  0  0  0  0  0  0  0  0  0
   -1.4004   -1.9575    1.0452 O   0  0  0  0  0  0  0  0  0  0  0  0
   -1.5649    0.0066   -0.0935 N   0  0  0  0  0  0  0  0  0  0  0  0
   -2.2315    0.5363   -0.6484 H   0  0  0  0  0  0  0  0  0  0  0  0
   -0.2186    0.6258    0.0174 C   0  0  1  0  0  0  0  0  0  0  0  0
    0.4000    0.1872   -0.7715 H   0  0  0  0  0  0  0  0  0  0  0  0
   -0.4432    2.1233   -0.3003 C   0  0  0  0  0  0  0  0  0  0  0  0
   -1.1688    2.5418    0.4052 H   0  0  0  0  0  0  0  0  0  0  0  0
    0.4847    2.6932   -0.1865 H   0  0  0  0  0  0  0  0  0  0  0  0
   -0.9204    2.3095   -1.7188 C   0  0  0  0  0  0  0  0  0  0  0  0
   -0.1707    2.2116   -2.8696 N   0  0  0  0  0  0  0  0  0  0  0  0
    0.8219    1.9898   -2.9264 H   0  0  0  0  0  0  0  0  0  0  0  0
   -0.9889    2.4929   -3.9475 C   0  0  0  0  0  0  0  0  0  0  0  0
   -0.6767    2.4860   -4.9880 H   0  0  0  0  0  0  0  0  0  0  0  0
   -2.2023    2.7682   -3.5310 N   0  0  0  0  0  0  0  0  0  0  0  0
   -2.1680    2.6813   -2.1449 C   0  0  0  0  0  0  0  0  0  0  0  0
   -3.0140    2.8760   -1.4926 H   0  0  0  0  0  0  0  0  0  0  0  0
    0.6496    0.5003    1.3107 C   0  0  0  0  0  0  0  0  0  0  0  0
    1.6192    1.2398    1.4370 O   0  0  0  0  0  0  0  0  0  0  0  0
    0.4240   -0.3995    2.3339 N   0  0  0  0  0  0  0  0  0  0  0  0
   -0.2613   -1.1317    2.1405 H   0  0  0  0  0  0  0  0  0  0  0  0
    1.3178   -0.5793    3.4717 C   0  0  0  0  0  0  0  0  0  0  0  0
    1.4226    0.3567    4.0302 H   0  0  0  0  0  0  0  0  0  0  0  0
    0.9162   -1.3402    4.1479 H   0  0  0  0  0  0  0  0  0  0  0  0
    2.3080   -0.9024    3.1344 H   0  0  0  0  0  0  0  0  0  0  0  0
  1  2  1  0  0  0  0
  2  3  1  0  0  0  0
  2  4  1  0  0  0  0
  2  5  1  0  0  0  0
  5  6  2  0  0  0  0
  5  7  1  0  0  0  0
  7  8  1  0  0  0  0
  7  9  1  0  0  0  0
  9 10  1  0  0  0  0
  9 11  1  0  0  0  0
  9 22  1  0  0  0  0
 11 12  1  0  0  0  0
 11 13  1  0  0  0  0
 11 14  1  0  0  0  0
 14 15  1  0  0  0  0
 14 20  2  0  0  0  0
 15 16  1  0  0  0  0
 15 17  1  0  0  0  0
 17 18  1  0  0  0  0
 17 19  2  0  0  0  0
 19 20  1  0  0  0  0
 20 21  1  0  0  0  0
 22 23  2  0  0  0  0
 22 24  1  0  0  0  0
 24 25  1  0  0  0  0
 24 26  1  0  0  0  0
 26 27  1  0  0  0  0
 26 28  1  0  0  0  0
 26 29  1  0  0  0  0
M  END
$$$$

  -OEChem-01062216083D

 29 29  0     1  0  0  0  0  0999 V2000
   -3.3293   -2.4657    1.2481 H   0  0  0  0  0  0  0  0  0  0  0  0
   -3.1884   -1.5026    0.7494 C   0  0  0  0  0  0  0  0  0  0  0  0
   -3.6193   -0.7176    1.3751 H   0  0  0  0  0  0  0  0  0  0  0  0
   -3.7106   -1.5236   -0.2102 H   0  0  0  0  0  0  0  0  0  0  0  0
   -1.7106   -1.2392    0.5289 C   0  0  0  0  0  0  0  0  0  0  0  0
   -0.9132   -2.1336    0.7367 O   0  0  0  0  0  0  0  0  0  0  0  0
   -1.3246   -0.0603   -0.0741 N   0  0  0  0  0  0  0  0  0  0  0  0
   -2.0973    0.5214   -0.3838 H   0  0  0  0  0  0  0  0  0  0  0  0
    0.0111    0.5807   -0.1400 C   0  0  1  0  0  0  0  0  0  0  0  0
    0.4985    0.1856   -1.0367 H   0  0  0  0  0  0  0  0  0  0  0  0
   -0.2777    2.0860   -0.3512 C   0  0  0  0  0  0  0  0  0  0  0  0
   -0.8925    2.4598    0.4744 H   0  0  0  0  0  0  0  0  0  0  0  0
    0.6495    2.6685   -0.3524 H   0  0  0  0  0  0  0  0  0  0  0  0
   -0.9668    2.3282   -1.6703 C   0  0  0  0  0  0  0  0  0  0  0  0
   -0.3969    2.2963   -2.9232 N   0  0  0  0  0  0  0  0  0  0  0  0
    0.5753    2.0816   -3.1388 H   0  0  0  0  0  0  0  0  0  0  0  0
   -1.3690    2.6168   -3.8521 C   0  0  0  0  0  0  0  0  0  0  0  0
   -1.2157    2.6622   -4.9267 H   0  0  0  0  0  0  0  0  0  0  0  0
   -2.5078    2.8586   -3.2466 N   0  0  0  0  0  0  0  0  0  0  0  0
   -2.2664    2.7032   -1.8873 C   0  0  0  0  0  0  0  0  0  0  0  0
   -3.0068    2.8572   -1.1079 H   0  0  0  0  0  0  0  0  0  0  0  0
    1.0949    0.4359    0.9807 C   0  0  0  0  0  0  0  0  0  0  0  0
    2.1052    1.1189    0.8923 O   0  0  0  0  0  0  0  0  0  0  0  0
    1.3259   -0.5998    1.8534 N   0  0  0  0  0  0  0  0  0  0  0  0
    2.3118   -0.6291    2.0992 H   0  0  0  0  0  0  0  0  0  0  0  0
    0.4313   -0.8083    2.9855 C   0  0  0  0  0  0  0  0  0  0  0  0
   -0.5270   -0.3000    2.8418 H   0  0  0  0  0  0  0  0  0  0  0  0
    0.2423   -1.8775    3.1246 H   0  0  0  0  0  0  0  0  0  0  0  0
    0.8882   -0.4147    3.8987 H   0  0  0  0  0  0  0  0  0  0  0  0
  1  2  1  0  0  0  0
  2  3  1  0  0  0  0
  2  4  1  0  0  0  0
  2  5  1  0  0  0  0
  5  6  2  0  0  0  0
  5  7  1  0  0  0  0
  7  8  1  0  0  0  0
  7  9  1  0  0  0  0
  9 10  1  0  0  0  0
  9 11  1  0  0  0  0
  9 22  1  0  0  0  0
 11 12  1  0  0  0  0
 11 13  1  0  0  0  0
 11 14  1  0  0  0  0
 14 15  1  0  0  0  0
 14 20  2  0  0  0  0
 15 16  1  0  0  0  0
 15 17  1  0  0  0  0
 17 18  1  0  0  0  0
 17 19  2  0  0  0  0
 19 20  1  0  0  0  0
 20 21  1  0  0  0  0
 22 23  2  0  0  0  0
 22 24  1  0  0  0  0
 24 25  1  0  0  0  0
 24 26  1  0  0  0  0
 26 27  1  0  0  0  0
 26 28  1  0  0  0  0
 26 29  1  0  0  0  0
M  END
$$$$

  -OEChem-01062216083D

 29 29  0     1  0  0  0  0  0999 V2000
   -3.6967   -2.4385    0.8019 H   0  0  0  0  0  0  0  0  0  0  0  0
   -3.4653   -1.4899    0.3090 C   0  0  0  0  0  0  0  0  0  0  0  0
   -4.0331   -0.6942    0.7973 H   0  0  0  0  0  0  0  0  0  0  0  0
   -3.7683   -1.5549   -0.7390 H   0  0  0  0  0  0  0  0  0  0  0  0
   -1.9791   -1.1993    0.4023 C   0  0  0  0  0  0  0  0  0  0  0  0
   -1.2382   -2.0607    0.8401 O   0  0  0  0  0  0  0  0  0  0  0  0
   -1.4998   -0.0173   -0.1288 N   0  0  0  0  0  0  0  0  0  0  0  0
   -2.2123    0.5471   -0.5833 H   0  0  0  0  0  0  0  0  0  0  0  0
   -0.1723    0.6386   -0.0083 C   0  0  1  0  0  0  0  0  0  0  0  0
    0.4522    0.2421   -0.8144 H   0  0  0  0  0  0  0  0  0  0  0  0
   -0.4235    2.1403   -0.2848 C   0  0  0  0  0  0  0  0  0  0  0  0
   -1.1485    2.5304    0.4375 H   0  0  0  0  0  0  0  0  0  0  0  0
    0.5003    2.7158   -0.1633 H   0  0  0  0  0  0  0  0  0  0  0  0
   -0.9085    2.3614   -1.6955 C   0  0  0  0  0  0  0  0  0  0  0  0
   -0.1659    2.3116   -2.8543 N   0  0  0  0  0  0  0  0  0  0  0  0
    0.8290    2.1064   -2.9260 H   0  0  0  0  0  0  0  0  0  0  0  0
   -0.9955    2.6194   -3.9165 C   0  0  0  0  0  0  0  0  0  0  0  0
   -0.6909    2.6520   -4.9588 H   0  0  0  0  0  0  0  0  0  0  0  0
   -2.2089    2.8660   -3.4829 N   0  0  0  0  0  0  0  0  0  0  0  0
   -2.1633    2.7324   -2.1007 C   0  0  0  0  0  0  0  0  0  0  0  0
   -3.0061    2.8977   -1.4361 H   0  0  0  0  0  0  0  0  0  0  0  0
    0.6938    0.4523    1.2812 C   0  0  0  0  0  0  0  0  0  0  0  0
    1.2695    1.4158    1.7749 O   0  0  0  0  0  0  0  0  0  0  0  0
    0.8953   -0.7648    1.9005 N   0  0  0  0  0  0  0  0  0  0  0  0
    0.3303   -1.5450    1.5571 H   0  0  0  0  0  0  0  0  0  0  0  0
    1.6599   -0.9467    3.1279 C   0  0  0  0  0  0  0  0  0  0  0  0
    1.2021   -0.3888    3.9512 H   0  0  0  0  0  0  0  0  0  0  0  0
    1.6869   -2.0062    3.3993 H   0  0  0  0  0  0  0  0  0  0  0  0
    2.6894   -0.5990    2.9937 H   0  0  0  0  0  0  0  0  0  0  0  0
  1  2  1  0  0  0  0
  2  3  1  0  0  0  0
  2  4  1  0  0  0  0
  2  5  1  0  0  0  0
  5  6  2  0  0  0  0
  5  7  1  0  0  0  0
  7  8  1  0  0  0  0
  7  9  1  0  0  0  0
  9 10  1  0  0  0  0
  9 11  1  0  0  0  0
  9 22  1  0  0  0  0
 11 12  1  0  0  0  0
 11 13  1  0  0  0  0
 11 14  1  0  0  0  0
 14 15  1  0  0  0  0
 14 20  2  0  0  0  0
 15 16  1  0  0  0  0
 15 17  1  0  0  0  0
 17 18  1  0  0  0  0
 17 19  2  0  0  0  0
 19 20  1  0  0  0  0
 20 21  1  0  0  0  0
 22 23  2  0  0  0  0
 22 24  1  0  0  0  0
 24 25  1  0  0  0  0
 24 26  1  0  0  0  0
 26 27  1  0  0  0  0
 26 28  1  0  0  0  0
 26 29  1  0  0  0  0
M  END
$$$$

  -OEChem-01062216083D

 29 29  0     1  0  0  0  0  0999 V2000
   -3.5909   -2.4569    0.9115 H   0  0  0  0  0  0  0  0  0  0  0  0
   -3.3944   -1.5174    0.3872 C   0  0  0  0  0  0  0  0  0  0  0  0
   -3.9674   -0.7215    0.8690 H   0  0  0  0  0  0  0  0  0  0  0  0
   -3.7231   -1.6176   -0.6501 H   0  0  0  0  0  0  0  0  0  0  0  0
   -1.9133   -1.1919    0.4321 C   0  0  0  0  0  0  0  0  0  0  0  0
   -1.1368   -2.0283    0.8581 O   0  0  0  0  0  0  0  0  0  0  0  0
   -1.4728   -0.0081   -0.1276 N   0  0  0  0  0  0  0  0  0  0  0  0
   -2.2053    0.5498   -0.5574 H   0  0  0  0  0  0  0  0  0  0  0  0
   -0.1480    0.6532   -0.0346 C   0  0  1  0  0  0  0  0  0  0  0  0
    0.4686    0.2561   -0.8464 H   0  0  0  0  0  0  0  0  0  0  0  0
   -0.3897    2.1551   -0.3068 C   0  0  0  0  0  0  0  0  0  0  0  0
   -1.1009    2.5514    0.4259 H   0  0  0  0  0  0  0  0  0  0  0  0
    0.5434    2.7177   -0.1934 H   0  0  0  0  0  0  0  0  0  0  0  0
   -0.8967    2.3788   -1.7093 C   0  0  0  0  0  0  0  0  0  0  0  0
   -0.1761    2.3216   -2.8818 N   0  0  0  0  0  0  0  0  0  0  0  0
    0.8153    2.1077   -2.9725 H   0  0  0  0  0  0  0  0  0  0  0  0
   -1.0233    2.6330   -3.9289 C   0  0  0  0  0  0  0  0  0  0  0  0
   -0.7377    2.6608   -4.9768 H   0  0  0  0  0  0  0  0  0  0  0  0
   -2.2264    2.8901   -3.4735 N   0  0  0  0  0  0  0  0  0  0  0  0
   -2.1563    2.7580   -2.0921 C   0  0  0  0  0  0  0  0  0  0  0  0
   -2.9862    2.9294   -1.4129 H   0  0  0  0  0  0  0  0  0  0  0  0
    0.7132    0.4590    1.2530 C   0  0  0  0  0  0  0  0  0  0  0  0
    1.0919    1.4321    1.8961 O   0  0  0  0  0  0  0  0  0  0  0  0
    1.1405   -0.7844    1.6761 N   0  0  0  0  0  0  0  0  0  0  0  0
    0.6186   -1.5730    1.2850 H   0  0  0  0  0  0  0  0  0  0  0  0
    1.8667   -1.0013    2.9215 C   0  0  0  0  0  0  0  0  0  0  0  0
    1.2615   -0.6864    3.7780 H   0  0  0  0  0  0  0  0  0  0  0  0
    2.1061   -2.0628    3.0363 H   0  0  0  0  0  0  0  0  0  0  0  0
    2.8040   -0.4351    2.9237 H   0  0  0  0  0  0  0  0  0  0  0  0
  1  2  1  0  0  0  0
  2  3  1  0  0  0  0
  2  4  1  0  0  0  0
  2  5  1  0  0  0  0
  5  6  2  0  0  0  0
  5  7  1  0  0  0  0
  7  8  1  0  0  0  0
  7  9  1  0  0  0  0
  9 10  1  0  0  0  0
  9 11  1  0  0  0  0
  9 22  1  0  0  0  0
 11 12  1  0  0  0  0
 11 13  1  0  0  0  0
 11 14  1  0  0  0  0
 14 15  1  0  0  0  0
 14 20  2  0  0  0  0
 15 16  1  0  0  0  0
 15 17  1  0  0  0  0
 17 18  1  0  0  0  0
 17 19  2  0  0  0  0
 19 20  1  0  0  0  0
 20 21  1  0  0  0  0
 22 23  2  0  0  0  0
 22 24  1  0  0  0  0
 24 25  1  0  0  0  0
 24 26  1  0  0  0  0
 26 27  1  0  0  0  0
 26 28  1  0  0  0  0
 26 29  1  0  0  0  0
M  END
$$$$

  -OEChem-01062216083D

 29 29  0     1  0  0  0  0  0999 V2000
   -3.4686   -2.4869    1.0178 H   0  0  0  0  0  0  0  0  0  0  0  0
   -3.3187   -1.5536    0.4675 C   0  0  0  0  0  0  0  0  0  0  0  0
   -3.8970   -0.7640    0.9533 H   0  0  0  0  0  0  0  0  0  0  0  0
   -3.6803   -1.6851   -0.5552 H   0  0  0  0  0  0  0  0  0  0  0  0
   -1.8471   -1.1854    0.4533 C   0  0  0  0  0  0  0  0  0  0  0  0
   -1.0262   -1.9867    0.8666 O   0  0  0  0  0  0  0  0  0  0  0  0
   -1.4538   -0.0026   -0.1418 N   0  0  0  0  0  0  0  0  0  0  0  0
   -2.2078    0.5497   -0.5403 H   0  0  0  0  0  0  0  0  0  0  0  0
   -0.1360    0.6674   -0.0604 C   0  0  1  0  0  0  0  0  0  0  0  0
    0.4877    0.2712   -0.8674 H   0  0  0  0  0  0  0  0  0  0  0  0
   -0.3707    2.1690   -0.3280 C   0  0  0  0  0  0  0  0  0  0  0  0
   -1.0795    2.5662    0.4070 H   0  0  0  0  0  0  0  0  0  0  0  0
    0.5671    2.7228   -0.2090 H   0  0  0  0  0  0  0  0  0  0  0  0
   -0.8850    2.3986   -1.7270 C   0  0  0  0  0  0  0  0  0  0  0  0
   -0.1730    2.3403   -2.9049 N   0  0  0  0  0  0  0  0  0  0  0  0
    0.8164    2.1207   -3.0036 H   0  0  0  0  0  0  0  0  0  0  0  0
   -1.0264    2.6576   -3.9453 C   0  0  0  0  0  0  0  0  0  0  0  0
   -0.7479    2.6868   -4.9951 H   0  0  0  0  0  0  0  0  0  0  0  0
   -2.2250    2.9184   -3.4809 N   0  0  0  0  0  0  0  0  0  0  0  0
   -2.1461    2.7820   -2.1003 C   0  0  0  0  0  0  0  0  0  0  0  0
   -2.9709    2.9533   -1.4150 H   0  0  0  0  0  0  0  0  0  0  0  0
    0.6932    0.4719    1.2430 C   0  0  0  0  0  0  0  0  0  0  0  0
    0.8721    1.4090    2.0139 O   0  0  0  0  0  0  0  0  0  0  0  0
    1.3467   -0.7191    1.4961 N   0  0  0  0  0  0  0  0  0  0  0  0
    0.9096   -1.5278    1.0482 H   0  0  0  0  0  0  0  0  0  0  0  0
    2.0836   -0.9604    2.7309 C   0  0  0  0  0  0  0  0  0  0  0  0
    1.4151   -0.8925    3.5954 H   0  0  0  0  0  0  0  0  0  0  0  0
    2.5297   -1.9593    2.7136 H   0  0  0  0  0  0  0  0  0  0  0  0
    2.8883   -0.2273    2.8487 H   0  0  0  0  0  0  0  0  0  0  0  0
  1  2  1  0  0  0  0
  2  3  1  0  0  0  0
  2  4  1  0  0  0  0
  2  5  1  0  0  0  0
  5  6  2  0  0  0  0
  5  7  1  0  0  0  0
  7  8  1  0  0  0  0
  7  9  1  0  0  0  0
  9 10  1  0  0  0  0
  9 11  1  0  0  0  0
  9 22  1  0  0  0  0
 11 12  1  0  0  0  0
 11 13  1  0  0  0  0
 11 14  1  0  0  0  0
 14 15  1  0  0  0  0
 14 20  2  0  0  0  0
 15 16  1  0  0  0  0
 15 17  1  0  0  0  0
 17 18  1  0  0  0  0
 17 19  2  0  0  0  0
 19 20  1  0  0  0  0
 20 21  1  0  0  0  0
 22 23  2  0  0  0  0
 22 24  1  0  0  0  0
 24 25  1  0  0  0  0
 24 26  1  0  0  0  0
 26 27  1  0  0  0  0
 26 28  1  0  0  0  0
 26 29  1  0  0  0  0
M  END
$$$$

  -OEChem-01062216083D

 29 29  0     1  0  0  0  0  0999 V2000
   -3.3532   -2.5130    1.1140 H   0  0  0  0  0  0  0  0  0  0  0  0
   -3.2492   -1.5847    0.5451 C   0  0  0  0  0  0  0  0  0  0  0  0
   -3.8244   -0.8013    1.0445 H   0  0  0  0  0  0  0  0  0  0  0  0
   -3.6507   -1.7392   -0.4594 H   0  0  0  0  0  0  0  0  0  0  0  0
   -1.7888   -1.1835    0.4626 C   0  0  0  0  0  0  0  0  0  0  0  0
   -0.9274   -1.9573    0.8480 O   0  0  0  0  0  0  0  0  0  0  0  0
   -1.4424   -0.0023   -0.1640 N   0  0  0  0  0  0  0  0  0  0  0  0
   -2.2184    0.5519   -0.5142 H   0  0  0  0  0  0  0  0  0  0  0  0
   -0.1315    0.6758   -0.0883 C   0  0  1  0  0  0  0  0  0  0  0  0
    0.4998    0.2811   -0.8895 H   0  0  0  0  0  0  0  0  0  0  0  0
   -0.3591    2.1781   -0.3489 C   0  0  0  0  0  0  0  0  0  0  0  0
   -1.0683    2.5741    0.3866 H   0  0  0  0  0  0  0  0  0  0  0  0
    0.5813    2.7253   -0.2218 H   0  0  0  0  0  0  0  0  0  0  0  0
   -0.8760    2.4168   -1.7453 C   0  0  0  0  0  0  0  0  0  0  0  0
   -0.1690    2.3604   -2.9264 N   0  0  0  0  0  0  0  0  0  0  0  0
    0.8178    2.1325   -3.0307 H   0  0  0  0  0  0  0  0  0  0  0  0
   -1.0249    2.6874   -3.9618 C   0  0  0  0  0  0  0  0  0  0  0  0
   -0.7510    2.7206   -5.0126 H   0  0  0  0  0  0  0  0  0  0  0  0
   -2.2203    2.9524   -3.4914 N   0  0  0  0  0  0  0  0  0  0  0  0
   -2.1369    2.8076   -2.1117 C   0  0  0  0  0  0  0  0  0  0  0  0
   -2.9581    2.9787   -1.4219 H   0  0  0  0  0  0  0  0  0  0  0  0
    0.6643    0.4791    1.2310 C   0  0  0  0  0  0  0  0  0  0  0  0
    0.6298    1.3322    2.1116 O   0  0  0  0  0  0  0  0  0  0  0  0
    1.5454   -0.5791    1.3553 N   0  0  0  0  0  0  0  0  0  0  0  0
    1.2820   -1.3947    0.8023 H   0  0  0  0  0  0  0  0  0  0  0  0
    2.2874   -0.8261    2.5857 C   0  0  0  0  0  0  0  0  0  0  0  0
    1.5995   -1.0158    3.4163 H   0  0  0  0  0  0  0  0  0  0  0  0
    2.9367   -1.6985    2.4651 H   0  0  0  0  0  0  0  0  0  0  0  0
    2.9140    0.0360    2.8368 H   0  0  0  0  0  0  0  0  0  0  0  0
  1  2  1  0  0  0  0
  2  3  1  0  0  0  0
  2  4  1  0  0  0  0
  2  5  1  0  0  0  0
  5  6  2  0  0  0  0
  5  7  1  0  0  0  0
  7  8  1  0  0  0  0
  7  9  1  0  0  0  0
  9 10  1  0  0  0  0
  9 11  1  0  0  0  0
  9 22  1  0  0  0  0
 11 12  1  0  0  0  0
 11 13  1  0  0  0  0
 11 14  1  0  0  0  0
 14 15  1  0  0  0  0
 14 20  2  0  0  0  0
 15 16  1  0  0  0  0
 15 17  1  0  0  0  0
 17 18  1  0  0  0  0
 17 19  2  0  0  0  0
 19 20  1  0  0  0  0
 20 21  1  0  0  0  0
 22 23  2  0  0  0  0
 22 24  1  0  0  0  0
 24 25  1  0  0  0  0
 24 26  1  0  0  0  0
 26 27  1  0  0  0  0
 26 28  1  0  0  0  0
 26 29  1  0  0  0  0
M  END
$$$$

  -OEChem-01062216083D

 29 29  0     1  0  0  0  0  0999 V2000
   -3.2747   -2.5289    1.1779 H   0  0  0  0  0  0  0  0  0  0  0  0
   -3.2029   -1.6003    0.6045 C   0  0  0  0  0  0  0  0  0  0  0  0
   -3.7657   -0.8224    1.1262 H   0  0  0  0  0  0  0  0  0  0  0  0
   -3.6425   -1.7602   -0.3829 H   0  0  0  0  0  0  0  0  0  0  0  0
   -1.7508   -1.1847    0.4644 C   0  0  0  0  0  0  0  0  0  0  0  0
   -0.8663   -1.9441    0.8269 O   0  0  0  0  0  0  0  0  0  0  0  0
   -1.4352   -0.0070   -0.1855 N   0  0  0  0  0  0  0  0  0  0  0  0
   -2.2263    0.5524   -0.4899 H   0  0  0  0  0  0  0  0  0  0  0  0
   -0.1285    0.6776   -0.1160 C   0  0  1  0  0  0  0  0  0  0  0  0
    0.5042    0.2831   -0.9166 H   0  0  0  0  0  0  0  0  0  0  0  0
   -0.3494    2.1812   -0.3664 C   0  0  0  0  0  0  0  0  0  0  0  0
   -1.0545    2.5770    0.3733 H   0  0  0  0  0  0  0  0  0  0  0  0
    0.5941    2.7225   -0.2383 H   0  0  0  0  0  0  0  0  0  0  0  0
   -0.8719    2.4291   -1.7585 C   0  0  0  0  0  0  0  0  0  0  0  0
   -0.1699    2.3749   -2.9425 N   0  0  0  0  0  0  0  0  0  0  0  0
    0.8155    2.1442   -3.0520 H   0  0  0  0  0  0  0  0  0  0  0  0
   -1.0292    2.7071   -3.9733 C   0  0  0  0  0  0  0  0  0  0  0  0
   -0.7597    2.7418   -5.0252 H   0  0  0  0  0  0  0  0  0  0  0  0
   -2.2216    2.9748   -3.4972 N   0  0  0  0  0  0  0  0  0  0  0  0
   -2.1335    2.8241   -2.1185 C   0  0  0  0  0  0  0  0  0  0  0  0
   -2.9520    2.9949   -1.4255 H   0  0  0  0  0  0  0  0  0  0  0  0
    0.6505    0.4872    1.2111 C   0  0  0  0  0  0  0  0  0  0  0  0
    0.3962    1.1946    2.1801 O   0  0  0  0  0  0  0  0  0  0  0  0
    1.7419   -0.3610    1.2580 N   0  0  0  0  0  0  0  0  0  0  0  0
    1.7319   -1.1032    0.5625 H   0  0  0  0  0  0  0  0  0  0  0  0
    2.4680   -0.6149    2.4965 C   0  0  0  0  0  0  0  0  0  0  0  0
    1.8035   -1.0603    3.2443 H   0  0  0  0  0  0  0  0  0  0  0  0
    3.2975   -1.3045    2.3131 H   0  0  0  0  0  0  0  0  0  0  0  0
    2.8790    0.3165    2.9000 H   0  0  0  0  0  0  0  0  0  0  0  0
  1  2  1  0  0  0  0
  2  3  1  0  0  0  0
  2  4  1  0  0  0  0
  2  5  1  0  0  0  0
  5  6  2  0  0  0  0
  5  7  1  0  0  0  0
  7  8  1  0  0  0  0
  7  9  1  0  0  0  0
  9 10  1  0  0  0  0
  9 11  1  0  0  0  0
  9 22  1  0  0  0  0
 11 12  1  0  0  0  0
 11 13  1  0  0  0  0
 11 14  1  0  0  0  0
 14 15  1  0  0  0  0
 14 20  2  0  0  0  0
 15 16  1  0  0  0  0
 15 17  1  0  0  0  0
 17 18  1  0  0  0  0
 17 19  2  0  0  0  0
 19 20  1  0  0  0  0
 20 21  1  0  0  0  0
 22 23  2  0  0  0  0
 22 24  1  0  0  0  0
 24 25  1  0  0  0  0
 24 26  1  0  0  0  0
 26 27  1  0  0  0  0
 26 28  1  0  0  0  0
 26 29  1  0  0  0  0
M  END
$$$$

  -OEChem-01062216083D

 29 29  0     1  0  0  0  0  0999 V2000
   -3.2265   -2.5435    1.2026 H   0  0  0  0  0  0  0  0  0  0  0  0
   -3.1734   -1.5962    0.6587 C   0  0  0  0  0  0  0  0  0  0  0  0
   -3.6898   -0.8288    1.2405 H   0  0  0  0  0  0  0  0  0  0  0  0
   -3.6741   -1.7136   -0.3054 H   0  0  0  0  0  0  0  0  0  0  0  0
   -1.7255   -1.1973    0.4468 C   0  0  0  0  0  0  0  0  0  0  0  0
   -0.8306   -1.9624    0.7706 O   0  0  0  0  0  0  0  0  0  0  0  0
   -1.4286   -0.0228   -0.2175 N   0  0  0  0  0  0  0  0  0  0  0  0
   -2.2294    0.5471   -0.4722 H   0  0  0  0  0  0  0  0  0  0  0  0
   -0.1263    0.6680   -0.1408 C   0  0  1  0  0  0  0  0  0  0  0  0
    0.5138    0.2759   -0.9364 H   0  0  0  0  0  0  0  0  0  0  0  0
   -0.3492    2.1715   -0.3804 C   0  0  0  0  0  0  0  0  0  0  0  0
   -1.0584    2.5584    0.3601 H   0  0  0  0  0  0  0  0  0  0  0  0
    0.5921    2.7145   -0.2434 H   0  0  0  0  0  0  0  0  0  0  0  0
   -0.8687    2.4298   -1.7717 C   0  0  0  0  0  0  0  0  0  0  0  0
   -0.1667    2.3872   -2.9565 N   0  0  0  0  0  0  0  0  0  0  0  0
    0.8181    2.1559   -3.0693 H   0  0  0  0  0  0  0  0  0  0  0  0
   -1.0267    2.7276   -3.9842 C   0  0  0  0  0  0  0  0  0  0  0  0
   -0.7572    2.7727   -5.0357 H   0  0  0  0  0  0  0  0  0  0  0  0
   -2.2194    2.9892   -3.5059 N   0  0  0  0  0  0  0  0  0  0  0  0
   -2.1311    2.8244   -2.1287 C   0  0  0  0  0  0  0  0  0  0  0  0
   -2.9502    2.9859   -1.4343 H   0  0  0  0  0  0  0  0  0  0  0  0
    0.6345    0.4874    1.1965 C   0  0  0  0  0  0  0  0  0  0  0  0
    0.2007    1.0102    2.2176 O   0  0  0  0  0  0  0  0  0  0  0  0
    1.8890   -0.0951    1.2120 N   0  0  0  0  0  0  0  0  0  0  0  0
    2.1093   -0.6847    0.4146 H   0  0  0  0  0  0  0  0  0  0  0  0
    2.6165   -0.3336    2.4528 C   0  0  0  0  0  0  0  0  0  0  0  0
    2.0480   -1.0038    3.1064 H   0  0  0  0  0  0  0  0  0  0  0  0
    3.5854   -0.7951    2.2394 H   0  0  0  0  0  0  0  0  0  0  0  0
    2.7941    0.6084    2.9824 H   0  0  0  0  0  0  0  0  0  0  0  0
  1  2  1  0  0  0  0
  2  3  1  0  0  0  0
  2  4  1  0  0  0  0
  2  5  1  0  0  0  0
  5  6  2  0  0  0  0
  5  7  1  0  0  0  0
  7  8  1  0  0  0  0
  7  9  1  0  0  0  0
  9 10  1  0  0  0  0
  9 11  1  0  0  0  0
  9 22  1  0  0  0  0
 11 12  1  0  0  0  0
 11 13  1  0  0  0  0
 11 14  1  0  0  0  0
 14 15  1  0  0  0  0
 14 20  2  0  0  0  0
 15 16  1  0  0  0  0
 15 17  1  0  0  0  0
 17 18  1  0  0  0  0
 17 19  2  0  0  0  0
 19 20  1  0  0  0  0
 20 21  1  0  0  0  0
 22 23  2  0  0  0  0
 22 24  1  0  0  0  0
 24 25  1  0  0  0  0
 24 26  1  0  0  0  0
 26 27  1  0  0  0  0
 26 28  1  0  0  0  0
 26 29  1  0  0  0  0
M  END
$$$$

  -OEChem-01062216083D

 29 29  0     1  0  0  0  0  0999 V2000
   -3.2218   -2.5403    1.2244 H   0  0  0  0  0  0  0  0  0  0  0  0
   -3.1715   -1.5942    0.6784 C   0  0  0  0  0  0  0  0  0  0  0  0
   -3.6646   -0.8203    1.2715 H   0  0  0  0  0  0  0  0  0  0  0  0
   -3.6961   -1.7069   -0.2733 H   0  0  0  0  0  0  0  0  0  0  0  0
   -1.7249   -1.2115    0.4321 C   0  0  0  0  0  0  0  0  0  0  0  0
   -0.8303   -1.9900    0.7243 O   0  0  0  0  0  0  0  0  0  0  0  0
   -1.4304   -0.0392   -0.2373 N   0  0  0  0  0  0  0  0  0  0  0  0
   -2.2325    0.5389   -0.4672 H   0  0  0  0  0  0  0  0  0  0  0  0
   -0.1275    0.6498   -0.1513 C   0  0  1  0  0  0  0  0  0  0  0  0
    0.5167    0.2578   -0.9437 H   0  0  0  0  0  0  0  0  0  0  0  0
   -0.3492    2.1545   -0.3798 C   0  0  0  0  0  0  0  0  0  0  0  0
   -1.0599    2.5343    0.3630 H   0  0  0  0  0  0  0  0  0  0  0  0
    0.5918    2.6963   -0.2367 H   0  0  0  0  0  0  0  0  0  0  0  0
   -0.8650    2.4251   -1.7702 C   0  0  0  0  0  0  0  0  0  0  0  0
   -0.1606    2.3926   -2.9539 N   0  0  0  0  0  0  0  0  0  0  0  0
    0.8234    2.1589   -3.0670 H   0  0  0  0  0  0  0  0  0  0  0  0
   -1.0182    2.7422   -3.9804 C   0  0  0  0  0  0  0  0  0  0  0  0
   -0.7462    2.7962   -5.0308 H   0  0  0  0  0  0  0  0  0  0  0  0
   -2.2115    3.0009   -3.5022 N   0  0  0  0  0  0  0  0  0  0  0  0
   -2.1269    2.8226   -2.1266 C   0  0  0  0  0  0  0  0  0  0  0  0
   -2.9479    2.9772   -1.4329 H   0  0  0  0  0  0  0  0  0  0  0  0
    0.6248    0.4749    1.1912 C   0  0  0  0  0  0  0  0  0  0  0  0
    0.0799    0.8127    2.2367 O   0  0  0  0  0  0  0  0  0  0  0  0
    1.9782    0.1865    1.2005 N   0  0  0  0  0  0  0  0  0  0  0  0
    2.3589   -0.2191    0.3511 H   0  0  0  0  0  0  0  0  0  0  0  0
    2.7283    0.0138    2.4391 C   0  0  0  0  0  0  0  0  0  0  0  0
    2.3085   -0.8083    3.0284 H   0  0  0  0  0  0  0  0  0  0  0  0
    3.7752   -0.2157    2.2190 H   0  0  0  0  0  0  0  0  0  0  0  0
    2.6963    0.9294    3.0390 H   0  0  0  0  0  0  0  0  0  0  0  0
  1  2  1  0  0  0  0
  2  3  1  0  0  0  0
  2  4  1  0  0  0  0
  2  5  1  0  0  0  0
  5  6  2  0  0  0  0
  5  7  1  0  0  0  0
  7  8  1  0  0  0  0
  7  9  1  0  0  0  0
  9 10  1  0  0  0  0
  9 11  1  0  0  0  0
  9 22  1  0  0  0  0
 11 12  1  0  0  0  0
 11 13  1  0  0  0  0
 11 14  1  0  0  0  0
 14 15  1  0  0  0  0
 14 20  2  0  0  0  0
 15 16  1  0  0  0  0
 15 17  1  0  0  0  0
 17 18  1  0  0  0  0
 17 19  2  0  0  0  0
 19 20  1  0  0  0  0
 20 21  1  0  0  0  0
 22 23  2  0  0  0  0
 22 24  1  0  0  0  0
 24 25  1  0  0  0  0
 24 26  1  0  0  0  0
 26 27  1  0  0  0  0
 26 28  1  0  0  0  0
 26 29  1  0  0  0  0
M  END
$$$$

  -OEChem-01062216083D

 29 29  0     1  0  0  0  0  0999 V2000
   -3.2221   -2.5431    1.2364 H   0  0  0  0  0  0  0  0  0  0  0  0
   -3.1747   -1.5934    0.6963 C   0  0  0  0  0  0  0  0  0  0  0  0
   -3.6383   -0.8176    1.3102 H   0  0  0  0  0  0  0  0  0  0  0  0
   -3.7294   -1.6905   -0.2399 H   0  0  0  0  0  0  0  0  0  0  0  0
   -1.7302   -1.2301    0.4103 C   0  0  0  0  0  0  0  0  0  0  0  0
   -0.8399   -2.0301    0.6539 O   0  0  0  0  0  0  0  0  0  0  0  0
   -1.4348   -0.0563   -0.2564 N   0  0  0  0  0  0  0  0  0  0  0  0
   -2.2362    0.5358   -0.4498 H   0  0  0  0  0  0  0  0  0  0  0  0
   -0.1294    0.6274   -0.1558 C   0  0  1  0  0  0  0  0  0  0  0  0
    0.5190    0.2357   -0.9449 H   0  0  0  0  0  0  0  0  0  0  0  0
   -0.3493    2.1338   -0.3736 C   0  0  0  0  0  0  0  0  0  0  0  0
   -1.0631    2.5072    0.3694 H   0  0  0  0  0  0  0  0  0  0  0  0
    0.5904    2.6755   -0.2218 H   0  0  0  0  0  0  0  0  0  0  0  0
   -0.8565    2.4176   -1.7646 C   0  0  0  0  0  0  0  0  0  0  0  0
   -0.1474    2.3960   -2.9460 N   0  0  0  0  0  0  0  0  0  0  0  0
    0.8362    2.1603   -3.0585 H   0  0  0  0  0  0  0  0  0  0  0  0
   -1.0008    2.7567   -3.9725 C   0  0  0  0  0  0  0  0  0  0  0  0
   -0.7255    2.8203   -5.0214 H   0  0  0  0  0  0  0  0  0  0  0  0
   -2.1953    3.0128   -3.4964 N   0  0  0  0  0  0  0  0  0  0  0  0
   -2.1164    2.8197   -2.1226 C   0  0  0  0  0  0  0  0  0  0  0  0
   -2.9401    2.9679   -1.4307 H   0  0  0  0  0  0  0  0  0  0  0  0
    0.6179    0.4519    1.1902 C   0  0  0  0  0  0  0  0  0  0  0  0
    0.0096    0.6023    2.2448 O   0  0  0  0  0  0  0  0  0  0  0  0
    2.0018    0.4712    1.2187 N   0  0  0  0  0  0  0  0  0  0  0  0
    2.4811    0.2690    0.3471 H   0  0  0  0  0  0  0  0  0  0  0  0
    2.7626    0.3924    2.4604 C   0  0  0  0  0  0  0  0  0  0  0  0
    2.5230   -0.5312    2.9980 H   0  0  0  0  0  0  0  0  0  0  0  0
    3.8360    0.4016    2.2480 H   0  0  0  0  0  0  0  0  0  0  0  0
    2.5327    1.2462    3.1068 H   0  0  0  0  0  0  0  0  0  0  0  0
  1  2  1  0  0  0  0
  2  3  1  0  0  0  0
  2  4  1  0  0  0  0
  2  5  1  0  0  0  0
  5  6  2  0  0  0  0
  5  7  1  0  0  0  0
  7  8  1  0  0  0  0
  7  9  1  0  0  0  0
  9 10  1  0  0  0  0
  9 11  1  0  0  0  0
  9 22  1  0  0  0  0
 11 12  1  0  0  0  0
 11 13  1  0  0  0  0
 11 14  1  0  0  0  0
 14 15  1  0  0  0  0
 14 20  2  0  0  0  0
 15 16  1  0  0  0  0
 15 17  1  0  0  0  0
 17 18  1  0  0  0  0
 17 19  2  0  0  0  0
 19 20  1  0  0  0  0
 20 21  1  0  0  0  0
 22 23  2  0  0  0  0
 22 24  1  0  0  0  0
 24 25  1  0  0  0  0
 24 26  1  0  0  0  0
 26 27  1  0  0  0  0
 26 28  1  0  0  0  0
 26 29  1  0  0  0  0
M  END
$$$$

  -OEChem-01062216083D

 29 29  0     1  0  0  0  0  0999 V2000
   -3.2230   -2.5429    1.2449 H   0  0  0  0  0  0  0  0  0  0  0  0
   -3.1760   -1.5905    0.7094 C   0  0  0  0  0  0  0  0  0  0  0  0
   -3.6118   -0.8128    1.3412 H   0  0  0  0  0  0  0  0  0  0  0  0
   -3.7560   -1.6728   -0.2128 H   0  0  0  0  0  0  0  0  0  0  0  0
   -1.7342   -1.2463    0.3881 C   0  0  0  0  0  0  0  0  0  0  0  0
   -0.8528   -2.0706    0.5778 O   0  0  0  0  0  0  0  0  0  0  0  0
   -1.4346   -0.0676   -0.2687 N   0  0  0  0  0  0  0  0  0  0  0  0
   -2.2337    0.5350   -0.4357 H   0  0  0  0  0  0  0  0  0  0  0  0
   -0.1259    0.6102   -0.1552 C   0  0  1  0  0  0  0  0  0  0  0  0
    0.5245    0.2228   -0.9448 H   0  0  0  0  0  0  0  0  0  0  0  0
   -0.3512    2.1181   -0.3660 C   0  0  0  0  0  0  0  0  0  0  0  0
   -1.0695    2.4838    0.3763 H   0  0  0  0  0  0  0  0  0  0  0  0
    0.5837    2.6660   -0.2098 H   0  0  0  0  0  0  0  0  0  0  0  0
   -0.8527    2.4092   -1.7575 C   0  0  0  0  0  0  0  0  0  0  0  0
   -0.1377    2.3979   -2.9356 N   0  0  0  0  0  0  0  0  0  0  0  0
    0.8440    2.1549   -3.0474 H   0  0  0  0  0  0  0  0  0  0  0  0
   -0.9865    2.7656   -3.9632 C   0  0  0  0  0  0  0  0  0  0  0  0
   -0.7068    2.8343   -5.0106 H   0  0  0  0  0  0  0  0  0  0  0  0
   -2.1826    3.0206   -3.4905 N   0  0  0  0  0  0  0  0  0  0  0  0
   -2.1105    2.8166   -2.1180 C   0  0  0  0  0  0  0  0  0  0  0  0
   -2.9368    2.9624   -1.4288 H   0  0  0  0  0  0  0  0  0  0  0  0
    0.6265    0.4299    1.1906 C   0  0  0  0  0  0  0  0  0  0  0  0
   -0.0033    0.3838    2.2421 O   0  0  0  0  0  0  0  0  0  0  0  0
    1.9715    0.7536    1.2683 N   0  0  0  0  0  0  0  0  0  0  0  0
    2.4945    0.7698    0.3985 H   0  0  0  0  0  0  0  0  0  0  0  0
    2.7135    0.7585    2.5247 C   0  0  0  0  0  0  0  0  0  0  0  0
    2.6611   -0.2248    3.0044 H   0  0  0  0  0  0  0  0  0  0  0  0
    3.7651    0.9994    2.3425 H   0  0  0  0  0  0  0  0  0  0  0  0
    2.3023    1.5069    3.2105 H   0  0  0  0  0  0  0  0  0  0  0  0
  1  2  1  0  0  0  0
  2  3  1  0  0  0  0
  2  4  1  0  0  0  0
  2  5  1  0  0  0  0
  5  6  2  0  0  0  0
  5  7  1  0  0  0  0
  7  8  1  0  0  0  0
  7  9  1  0  0  0  0
  9 10  1  0  0  0  0
  9 11  1  0  0  0  0
  9 22  1  0  0  0  0
 11 12  1  0  0  0  0
 11 13  1  0  0  0  0
 11 14  1  0  0  0  0
 14 15  1  0  0  0  0
 14 20  2  0  0  0  0
 15 16  1  0  0  0  0
 15 17  1  0  0  0  0
 17 18  1  0  0  0  0
 17 19  2  0  0  0  0
 19 20  1  0  0  0  0
 20 21  1  0  0  0  0
 22 23  2  0  0  0  0
 22 24  1  0  0  0  0
 24 25  1  0  0  0  0
 24 26  1  0  0  0  0
 26 27  1  0  0  0  0
 26 28  1  0  0  0  0
 26 29  1  0  0  0  0
M  END
$$$$

  -OEChem-01062216083D

 29 29  0     1  0  0  0  0  0999 V2000
   -3.3503   -2.4740    1.1485 H   0  0  0  0  0  0  0  0  0  0  0  0
   -3.2361   -1.4896    0.6863 C   0  0  0  0  0  0  0  0  0  0  0  0
   -3.5524   -0.7283    1.4032 H   0  0  0  0  0  0  0  0  0  0  0  0
   -3.8731   -1.4379   -0.1996 H   0  0  0  0  0  0  0  0  0  0  0  0
   -1.7874   -1.2638    0.2984 C   0  0  0  0  0  0  0  0  0  0  0  0
   -1.0061   -2.2014    0.3016 O   0  0  0  0  0  0  0  0  0  0  0  0
   -1.4158   -0.0780   -0.3055 N   0  0  0  0  0  0  0  0  0  0  0  0
   -2.1902    0.5620   -0.4467 H   0  0  0  0  0  0  0  0  0  0  0  0
   -0.0946    0.5746   -0.1563 C   0  0  1  0  0  0  0  0  0  0  0  0
    0.4607    0.4145   -1.0849 H   0  0  0  0  0  0  0  0  0  0  0  0
   -0.3798    2.0800    0.0251 C   0  0  0  0  0  0  0  0  0  0  0  0
   -1.0266    2.2211    0.8987 H   0  0  0  0  0  0  0  0  0  0  0  0
    0.5464    2.6297    0.2186 H   0  0  0  0  0  0  0  0  0  0  0  0
   -1.0274    2.6709   -1.2021 C   0  0  0  0  0  0  0  0  0  0  0  0
   -0.4389    2.9780   -2.4100 N   0  0  0  0  0  0  0  0  0  0  0  0
    0.5309    2.8148   -2.6720 H   0  0  0  0  0  0  0  0  0  0  0  0
   -1.3977    3.5445   -3.2299 C   0  0  0  0  0  0  0  0  0  0  0  0
   -1.2305    3.8784   -4.2501 H   0  0  0  0  0  0  0  0  0  0  0  0
   -2.5430    3.6217   -2.5964 N   0  0  0  0  0  0  0  0  0  0  0  0
   -2.3238    3.0972   -1.3290 C   0  0  0  0  0  0  0  0  0  0  0  0
   -3.0762    3.0361   -0.5483 H   0  0  0  0  0  0  0  0  0  0  0  0
    0.8449    0.1221    1.0020 C   0  0  0  0  0  0  0  0  0  0  0  0
    0.3852   -0.3407    2.0389 O   0  0  0  0  0  0  0  0  0  0  0  0
    2.0855    0.7305    1.1307 N   0  0  0  0  0  0  0  0  0  0  0  0
    2.4780    1.1637    0.3012 H   0  0  0  0  0  0  0  0  0  0  0  0
    2.9475    0.5612    2.2970 C   0  0  0  0  0  0  0  0  0  0  0  0
    3.1478   -0.5010    2.4743 H   0  0  0  0  0  0  0  0  0  0  0  0
    3.9026    1.0711    2.1393 H   0  0  0  0  0  0  0  0  0  0  0  0
    2.4740    0.9844    3.1892 H   0  0  0  0  0  0  0  0  0  0  0  0
  1  2  1  0  0  0  0
  2  3  1  0  0  0  0
  2  4  1  0  0  0  0
  2  5  1  0  0  0  0
  5  6  2  0  0  0  0
  5  7  1  0  0  0  0
  7  8  1  0  0  0  0
  7  9  1  0  0  0  0
  9 10  1  0  0  0  0
  9 11  1  0  0  0  0
  9 22  1  0  0  0  0
 11 12  1  0  0  0  0
 11 13  1  0  0  0  0
 11 14  1  0  0  0  0
 14 15  1  0  0  0  0
 14 20  2  0  0  0  0
 15 16  1  0  0  0  0
 15 17  1  0  0  0  0
 17 18  1  0  0  0  0
 17 19  2  0  0  0  0
 19 20  1  0  0  0  0
 20 21  1  0  0  0  0
 22 23  2  0  0  0  0
 22 24  1  0  0  0  0
 24 25  1  0  0  0  0
 24 26  1  0  0  0  0
 26 27  1  0  0  0  0
 26 28  1  0  0  0  0
 26 29  1  0  0  0  0
M  END
$$$$

  -OEChem-01062216083D

 29 29  0     1  0  0  0  0  0999 V2000
   -3.3515   -2.4687    1.1174 H   0  0  0  0  0  0  0  0  0  0  0  0
   -3.2215   -1.4631    0.7079 C   0  0  0  0  0  0  0  0  0  0  0  0
   -3.4807   -0.7349    1.4799 H   0  0  0  0  0  0  0  0  0  0  0  0
   -3.8921   -1.3386   -0.1456 H   0  0  0  0  0  0  0  0  0  0  0  0
   -1.7826   -1.2637    0.2717 C   0  0  0  0  0  0  0  0  0  0  0  0
   -1.0473   -2.2308    0.1643 O   0  0  0  0  0  0  0  0  0  0  0  0
   -1.4010   -0.0633   -0.2951 N   0  0  0  0  0  0  0  0  0  0  0  0
   -2.1770    0.5792   -0.4129 H   0  0  0  0  0  0  0  0  0  0  0  0
   -0.0856    0.6010   -0.1283 C   0  0  1  0  0  0  0  0  0  0  0  0
    0.4734    0.4512   -1.0565 H   0  0  0  0  0  0  0  0  0  0  0  0
   -0.4112    2.1040    0.0345 C   0  0  0  0  0  0  0  0  0  0  0  0
   -1.0756    2.2380    0.8956 H   0  0  0  0  0  0  0  0  0  0  0  0
    0.4923    2.6875    0.2303 H   0  0  0  0  0  0  0  0  0  0  0  0
   -1.0494    2.6652   -1.2115 C   0  0  0  0  0  0  0  0  0  0  0  0
   -0.4425    2.9727   -2.4102 N   0  0  0  0  0  0  0  0  0  0  0  0
    0.5334    2.8182   -2.6544 H   0  0  0  0  0  0  0  0  0  0  0  0
   -1.3965    3.5066   -3.2571 C   0  0  0  0  0  0  0  0  0  0  0  0
   -1.2160    3.8294   -4.2786 H   0  0  0  0  0  0  0  0  0  0  0  0
   -2.5557    3.5674   -2.6474 N   0  0  0  0  0  0  0  0  0  0  0  0
   -2.3519    3.0616   -1.3702 C   0  0  0  0  0  0  0  0  0  0  0  0
   -3.1192    2.9931   -0.6047 H   0  0  0  0  0  0  0  0  0  0  0  0
    0.8819    0.1547    1.0180 C   0  0  0  0  0  0  0  0  0  0  0  0
    0.5458   -0.6273    1.8954 O   0  0  0  0  0  0  0  0  0  0  0  0
    1.9564    0.9673    1.3550 N   0  0  0  0  0  0  0  0  0  0  0  0
    2.2493    1.6594    0.6733 H   0  0  0  0  0  0  0  0  0  0  0  0
    2.8000    0.7520    2.5276 C   0  0  0  0  0  0  0  0  0  0  0  0
    3.2261   -0.2569    2.5139 H   0  0  0  0  0  0  0  0  0  0  0  0
    3.6223    1.4735    2.5401 H   0  0  0  0  0  0  0  0  0  0  0  0
    2.2182    0.8760    3.4471 H   0  0  0  0  0  0  0  0  0  0  0  0
  1  2  1  0  0  0  0
  2  3  1  0  0  0  0
  2  4  1  0  0  0  0
  2  5  1  0  0  0  0
  5  6  2  0  0  0  0
  5  7  1  0  0  0  0
  7  8  1  0  0  0  0
  7  9  1  0  0  0  0
  9 10  1  0  0  0  0
  9 11  1  0  0  0  0
  9 22  1  0  0  0  0
 11 12  1  0  0  0  0
 11 13  1  0  0  0  0
 11 14  1  0  0  0  0
 14 15  1  0  0  0  0
 14 20  2  0  0  0  0
 15 16  1  0  0  0  0
 15 17  1  0  0  0  0
 17 18  1  0  0  0  0
 17 19  2  0  0  0  0
 19 20  1  0  0  0  0
 20 21  1  0  0  0  0
 22 23  2  0  0  0  0
 22 24  1  0  0  0  0
 24 25  1  0  0  0  0
 24 26  1  0  0  0  0
 26 27  1  0  0  0  0
 26 28  1  0  0  0  0
 26 29  1  0  0  0  0
M  END
$$$$

  -OEChem-01062216083D

 29 29  0     1  0  0  0  0  0999 V2000
   -3.3614   -2.5761    0.8868 H   0  0  0  0  0  0  0  0  0  0  0  0
   -3.1336   -1.7430    0.2158 C   0  0  0  0  0  0  0  0  0  0  0  0
   -4.0438   -1.1613    0.0521 H   0  0  0  0  0  0  0  0  0  0  0  0
   -2.7878   -2.1470   -0.7385 H   0  0  0  0  0  0  0  0  0  0  0  0
   -2.0579   -0.8642    0.8255 C   0  0  0  0  0  0  0  0  0  0  0  0
   -1.7932   -0.9865    2.0085 O   0  0  0  0  0  0  0  0  0  0  0  0
   -1.6098    0.2387    0.1236 N   0  0  0  0  0  0  0  0  0  0  0  0
   -2.0990    0.3645   -0.7578 H   0  0  0  0  0  0  0  0  0  0  0  0
   -0.2289    0.7798    0.1171 C   0  0  1  0  0  0  0  0  0  0  0  0
    0.2382    0.4857   -0.8275 H   0  0  0  0  0  0  0  0  0  0  0  0
   -0.3902    2.3138    0.1237 C   0  0  0  0  0  0  0  0  0  0  0  0
   -0.9722    2.6145    1.0023 H   0  0  0  0  0  0  0  0  0  0  0  0
    0.5808    2.8135    0.1780 H   0  0  0  0  0  0  0  0  0  0  0  0
   -1.0714    2.7781   -1.1392 C   0  0  0  0  0  0  0  0  0  0  0  0
   -0.5337    2.8717   -2.4048 N   0  0  0  0  0  0  0  0  0  0  0  0
    0.4172    2.6330   -2.6797 H   0  0  0  0  0  0  0  0  0  0  0  0
   -1.5080    3.3613   -3.2551 C   0  0  0  0  0  0  0  0  0  0  0  0
   -1.3791    3.5368   -4.3196 H   0  0  0  0  0  0  0  0  0  0  0  0
   -2.6162    3.5808   -2.5896 N   0  0  0  0  0  0  0  0  0  0  0  0
   -2.3557    3.2382   -1.2678 C   0  0  0  0  0  0  0  0  0  0  0  0
   -3.0715    3.3171   -0.4548 H   0  0  0  0  0  0  0  0  0  0  0  0
    0.7702    0.3011    1.2123 C   0  0  0  0  0  0  0  0  0  0  0  0
    0.9952   -0.8990    1.3053 O   0  0  0  0  0  0  0  0  0  0  0  0
    1.7854    1.1275    1.6746 N   0  0  0  0  0  0  0  0  0  0  0  0
    1.6345    2.1278    1.6027 H   0  0  0  0  0  0  0  0  0  0  0  0
    2.8619    0.6569    2.5417 C   0  0  0  0  0  0  0  0  0  0  0  0
    3.4772   -0.0852    2.0221 H   0  0  0  0  0  0  0  0  0  0  0  0
    3.5049    1.4920    2.8352 H   0  0  0  0  0  0  0  0  0  0  0  0
    2.4509    0.2007    3.4487 H   0  0  0  0  0  0  0  0  0  0  0  0
  1  2  1  0  0  0  0
  2  3  1  0  0  0  0
  2  4  1  0  0  0  0
  2  5  1  0  0  0  0
  5  6  2  0  0  0  0
  5  7  1  0  0  0  0
  7  8  1  0  0  0  0
  7  9  1  0  0  0  0
  9 10  1  0  0  0  0
  9 11  1  0  0  0  0
  9 22  1  0  0  0  0
 11 12  1  0  0  0  0
 11 13  1  0  0  0  0
 11 14  1  0  0  0  0
 14 15  1  0  0  0  0
 14 20  2  0  0  0  0
 15 16  1  0  0  0  0
 15 17  1  0  0  0  0
 17 18  1  0  0  0  0
 17 19  2  0  0  0  0
 19 20  1  0  0  0  0
 20 21  1  0  0  0  0
 22 23  2  0  0  0  0
 22 24  1  0  0  0  0
 24 25  1  0  0  0  0
 24 26  1  0  0  0  0
 26 27  1  0  0  0  0
 26 28  1  0  0  0  0
 26 29  1  0  0  0  0
M  END
$$$$

  -OEChem-01062216083D

 29 29  0     1  0  0  0  0  0999 V2000
   -3.3832   -2.5748    0.8759 H   0  0  0  0  0  0  0  0  0  0  0  0
   -3.1863   -1.7102    0.2357 C   0  0  0  0  0  0  0  0  0  0  0  0
   -4.0867   -1.0933    0.1874 H   0  0  0  0  0  0  0  0  0  0  0  0
   -2.9400   -2.0666   -0.7672 H   0  0  0  0  0  0  0  0  0  0  0  0
   -2.0323   -0.9007    0.7960 C   0  0  0  0  0  0  0  0  0  0  0  0
   -1.6561   -1.1194    1.9336 O   0  0  0  0  0  0  0  0  0  0  0  0
   -1.5954    0.2138    0.1035 N   0  0  0  0  0  0  0  0  0  0  0  0
   -2.1133    0.3775   -0.7552 H   0  0  0  0  0  0  0  0  0  0  0  0
   -0.2242    0.7771    0.1009 C   0  0  1  0  0  0  0  0  0  0  0  0
    0.2499    0.4877   -0.8421 H   0  0  0  0  0  0  0  0  0  0  0  0
   -0.3901    2.3094    0.1054 C   0  0  0  0  0  0  0  0  0  0  0  0
   -0.9751    2.6106    0.9816 H   0  0  0  0  0  0  0  0  0  0  0  0
    0.5834    2.8060    0.1623 H   0  0  0  0  0  0  0  0  0  0  0  0
   -1.0682    2.7712   -1.1593 C   0  0  0  0  0  0  0  0  0  0  0  0
   -0.5249    2.8652   -2.4224 N   0  0  0  0  0  0  0  0  0  0  0  0
    0.4298    2.6335   -2.6913 H   0  0  0  0  0  0  0  0  0  0  0  0
   -1.4963    3.3521   -3.2774 C   0  0  0  0  0  0  0  0  0  0  0  0
   -1.3622    3.5293   -4.3409 H   0  0  0  0  0  0  0  0  0  0  0  0
   -2.6087    3.5679   -2.6174 N   0  0  0  0  0  0  0  0  0  0  0  0
   -2.3533    3.2263   -1.2944 C   0  0  0  0  0  0  0  0  0  0  0  0
   -3.0737    3.3018   -0.4852 H   0  0  0  0  0  0  0  0  0  0  0  0
    0.7681    0.2987    1.1991 C   0  0  0  0  0  0  0  0  0  0  0  0
    1.1639   -0.8591    1.1399 O   0  0  0  0  0  0  0  0  0  0  0  0
    1.5693    1.1851    1.9045 N   0  0  0  0  0  0  0  0  0  0  0  0
    1.2335    2.1388    1.9877 H   0  0  0  0  0  0  0  0  0  0  0  0
    2.6174    0.7442    2.8191 C   0  0  0  0  0  0  0  0  0  0  0  0
    3.3986    0.2028    2.2749 H   0  0  0  0  0  0  0  0  0  0  0  0
    3.0760    1.6058    3.3135 H   0  0  0  0  0  0  0  0  0  0  0  0
    2.2014    0.0837    3.5877 H   0  0  0  0  0  0  0  0  0  0  0  0
  1  2  1  0  0  0  0
  2  3  1  0  0  0  0
  2  4  1  0  0  0  0
  2  5  1  0  0  0  0
  5  6  2  0  0  0  0
  5  7  1  0  0  0  0
  7  8  1  0  0  0  0
  7  9  1  0  0  0  0
  9 10  1  0  0  0  0
  9 11  1  0  0  0  0
  9 22  1  0  0  0  0
 11 12  1  0  0  0  0
 11 13  1  0  0  0  0
 11 14  1  0  0  0  0
 14 15  1  0  0  0  0
 14 20  2  0  0  0  0
 15 16  1  0  0  0  0
 15 17  1  0  0  0  0
 17 18  1  0  0  0  0
 17 19  2  0  0  0  0
 19 20  1  0  0  0  0
 20 21  1  0  0  0  0
 22 23  2  0  0  0  0
 22 24  1  0  0  0  0
 24 25  1  0  0  0  0
 24 26  1  0  0  0  0
 26 27  1  0  0  0  0
 26 28  1  0  0  0  0
 26 29  1  0  0  0  0
M  END
$$$$

  -OEChem-01062216083D

 29 29  0     1  0  0  0  0  0999 V2000
   -3.4268   -2.5603    0.8801 H   0  0  0  0  0  0  0  0  0  0  0  0
   -3.2289   -1.6881    0.2503 C   0  0  0  0  0  0  0  0  0  0  0  0
   -4.1034   -1.0336    0.2700 H   0  0  0  0  0  0  0  0  0  0  0  0
   -3.0566   -2.0276   -0.7738 H   0  0  0  0  0  0  0  0  0  0  0  0
   -2.0099   -0.9428    0.7607 C   0  0  0  0  0  0  0  0  0  0  0  0
   -1.5354   -1.2574    1.8370 O   0  0  0  0  0  0  0  0  0  0  0  0
   -1.5807    0.1824    0.0800 N   0  0  0  0  0  0  0  0  0  0  0  0
   -2.1290    0.3911   -0.7499 H   0  0  0  0  0  0  0  0  0  0  0  0
   -0.2190    0.7664    0.0839 C   0  0  1  0  0  0  0  0  0  0  0  0
    0.2592    0.4859   -0.8601 H   0  0  0  0  0  0  0  0  0  0  0  0
   -0.3909    2.2969    0.0953 C   0  0  0  0  0  0  0  0  0  0  0  0
   -0.9809    2.5935    0.9694 H   0  0  0  0  0  0  0  0  0  0  0  0
    0.5842    2.7904    0.1631 H   0  0  0  0  0  0  0  0  0  0  0  0
   -1.0671    2.7637   -1.1686 C   0  0  0  0  0  0  0  0  0  0  0  0
   -0.5187    2.8662   -2.4286 N   0  0  0  0  0  0  0  0  0  0  0  0
    0.4373    2.6364   -2.6943 H   0  0  0  0  0  0  0  0  0  0  0  0
   -1.4864    3.3574   -3.2852 C   0  0  0  0  0  0  0  0  0  0  0  0
   -1.3469    3.5415   -4.3470 H   0  0  0  0  0  0  0  0  0  0  0  0
   -2.6024    3.5674   -2.6289 N   0  0  0  0  0  0  0  0  0  0  0  0
   -2.3518    3.2187   -1.3069 C   0  0  0  0  0  0  0  0  0  0  0  0
   -3.0755    3.2902   -0.5004 H   0  0  0  0  0  0  0  0  0  0  0  0
    0.7749    0.2954    1.1816 C   0  0  0  0  0  0  0  0  0  0  0  0
    1.3449   -0.7755    1.0107 O   0  0  0  0  0  0  0  0  0  0  0  0
    1.3329    1.1733    2.0991 N   0  0  0  0  0  0  0  0  0  0  0  0
    0.8104    2.0218    2.2902 H   0  0  0  0  0  0  0  0  0  0  0  0
    2.3430    0.7577    3.0660 C   0  0  0  0  0  0  0  0  0  0  0  0
    3.2510    0.4237    2.5528 H   0  0  0  0  0  0  0  0  0  0  0  0
    2.6059    1.5930    3.7219 H   0  0  0  0  0  0  0  0  0  0  0  0
    1.9652   -0.0638    3.6843 H   0  0  0  0  0  0  0  0  0  0  0  0
  1  2  1  0  0  0  0
  2  3  1  0  0  0  0
  2  4  1  0  0  0  0
  2  5  1  0  0  0  0
  5  6  2  0  0  0  0
  5  7  1  0  0  0  0
  7  8  1  0  0  0  0
  7  9  1  0  0  0  0
  9 10  1  0  0  0  0
  9 11  1  0  0  0  0
  9 22  1  0  0  0  0
 11 12  1  0  0  0  0
 11 13  1  0  0  0  0
 11 14  1  0  0  0  0
 14 15  1  0  0  0  0
 14 20  2  0  0  0  0
 15 16  1  0  0  0  0
 15 17  1  0  0  0  0
 17 18  1  0  0  0  0
 17 19  2  0  0  0  0
 19 20  1  0  0  0  0
 20 21  1  0  0  0  0
 22 23  2  0  0  0  0
 22 24  1  0  0  0  0
 24 25  1  0  0  0  0
 24 26  1  0  0  0  0
 26 27  1  0  0  0  0
 26 28  1  0  0  0  0
 26 29  1  0  0  0  0
M  END
$$$$

  -OEChem-01062216083D

 29 29  0     1  0  0  0  0  0999 V2000
   -3.4514   -2.5598    0.8623 H   0  0  0  0  0  0  0  0  0  0  0  0
   -3.2649   -1.6663    0.2597 C   0  0  0  0  0  0  0  0  0  0  0  0
   -4.1131   -0.9860    0.3660 H   0  0  0  0  0  0  0  0  0  0  0  0
   -3.1723   -1.9639   -0.7875 H   0  0  0  0  0  0  0  0  0  0  0  0
   -1.9900   -0.9831    0.7189 C   0  0  0  0  0  0  0  0  0  0  0  0
   -1.4368   -1.3840    1.7266 O   0  0  0  0  0  0  0  0  0  0  0  0
   -1.5652    0.1527    0.0530 N   0  0  0  0  0  0  0  0  0  0  0  0
   -2.1425    0.4078   -0.7436 H   0  0  0  0  0  0  0  0  0  0  0  0
   -0.2130    0.7567    0.0691 C   0  0  1  0  0  0  0  0  0  0  0  0
    0.2712    0.4886   -0.8755 H   0  0  0  0  0  0  0  0  0  0  0  0
   -0.3932    2.2853    0.0931 C   0  0  0  0  0  0  0  0  0  0  0  0
   -0.9926    2.5723    0.9637 H   0  0  0  0  0  0  0  0  0  0  0  0
    0.5803    2.7801    0.1776 H   0  0  0  0  0  0  0  0  0  0  0  0
   -1.0651    2.7574   -1.1709 C   0  0  0  0  0  0  0  0  0  0  0  0
   -0.5070    2.8712   -2.4254 N   0  0  0  0  0  0  0  0  0  0  0  0
    0.4526    2.6477   -2.6844 H   0  0  0  0  0  0  0  0  0  0  0  0
   -1.4712    3.3595   -3.2874 C   0  0  0  0  0  0  0  0  0  0  0  0
   -1.3243    3.5485   -4.3471 H   0  0  0  0  0  0  0  0  0  0  0  0
   -2.5938    3.5590   -2.6389 N   0  0  0  0  0  0  0  0  0  0  0  0
   -2.3513    3.2062   -1.3166 C   0  0  0  0  0  0  0  0  0  0  0  0
   -3.0819    3.2696   -0.5155 H   0  0  0  0  0  0  0  0  0  0  0  0
    0.7825    0.2961    1.1674 C   0  0  0  0  0  0  0  0  0  0  0  0
    1.5308   -0.6385    0.9087 O   0  0  0  0  0  0  0  0  0  0  0  0
    1.0841    1.0893    2.2638 N   0  0  0  0  0  0  0  0  0  0  0  0
    0.3880    1.7808    2.5226 H   0  0  0  0  0  0  0  0  0  0  0  0
    2.0557    0.6851    3.2738 C   0  0  0  0  0  0  0  0  0  0  0  0
    3.0482    0.5647    2.8267 H   0  0  0  0  0  0  0  0  0  0  0  0
    2.1231    1.4436    4.0594 H   0  0  0  0  0  0  0  0  0  0  0  0
    1.7583   -0.2644    3.7313 H   0  0  0  0  0  0  0  0  0  0  0  0
  1  2  1  0  0  0  0
  2  3  1  0  0  0  0
  2  4  1  0  0  0  0
  2  5  1  0  0  0  0
  5  6  2  0  0  0  0
  5  7  1  0  0  0  0
  7  8  1  0  0  0  0
  7  9  1  0  0  0  0
  9 10  1  0  0  0  0
  9 11  1  0  0  0  0
  9 22  1  0  0  0  0
 11 12  1  0  0  0  0
 11 13  1  0  0  0  0
 11 14  1  0  0  0  0
 14 15  1  0  0  0  0
 14 20  2  0  0  0  0
 15 16  1  0  0  0  0
 15 17  1  0  0  0  0
 17 18  1  0  0  0  0
 17 19  2  0  0  0  0
 19 20  1  0  0  0  0
 20 21  1  0  0  0  0
 22 23  2  0  0  0  0
 22 24  1  0  0  0  0
 24 25  1  0  0  0  0
 24 26  1  0  0  0  0
 26 27  1  0  0  0  0
 26 28  1  0  0  0  0
 26 29  1  0  0  0  0
M  END
$$$$

  -OEChem-01062216083D

 29 29  0     1  0  0  0  0  0999 V2000
   -3.4395   -2.5917    0.8120 H   0  0  0  0  0  0  0  0  0  0  0  0
   -3.2913   -1.6519    0.2723 C   0  0  0  0  0  0  0  0  0  0  0  0
   -4.1222   -0.9796    0.4990 H   0  0  0  0  0  0  0  0  0  0  0  0
   -3.2824   -1.8626   -0.7998 H   0  0  0  0  0  0  0  0  0  0  0  0
   -1.9792   -1.0127    0.6875 C   0  0  0  0  0  0  0  0  0  0  0  0
   -1.3798   -1.4644    1.6461 O   0  0  0  0  0  0  0  0  0  0  0  0
   -1.5532    0.1246    0.0253 N   0  0  0  0  0  0  0  0  0  0  0  0
   -2.1494    0.4114   -0.7466 H   0  0  0  0  0  0  0  0  0  0  0  0
   -0.2066    0.7399    0.0511 C   0  0  1  0  0  0  0  0  0  0  0  0
    0.2837    0.4778   -0.8922 H   0  0  0  0  0  0  0  0  0  0  0  0
   -0.3868    2.2670    0.0878 C   0  0  0  0  0  0  0  0  0  0  0  0
   -0.9897    2.5477    0.9579 H   0  0  0  0  0  0  0  0  0  0  0  0
    0.5876    2.7584    0.1842 H   0  0  0  0  0  0  0  0  0  0  0  0
   -1.0545    2.7497   -1.1740 C   0  0  0  0  0  0  0  0  0  0  0  0
   -0.4941    2.8749   -2.4263 N   0  0  0  0  0  0  0  0  0  0  0  0
    0.4661    2.6540   -2.6854 H   0  0  0  0  0  0  0  0  0  0  0  0
   -1.4568    3.3719   -3.2851 C   0  0  0  0  0  0  0  0  0  0  0  0
   -1.3088    3.5711   -4.3428 H   0  0  0  0  0  0  0  0  0  0  0  0
   -2.5804    3.5656   -2.6365 N   0  0  0  0  0  0  0  0  0  0  0  0
   -2.3398    3.2007   -1.3174 C   0  0  0  0  0  0  0  0  0  0  0  0
   -3.0711    3.2564   -0.5166 H   0  0  0  0  0  0  0  0  0  0  0  0
    0.7830    0.2923    1.1570 C   0  0  0  0  0  0  0  0  0  0  0  0
    1.7029   -0.4541    0.8454 O   0  0  0  0  0  0  0  0  0  0  0  0
    0.8352    0.9373    2.3821 N   0  0  0  0  0  0  0  0  0  0  0  0
   -0.0169    1.4103    2.6660 H   0  0  0  0  0  0  0  0  0  0  0  0
    1.7712    0.5387    3.4267 C   0  0  0  0  0  0  0  0  0  0  0  0
    2.8041    0.6417    3.0775 H   0  0  0  0  0  0  0  0  0  0  0  0
    1.6430    1.1707    4.3107 H   0  0  0  0  0  0  0  0  0  0  0  0
    1.5992   -0.5035    3.7162 H   0  0  0  0  0  0  0  0  0  0  0  0
  1  2  1  0  0  0  0
  2  3  1  0  0  0  0
  2  4  1  0  0  0  0
  2  5  1  0  0  0  0
  5  6  2  0  0  0  0
  5  7  1  0  0  0  0
  7  8  1  0  0  0  0
  7  9  1  0  0  0  0
  9 10  1  0  0  0  0
  9 11  1  0  0  0  0
  9 22  1  0  0  0  0
 11 12  1  0  0  0  0
 11 13  1  0  0  0  0
 11 14  1  0  0  0  0
 14 15  1  0  0  0  0
 14 20  2  0  0  0  0
 15 16  1  0  0  0  0
 15 17  1  0  0  0  0
 17 18  1  0  0  0  0
 17 19  2  0  0  0  0
 19 20  1  0  0  0  0
 20 21  1  0  0  0  0
 22 23  2  0  0  0  0
 22 24  1  0  0  0  0
 24 25  1  0  0  0  0
 24 26  1  0  0  0  0
 26 27  1  0  0  0  0
 26 28  1  0  0  0  0
 26 29  1  0  0  0  0
M  END
$$$$

  -OEChem-01062216083D

 29 29  0     1  0  0  0  0  0999 V2000
   -3.4811   -2.5786    0.8075 H   0  0  0  0  0  0  0  0  0  0  0  0
   -3.3205   -1.6401    0.2692 C   0  0  0  0  0  0  0  0  0  0  0  0
   -4.1294   -0.9484    0.5168 H   0  0  0  0  0  0  0  0  0  0  0  0
   -3.3400   -1.8449   -0.8040 H   0  0  0  0  0  0  0  0  0  0  0  0
   -1.9843   -1.0362    0.6586 C   0  0  0  0  0  0  0  0  0  0  0  0
   -1.3598   -1.5265    1.5814 O   0  0  0  0  0  0  0  0  0  0  0  0
   -1.5504    0.1009    0.0020 N   0  0  0  0  0  0  0  0  0  0  0  0
   -2.1584    0.4164   -0.7495 H   0  0  0  0  0  0  0  0  0  0  0  0
   -0.2063    0.7216    0.0388 C   0  0  1  0  0  0  0  0  0  0  0  0
    0.2896    0.4660   -0.9035 H   0  0  0  0  0  0  0  0  0  0  0  0
   -0.3847    2.2475    0.0911 C   0  0  0  0  0  0  0  0  0  0  0  0
   -0.9877    2.5206    0.9636 H   0  0  0  0  0  0  0  0  0  0  0  0
    0.5906    2.7354    0.1963 H   0  0  0  0  0  0  0  0  0  0  0  0
   -1.0479    2.7430   -1.1679 C   0  0  0  0  0  0  0  0  0  0  0  0
   -0.4827    2.8796   -2.4168 N   0  0  0  0  0  0  0  0  0  0  0  0
    0.4788    2.6617   -2.6735 H   0  0  0  0  0  0  0  0  0  0  0  0
   -1.4420    3.3842   -3.2747 C   0  0  0  0  0  0  0  0  0  0  0  0
   -1.2895    3.5927   -4.3299 H   0  0  0  0  0  0  0  0  0  0  0  0
   -2.5685    3.5719   -2.6289 N   0  0  0  0  0  0  0  0  0  0  0  0
   -2.3324    3.1962   -1.3119 C   0  0  0  0  0  0  0  0  0  0  0  0
   -3.0666    3.2453   -0.5132 H   0  0  0  0  0  0  0  0  0  0  0  0
    0.7802    0.2864    1.1499 C   0  0  0  0  0  0  0  0  0  0  0  0
    1.8458   -0.2193    0.8189 O   0  0  0  0  0  0  0  0  0  0  0  0
    0.6168    0.7199    2.4548 N   0  0  0  0  0  0  0  0  0  0  0  0
   -0.3420    0.9275    2.7184 H   0  0  0  0  0  0  0  0  0  0  0  0
    1.5361    0.3277    3.5162 C   0  0  0  0  0  0  0  0  0  0  0  0
    2.5542    0.6586    3.2854 H   0  0  0  0  0  0  0  0  0  0  0  0
    1.2346    0.7820    4.4645 H   0  0  0  0  0  0  0  0  0  0  0  0
    1.5377   -0.7610    3.6367 H   0  0  0  0  0  0  0  0  0  0  0  0
  1  2  1  0  0  0  0
  2  3  1  0  0  0  0
  2  4  1  0  0  0  0
  2  5  1  0  0  0  0
  5  6  2  0  0  0  0
  5  7  1  0  0  0  0
  7  8  1  0  0  0  0
  7  9  1  0  0  0  0
  9 10  1  0  0  0  0
  9 11  1  0  0  0  0
  9 22  1  0  0  0  0
 11 12  1  0  0  0  0
 11 13  1  0  0  0  0
 11 14  1  0  0  0  0
 14 15  1  0  0  0  0
 14 20  2  0  0  0  0
 15 16  1  0  0  0  0
 15 17  1  0  0  0  0
 17 18  1  0  0  0  0
 17 19  2  0  0  0  0
 19 20  1  0  0  0  0
 20 21  1  0  0  0  0
 22 23  2  0  0  0  0
 22 24  1  0  0  0  0
 24 25  1  0  0  0  0
 24 26  1  0  0  0  0
 26 27  1  0  0  0  0
 26 28  1  0  0  0  0
 26 29  1  0  0  0  0
M  END
$$$$

  -OEChem-01062216083D

 29 29  0     1  0  0  0  0  0999 V2000
   -3.5609   -2.5567    0.7694 H   0  0  0  0  0  0  0  0  0  0  0  0
   -3.3759   -1.6180    0.2394 C   0  0  0  0  0  0  0  0  0  0  0  0
   -4.1609   -0.9045    0.5013 H   0  0  0  0  0  0  0  0  0  0  0  0
   -3.4118   -1.8106   -0.8356 H   0  0  0  0  0  0  0  0  0  0  0  0
   -2.0180   -1.0595    0.6218 C   0  0  0  0  0  0  0  0  0  0  0  0
   -1.3903   -1.5902    1.5197 O   0  0  0  0  0  0  0  0  0  0  0  0
   -1.5584    0.0742   -0.0216 N   0  0  0  0  0  0  0  0  0  0  0  0
   -2.1685    0.4232   -0.7567 H   0  0  0  0  0  0  0  0  0  0  0  0
   -0.2122    0.6914    0.0340 C   0  0  1  0  0  0  0  0  0  0  0  0
    0.2904    0.4422   -0.9062 H   0  0  0  0  0  0  0  0  0  0  0  0
   -0.3917    2.2162    0.1043 C   0  0  0  0  0  0  0  0  0  0  0  0
   -0.9996    2.4768    0.9773 H   0  0  0  0  0  0  0  0  0  0  0  0
    0.5824    2.7040    0.2234 H   0  0  0  0  0  0  0  0  0  0  0  0
   -1.0451    2.7271   -1.1537 C   0  0  0  0  0  0  0  0  0  0  0  0
   -0.4682    2.8788   -2.3951 N   0  0  0  0  0  0  0  0  0  0  0  0
    0.4963    2.6649   -2.6443 H   0  0  0  0  0  0  0  0  0  0  0  0
   -1.4198    3.3931   -3.2560 C   0  0  0  0  0  0  0  0  0  0  0  0
   -1.2578    3.6133   -4.3074 H   0  0  0  0  0  0  0  0  0  0  0  0
   -2.5523    3.5733   -2.6185 N   0  0  0  0  0  0  0  0  0  0  0  0
   -2.3277    3.1836   -1.3035 C   0  0  0  0  0  0  0  0  0  0  0  0
   -3.0692    3.2252   -0.5110 H   0  0  0  0  0  0  0  0  0  0  0  0
    0.7766    0.2715    1.1484 C   0  0  0  0  0  0  0  0  0  0  0  0
    1.9406    0.0507    0.8366 O   0  0  0  0  0  0  0  0  0  0  0  0
    0.4569    0.4451    2.4835 N   0  0  0  0  0  0  0  0  0  0  0  0
   -0.5357    0.3429    2.6824 H   0  0  0  0  0  0  0  0  0  0  0  0
    1.3867    0.0891    3.5481 C   0  0  0  0  0  0  0  0  0  0  0  0
    2.3190    0.6554    3.4512 H   0  0  0  0  0  0  0  0  0  0  0  0
    0.9475    0.3169    4.5239 H   0  0  0  0  0  0  0  0  0  0  0  0
    1.6184   -0.9806    3.5108 H   0  0  0  0  0  0  0  0  0  0  0  0
  1  2  1  0  0  0  0
  2  3  1  0  0  0  0
  2  4  1  0  0  0  0
  2  5  1  0  0  0  0
  5  6  2  0  0  0  0
  5  7  1  0  0  0  0
  7  8  1  0  0  0  0
  7  9  1  0  0  0  0
  9 10  1  0  0  0  0
  9 11  1  0  0  0  0
  9 22  1  0  0  0  0
 11 12  1  0  0  0  0
 11 13  1  0  0  0  0
 11 14  1  0  0  0  0
 14 15  1  0  0  0  0
 14 20  2  0  0  0  0
 15 16  1  0  0  0  0
 15 17  1  0  0  0  0
 17 18  1  0  0  0  0
 17 19  2  0  0  0  0
 19 20  1  0  0  0  0
 20 21  1  0  0  0  0
 22 23  2  0  0  0  0
 22 24  1  0  0  0  0
 24 25  1  0  0  0  0
 24 26  1  0  0  0  0
 26 27  1  0  0  0  0
 26 28  1  0  0  0  0
 26 29  1  0  0  0  0
M  END
$$$$

  -OEChem-01062216083D

 29 29  0     1  0  0  0  0  0999 V2000
   -3.6709   -2.5094    0.7236 H   0  0  0  0  0  0  0  0  0  0  0  0
   -3.4486   -1.5724    0.2049 C   0  0  0  0  0  0  0  0  0  0  0  0
   -4.1898   -0.8240    0.4959 H   0  0  0  0  0  0  0  0  0  0  0  0
   -3.5167   -1.7438   -0.8722 H   0  0  0  0  0  0  0  0  0  0  0  0
   -2.0562   -1.0911    0.5672 C   0  0  0  0  0  0  0  0  0  0  0  0
   -1.4244   -1.6952    1.4140 O   0  0  0  0  0  0  0  0  0  0  0  0
   -1.5623    0.0416   -0.0515 N   0  0  0  0  0  0  0  0  0  0  0  0
   -2.1800    0.4448   -0.7519 H   0  0  0  0  0  0  0  0  0  0  0  0
   -0.2164    0.6597    0.0338 C   0  0  1  0  0  0  0  0  0  0  0  0
    0.2998    0.4223   -0.9020 H   0  0  0  0  0  0  0  0  0  0  0  0
   -0.4157    2.1818    0.1182 C   0  0  0  0  0  0  0  0  0  0  0  0
   -1.0395    2.4229    0.9857 H   0  0  0  0  0  0  0  0  0  0  0  0
    0.5494    2.6817    0.2585 H   0  0  0  0  0  0  0  0  0  0  0  0
   -1.0537    2.7033   -1.1433 C   0  0  0  0  0  0  0  0  0  0  0  0
   -0.4555    2.8776   -2.3713 N   0  0  0  0  0  0  0  0  0  0  0  0
    0.5167    2.6796   -2.6035 H   0  0  0  0  0  0  0  0  0  0  0  0
   -1.3947    3.3980   -3.2419 C   0  0  0  0  0  0  0  0  0  0  0  0
   -1.2146    3.6356   -4.2865 H   0  0  0  0  0  0  0  0  0  0  0  0
   -2.5402    3.5600   -2.6227 N   0  0  0  0  0  0  0  0  0  0  0  0
   -2.3363    3.1535   -1.3095 C   0  0  0  0  0  0  0  0  0  0  0  0
   -3.0910    3.1800   -0.5293 H   0  0  0  0  0  0  0  0  0  0  0  0
    0.7778    0.2629    1.1538 C   0  0  0  0  0  0  0  0  0  0  0  0
    1.9751    0.3130    0.8977 O   0  0  0  0  0  0  0  0  0  0  0  0
    0.3810    0.1420    2.4728 N   0  0  0  0  0  0  0  0  0  0  0  0
   -0.5703   -0.2127    2.5728 H   0  0  0  0  0  0  0  0  0  0  0  0
    1.3234   -0.1923    3.5334 C   0  0  0  0  0  0  0  0  0  0  0  0
    2.1147    0.5619    3.5974 H   0  0  0  0  0  0  0  0  0  0  0  0
    0.8072   -0.2305    4.4973 H   0  0  0  0  0  0  0  0  0  0  0  0
    1.7812   -1.1690    3.3444 H   0  0  0  0  0  0  0  0  0  0  0  0
  1  2  1  0  0  0  0
  2  3  1  0  0  0  0
  2  4  1  0  0  0  0
  2  5  1  0  0  0  0
  5  6  2  0  0  0  0
  5  7  1  0  0  0  0
  7  8  1  0  0  0  0
  7  9  1  0  0  0  0
  9 10  1  0  0  0  0
  9 11  1  0  0  0  0
  9 22  1  0  0  0  0
 11 12  1  0  0  0  0
 11 13  1  0  0  0  0
 11 14  1  0  0  0  0
 14 15  1  0  0  0  0
 14 20  2  0  0  0  0
 15 16  1  0  0  0  0
 15 17  1  0  0  0  0
 17 18  1  0  0  0  0
 17 19  2  0  0  0  0
 19 20  1  0  0  0  0
 20 21  1  0  0  0  0
 22 23  2  0  0  0  0
 22 24  1  0  0  0  0
 24 25  1  0  0  0  0
 24 26  1  0  0  0  0
 26 27  1  0  0  0  0
 26 28  1  0  0  0  0
 26 29  1  0  0  0  0
M  END
$$$$

  -OEChem-01062216083D

 29 29  0     1  0  0  0  0  0999 V2000
   -3.7824   -2.4503    0.6713 H   0  0  0  0  0  0  0  0  0  0  0  0
   -3.5198   -1.5136    0.1713 C   0  0  0  0  0  0  0  0  0  0  0  0
   -4.2098   -0.7334    0.5015 H   0  0  0  0  0  0  0  0  0  0  0  0
   -3.6250   -1.6512   -0.9077 H   0  0  0  0  0  0  0  0  0  0  0  0
   -2.0935   -1.1206    0.5075 C   0  0  0  0  0  0  0  0  0  0  0  0
   -1.4560   -1.8195    1.2728 O   0  0  0  0  0  0  0  0  0  0  0  0
   -1.5652    0.0138   -0.0785 N   0  0  0  0  0  0  0  0  0  0  0  0
   -2.1922    0.4747   -0.7334 H   0  0  0  0  0  0  0  0  0  0  0  0
   -0.2216    0.6351    0.0402 C   0  0  1  0  0  0  0  0  0  0  0  0
    0.3098    0.4111   -0.8903 H   0  0  0  0  0  0  0  0  0  0  0  0
   -0.4493    2.1548    0.1322 C   0  0  0  0  0  0  0  0  0  0  0  0
   -1.0935    2.3776    0.9896 H   0  0  0  0  0  0  0  0  0  0  0  0
    0.5023    2.6735    0.2949 H   0  0  0  0  0  0  0  0  0  0  0  0
   -1.0691    2.6789   -1.1378 C   0  0  0  0  0  0  0  0  0  0  0  0
   -0.4468    2.8749   -2.3504 N   0  0  0  0  0  0  0  0  0  0  0  0
    0.5329    2.6919   -2.5631 H   0  0  0  0  0  0  0  0  0  0  0  0
   -1.3729    3.3948   -3.2353 C   0  0  0  0  0  0  0  0  0  0  0  0
   -1.1730    3.6479   -4.2728 H   0  0  0  0  0  0  0  0  0  0  0  0
   -2.5334    3.5360   -2.6395 N   0  0  0  0  0  0  0  0  0  0  0  0
   -2.3528    3.1171   -1.3268 C   0  0  0  0  0  0  0  0  0  0  0  0
   -3.1241    3.1278   -0.5626 H   0  0  0  0  0  0  0  0  0  0  0  0
    0.7789    0.2591    1.1665 C   0  0  0  0  0  0  0  0  0  0  0  0
    1.9605    0.5287    0.9841 O   0  0  0  0  0  0  0  0  0  0  0  0
    0.3884   -0.1621    2.4233 N   0  0  0  0  0  0  0  0  0  0  0  0
   -0.5091   -0.6497    2.4333 H   0  0  0  0  0  0  0  0  0  0  0  0
    1.3472   -0.5094    3.4651 C   0  0  0  0  0  0  0  0  0  0  0  0
    1.9823    0.3496    3.7053 H   0  0  0  0  0  0  0  0  0  0  0  0
    0.8200   -0.8118    4.3750 H   0  0  0  0  0  0  0  0  0  0  0  0
    1.9834   -1.3391    3.1394 H   0  0  0  0  0  0  0  0  0  0  0  0
  1  2  1  0  0  0  0
  2  3  1  0  0  0  0
  2  4  1  0  0  0  0
  2  5  1  0  0  0  0
  5  6  2  0  0  0  0
  5  7  1  0  0  0  0
  7  8  1  0  0  0  0
  7  9  1  0  0  0  0
  9 10  1  0  0  0  0
  9 11  1  0  0  0  0
  9 22  1  0  0  0  0
 11 12  1  0  0  0  0
 11 13  1  0  0  0  0
 11 14  1  0  0  0  0
 14 15  1  0  0  0  0
 14 20  2  0  0  0  0
 15 16  1  0  0  0  0
 15 17  1  0  0  0  0
 17 18  1  0  0  0  0
 17 19  2  0  0  0  0
 19 20  1  0  0  0  0
 20 21  1  0  0  0  0
 22 23  2  0  0  0  0
 22 24  1  0  0  0  0
 24 25  1  0  0  0  0
 24 26  1  0  0  0  0
 26 27  1  0  0  0  0
 26 28  1  0  0  0  0
 26 29  1  0  0  0  0
M  END
$$$$

  -OEChem-01062216083D

 29 29  0     1  0  0  0  0  0999 V2000
   -3.8800   -2.3792    0.6479 H   0  0  0  0  0  0  0  0  0  0  0  0
   -3.5807   -1.4504    0.1537 C   0  0  0  0  0  0  0  0  0  0  0  0
   -4.2169   -0.6394    0.5165 H   0  0  0  0  0  0  0  0  0  0  0  0
   -3.7251   -1.5640   -0.9236 H   0  0  0  0  0  0  0  0  0  0  0  0
   -2.1255   -1.1417    0.4528 C   0  0  0  0  0  0  0  0  0  0  0  0
   -1.4907   -1.9222    1.1370 O   0  0  0  0  0  0  0  0  0  0  0  0
   -1.5662   -0.0069   -0.1030 N   0  0  0  0  0  0  0  0  0  0  0  0
   -2.1990    0.5049   -0.7129 H   0  0  0  0  0  0  0  0  0  0  0  0
   -0.2231    0.6123    0.0450 C   0  0  1  0  0  0  0  0  0  0  0  0
    0.3222    0.3997   -0.8800 H   0  0  0  0  0  0  0  0  0  0  0  0
   -0.4795    2.1303    0.1410 C   0  0  0  0  0  0  0  0  0  0  0  0
   -1.1434    2.3353    0.9877 H   0  0  0  0  0  0  0  0  0  0  0  0
    0.4567    2.6690    0.3244 H   0  0  0  0  0  0  0  0  0  0  0  0
   -1.0835    2.6565   -1.1362 C   0  0  0  0  0  0  0  0  0  0  0  0
   -0.4406    2.8734   -2.3346 N   0  0  0  0  0  0  0  0  0  0  0  0
    0.5454    2.7064   -2.5298 H   0  0  0  0  0  0  0  0  0  0  0  0
   -1.3556    3.3939   -3.2307 C   0  0  0  0  0  0  0  0  0  0  0  0
   -1.1390    3.6616   -4.2612 H   0  0  0  0  0  0  0  0  0  0  0  0
   -2.5286    3.5157   -2.6554 N   0  0  0  0  0  0  0  0  0  0  0  0
   -2.3679    3.0845   -1.3444 C   0  0  0  0  0  0  0  0  0  0  0  0
   -3.1528    3.0818   -0.5939 H   0  0  0  0  0  0  0  0  0  0  0  0
    0.7792    0.2460    1.1783 C   0  0  0  0  0  0  0  0  0  0  0  0
    1.9190    0.6873    1.0834 O   0  0  0  0  0  0  0  0  0  0  0  0
    0.4562   -0.4498    2.3267 N   0  0  0  0  0  0  0  0  0  0  0  0
   -0.3965   -1.0090    2.2645 H   0  0  0  0  0  0  0  0  0  0  0  0
    1.4414   -0.8285    3.3320 C   0  0  0  0  0  0  0  0  0  0  0  0
    1.9192    0.0609    3.7561 H   0  0  0  0  0  0  0  0  0  0  0  0
    0.9570   -1.3789    4.1439 H   0  0  0  0  0  0  0  0  0  0  0  0
    2.2128   -1.4678    2.8903 H   0  0  0  0  0  0  0  0  0  0  0  0
  1  2  1  0  0  0  0
  2  3  1  0  0  0  0
  2  4  1  0  0  0  0
  2  5  1  0  0  0  0
  5  6  2  0  0  0  0
  5  7  1  0  0  0  0
  7  8  1  0  0  0  0
  7  9  1  0  0  0  0
  9 10  1  0  0  0  0
  9 11  1  0  0  0  0
  9 22  1  0  0  0  0
 11 12  1  0  0  0  0
 11 13  1  0  0  0  0
 11 14  1  0  0  0  0
 14 15  1  0  0  0  0
 14 20  2  0  0  0  0
 15 16  1  0  0  0  0
 15 17  1  0  0  0  0
 17 18  1  0  0  0  0
 17 19  2  0  0  0  0
 19 20  1  0  0  0  0
 20 21  1  0  0  0  0
 22 23  2  0  0  0  0
 22 24  1  0  0  0  0
 24 25  1  0  0  0  0
 24 26  1  0  0  0  0
 26 27  1  0  0  0  0
 26 28  1  0  0  0  0
 26 29  1  0  0  0  0
M  END
$$$$

  -OEChem-01062216083D

 29 29  0     1  0  0  0  0  0999 V2000
   -3.5738   -2.5090    0.8334 H   0  0  0  0  0  0  0  0  0  0  0  0
   -3.3507   -1.5509    0.3552 C   0  0  0  0  0  0  0  0  0  0  0  0
   -4.0173   -0.7900    0.7681 H   0  0  0  0  0  0  0  0  0  0  0  0
   -3.5333   -1.6435   -0.7182 H   0  0  0  0  0  0  0  0  0  0  0  0
   -1.9051   -1.1636    0.6065 C   0  0  0  0  0  0  0  0  0  0  0  0
   -1.1918   -1.9483    1.1962 O   0  0  0  0  0  0  0  0  0  0  0  0
   -1.4288   -0.0083    0.0190 N   0  0  0  0  0  0  0  0  0  0  0  0
   -2.1121    0.4404   -0.5844 H   0  0  0  0  0  0  0  0  0  0  0  0
   -0.2188    0.8165    0.2704 C   0  0  1  0  0  0  0  0  0  0  0  0
    0.4758    0.6018   -0.5472 H   0  0  0  0  0  0  0  0  0  0  0  0
   -0.7191    2.2754    0.1317 C   0  0  0  0  0  0  0  0  0  0  0  0
   -1.5250    2.4546    0.8517 H   0  0  0  0  0  0  0  0  0  0  0  0
    0.0787    2.9906    0.3560 H   0  0  0  0  0  0  0  0  0  0  0  0
   -1.1935    2.5568   -1.2722 C   0  0  0  0  0  0  0  0  0  0  0  0
   -0.4173    2.7547   -2.3922 N   0  0  0  0  0  0  0  0  0  0  0  0
    0.6002    2.7310   -2.4336 H   0  0  0  0  0  0  0  0  0  0  0  0
   -1.2538    3.0218   -3.4599 C   0  0  0  0  0  0  0  0  0  0  0  0
   -0.9268    3.2133   -4.4781 H   0  0  0  0  0  0  0  0  0  0  0  0
   -2.5048    3.0095   -3.0646 N   0  0  0  0  0  0  0  0  0  0  0  0
   -2.4807    2.7455   -1.7009 C   0  0  0  0  0  0  0  0  0  0  0  0
   -3.3606    2.6915   -1.0668 H   0  0  0  0  0  0  0  0  0  0  0  0
    0.6691    0.7110    1.5553 C   0  0  0  0  0  0  0  0  0  0  0  0
    1.4793    1.5955    1.7945 O   0  0  0  0  0  0  0  0  0  0  0  0
    0.5221   -0.1125    2.6441 N   0  0  0  0  0  0  0  0  0  0  0  0
    0.7489    0.4133    3.4833 H   0  0  0  0  0  0  0  0  0  0  0  0
    1.2499   -1.3769    2.6048 C   0  0  0  0  0  0  0  0  0  0  0  0
    2.2515   -1.2481    3.0272 H   0  0  0  0  0  0  0  0  0  0  0  0
    0.7181   -2.1345    3.1892 H   0  0  0  0  0  0  0  0  0  0  0  0
    1.3574   -1.7467    1.5793 H   0  0  0  0  0  0  0  0  0  0  0  0
  1  2  1  0  0  0  0
  2  3  1  0  0  0  0
  2  4  1  0  0  0  0
  2  5  1  0  0  0  0
  5  6  2  0  0  0  0
  5  7  1  0  0  0  0
  7  8  1  0  0  0  0
  7  9  1  0  0  0  0
  9 10  1  0  0  0  0
  9 11  1  0  0  0  0
  9 22  1  0  0  0  0
 11 12  1  0  0  0  0
 11 13  1  0  0  0  0
 11 14  1  0  0  0  0
 14 15  1  0  0  0  0
 14 20  2  0  0  0  0
 15 16  1  0  0  0  0
 15 17  1  0  0  0  0
 17 18  1  0  0  0  0
 17 19  2  0  0  0  0
 19 20  1  0  0  0  0
 20 21  1  0  0  0  0
 22 23  2  0  0  0  0
 22 24  1  0  0  0  0
 24 25  1  0  0  0  0
 24 26  1  0  0  0  0
 26 27  1  0  0  0  0
 26 28  1  0  0  0  0
 26 29  1  0  0  0  0
M  END
$$$$

  -OEChem-01062216083D

 29 29  0     1  0  0  0  0  0999 V2000
   -3.4427   -2.4986    1.1274 H   0  0  0  0  0  0  0  0  0  0  0  0
   -3.2717   -1.5109    0.6898 C   0  0  0  0  0  0  0  0  0  0  0  0
   -3.6338   -0.7514    1.3865 H   0  0  0  0  0  0  0  0  0  0  0  0
   -3.8342   -1.4377   -0.2443 H   0  0  0  0  0  0  0  0  0  0  0  0
   -1.7922   -1.3073    0.4216 C   0  0  0  0  0  0  0  0  0  0  0  0
   -1.0373   -2.2520    0.5469 O   0  0  0  0  0  0  0  0  0  0  0  0
   -1.3788   -0.1271   -0.1602 N   0  0  0  0  0  0  0  0  0  0  0  0
   -2.1443    0.4880   -0.4201 H   0  0  0  0  0  0  0  0  0  0  0  0
   -0.0404    0.5113   -0.2034 C   0  0  1  0  0  0  0  0  0  0  0  0
    0.3392    0.3517   -1.2175 H   0  0  0  0  0  0  0  0  0  0  0  0
   -0.3054    2.0193    0.0036 C   0  0  0  0  0  0  0  0  0  0  0  0
   -0.8238    2.1717    0.9563 H   0  0  0  0  0  0  0  0  0  0  0  0
    0.6366    2.5763    0.0542 H   0  0  0  0  0  0  0  0  0  0  0  0
   -1.1186    2.5893   -1.1308 C   0  0  0  0  0  0  0  0  0  0  0  0
   -0.6827    2.8758   -2.4051 N   0  0  0  0  0  0  0  0  0  0  0  0
    0.2565    2.7249   -2.7699 H   0  0  0  0  0  0  0  0  0  0  0  0
   -1.7376    3.4178   -3.1151 C   0  0  0  0  0  0  0  0  0  0  0  0
   -1.6962    3.7317   -4.1544 H   0  0  0  0  0  0  0  0  0  0  0  0
   -2.8005    3.4967   -2.3497 N   0  0  0  0  0  0  0  0  0  0  0  0
   -2.4234    3.0054   -1.1063 C   0  0  0  0  0  0  0  0  0  0  0  0
   -3.0753    2.9553   -0.2393 H   0  0  0  0  0  0  0  0  0  0  0  0
    1.1604    0.1232    0.7175 C   0  0  0  0  0  0  0  0  0  0  0  0
    2.2323    0.6694    0.4986 O   0  0  0  0  0  0  0  0  0  0  0  0
    1.3492   -0.9814    1.5119 N   0  0  0  0  0  0  0  0  0  0  0  0
    2.3404   -1.2020    1.5553 H   0  0  0  0  0  0  0  0  0  0  0  0
    0.6912   -1.0194    2.8148 C   0  0  0  0  0  0  0  0  0  0  0  0
    0.5315   -0.0076    3.2028 H   0  0  0  0  0  0  0  0  0  0  0  0
   -0.2719   -1.5312    2.7723 H   0  0  0  0  0  0  0  0  0  0  0  0
    1.3232   -1.5594    3.5266 H   0  0  0  0  0  0  0  0  0  0  0  0
  1  2  1  0  0  0  0
  2  3  1  0  0  0  0
  2  4  1  0  0  0  0
  2  5  1  0  0  0  0
  5  6  2  0  0  0  0
  5  7  1  0  0  0  0
  7  8  1  0  0  0  0
  7  9  1  0  0  0  0
  9 10  1  0  0  0  0
  9 11  1  0  0  0  0
  9 22  1  0  0  0  0
 11 12  1  0  0  0  0
 11 13  1  0  0  0  0
 11 14  1  0  0  0  0
 14 15  1  0  0  0  0
 14 20  2  0  0  0  0
 15 16  1  0  0  0  0
 15 17  1  0  0  0  0
 17 18  1  0  0  0  0
 17 19  2  0  0  0  0
 19 20  1  0  0  0  0
 20 21  1  0  0  0  0
 22 23  2  0  0  0  0
 22 24  1  0  0  0  0
 24 25  1  0  0  0  0
 24 26  1  0  0  0  0
 26 27  1  0  0  0  0
 26 28  1  0  0  0  0
 26 29  1  0  0  0  0
M  END
$$$$

  -OEChem-01062216083D

 29 29  0     1  0  0  0  0  0999 V2000
   -3.8981   -2.3403    0.6173 H   0  0  0  0  0  0  0  0  0  0  0  0
   -3.5629   -1.4326    0.1073 C   0  0  0  0  0  0  0  0  0  0  0  0
   -4.1695   -0.5924    0.4538 H   0  0  0  0  0  0  0  0  0  0  0  0
   -3.7087   -1.5598   -0.9682 H   0  0  0  0  0  0  0  0  0  0  0  0
   -2.0976   -1.1727    0.4039 C   0  0  0  0  0  0  0  0  0  0  0  0
   -1.4735   -2.0174    1.0159 O   0  0  0  0  0  0  0  0  0  0  0  0
   -1.5308   -0.0148   -0.0955 N   0  0  0  0  0  0  0  0  0  0  0  0
   -2.1800    0.5360   -0.6517 H   0  0  0  0  0  0  0  0  0  0  0  0
   -0.1849    0.6069    0.0388 C   0  0  1  0  0  0  0  0  0  0  0  0
    0.3368    0.4249   -0.9055 H   0  0  0  0  0  0  0  0  0  0  0  0
   -0.4827    2.1231    0.1533 C   0  0  0  0  0  0  0  0  0  0  0  0
   -1.1336    2.3040    1.0156 H   0  0  0  0  0  0  0  0  0  0  0  0
    0.4350    2.6978    0.3140 H   0  0  0  0  0  0  0  0  0  0  0  0
   -1.1199    2.6432   -1.1115 C   0  0  0  0  0  0  0  0  0  0  0  0
   -0.5052    2.8892   -2.3189 N   0  0  0  0  0  0  0  0  0  0  0  0
    0.4822    2.7576   -2.5318 H   0  0  0  0  0  0  0  0  0  0  0  0
   -1.4506    3.3906   -3.1941 C   0  0  0  0  0  0  0  0  0  0  0  0
   -1.2607    3.6722   -4.2260 H   0  0  0  0  0  0  0  0  0  0  0  0
   -2.6158    3.4749   -2.5970 N   0  0  0  0  0  0  0  0  0  0  0  0
   -2.4187    3.0392   -1.2925 C   0  0  0  0  0  0  0  0  0  0  0  0
   -3.1890    3.0097   -0.5275 H   0  0  0  0  0  0  0  0  0  0  0  0
    0.8605    0.1852    1.1251 C   0  0  0  0  0  0  0  0  0  0  0  0
    1.7151    0.9932    1.4721 O   0  0  0  0  0  0  0  0  0  0  0  0
    0.9736   -1.0805    1.6640 N   0  0  0  0  0  0  0  0  0  0  0  0
    0.2193   -1.7346    1.4470 H   0  0  0  0  0  0  0  0  0  0  0  0
    1.9472   -1.4584    2.6811 C   0  0  0  0  0  0  0  0  0  0  0  0
    1.8101   -0.8573    3.5859 H   0  0  0  0  0  0  0  0  0  0  0  0
    1.8246   -2.5134    2.9439 H   0  0  0  0  0  0  0  0  0  0  0  0
    2.9665   -1.3121    2.3093 H   0  0  0  0  0  0  0  0  0  0  0  0
  1  2  1  0  0  0  0
  2  3  1  0  0  0  0
  2  4  1  0  0  0  0
  2  5  1  0  0  0  0
  5  6  2  0  0  0  0
  5  7  1  0  0  0  0
  7  8  1  0  0  0  0
  7  9  1  0  0  0  0
  9 10  1  0  0  0  0
  9 11  1  0  0  0  0
  9 22  1  0  0  0  0
 11 12  1  0  0  0  0
 11 13  1  0  0  0  0
 11 14  1  0  0  0  0
 14 15  1  0  0  0  0
 14 20  2  0  0  0  0
 15 16  1  0  0  0  0
 15 17  1  0  0  0  0
 17 18  1  0  0  0  0
 17 19  2  0  0  0  0
 19 20  1  0  0  0  0
 20 21  1  0  0  0  0
 22 23  2  0  0  0  0
 22 24  1  0  0  0  0
 24 25  1  0  0  0  0
 24 26  1  0  0  0  0
 26 27  1  0  0  0  0
 26 28  1  0  0  0  0
 26 29  1  0  0  0  0
M  END
$$$$

  -OEChem-01062216083D

 29 29  0     1  0  0  0  0  0999 V2000
   -3.8435   -2.3101    0.7631 H   0  0  0  0  0  0  0  0  0  0  0  0
   -3.5439   -1.3847    0.2629 C   0  0  0  0  0  0  0  0  0  0  0  0
   -4.1128   -0.5557    0.6911 H   0  0  0  0  0  0  0  0  0  0  0  0
   -3.7786   -1.4683   -0.8011 H   0  0  0  0  0  0  0  0  0  0  0  0
   -2.0573   -1.1443    0.4485 C   0  0  0  0  0  0  0  0  0  0  0  0
   -1.3958   -1.9994    1.0052 O   0  0  0  0  0  0  0  0  0  0  0  0
   -1.5106    0.0078   -0.0857 N   0  0  0  0  0  0  0  0  0  0  0  0
   -2.1842    0.5753   -0.5939 H   0  0  0  0  0  0  0  0  0  0  0  0
   -0.1537    0.6105   -0.0003 C   0  0  1  0  0  0  0  0  0  0  0  0
    0.3396    0.4098   -0.9559 H   0  0  0  0  0  0  0  0  0  0  0  0
   -0.4072    2.1340    0.1062 C   0  0  0  0  0  0  0  0  0  0  0  0
   -1.0235    2.3426    0.9875 H   0  0  0  0  0  0  0  0  0  0  0  0
    0.5337    2.6803    0.2301 H   0  0  0  0  0  0  0  0  0  0  0  0
   -1.0707    2.6591   -1.1426 C   0  0  0  0  0  0  0  0  0  0  0  0
   -0.4914    2.8777   -2.3729 N   0  0  0  0  0  0  0  0  0  0  0  0
    0.4846    2.7205   -2.6179 H   0  0  0  0  0  0  0  0  0  0  0  0
   -1.4531    3.3954   -3.2204 C   0  0  0  0  0  0  0  0  0  0  0  0
   -1.2912    3.6625   -4.2608 H   0  0  0  0  0  0  0  0  0  0  0  0
   -2.5946    3.5155   -2.5850 N   0  0  0  0  0  0  0  0  0  0  0  0
   -2.3645    3.0863   -1.2837 C   0  0  0  0  0  0  0  0  0  0  0  0
   -3.1090    3.0828   -0.4931 H   0  0  0  0  0  0  0  0  0  0  0  0
    0.8941    0.1518    1.0670 C   0  0  0  0  0  0  0  0  0  0  0  0
    1.6133    0.9817    1.6128 O   0  0  0  0  0  0  0  0  0  0  0  0
    1.1503   -1.1738    1.3583 N   0  0  0  0  0  0  0  0  0  0  0  0
    0.4136   -1.8264    1.0811 H   0  0  0  0  0  0  0  0  0  0  0  0
    2.0756   -1.6037    2.3999 C   0  0  0  0  0  0  0  0  0  0  0  0
    1.7524   -1.2294    3.3768 H   0  0  0  0  0  0  0  0  0  0  0  0
    2.1127   -2.6965    2.4417 H   0  0  0  0  0  0  0  0  0  0  0  0
    3.0855   -1.2331    2.1951 H   0  0  0  0  0  0  0  0  0  0  0  0
  1  2  1  0  0  0  0
  2  3  1  0  0  0  0
  2  4  1  0  0  0  0
  2  5  1  0  0  0  0
  5  6  2  0  0  0  0
  5  7  1  0  0  0  0
  7  8  1  0  0  0  0
  7  9  1  0  0  0  0
  9 10  1  0  0  0  0
  9 11  1  0  0  0  0
  9 22  1  0  0  0  0
 11 12  1  0  0  0  0
 11 13  1  0  0  0  0
 11 14  1  0  0  0  0
 14 15  1  0  0  0  0
 14 20  2  0  0  0  0
 15 16  1  0  0  0  0
 15 17  1  0  0  0  0
 17 18  1  0  0  0  0
 17 19  2  0  0  0  0
 19 20  1  0  0  0  0
 20 21  1  0  0  0  0
 22 23  2  0  0  0  0
 22 24  1  0  0  0  0
 24 25  1  0  0  0  0
 24 26  1  0  0  0  0
 26 27  1  0  0  0  0
 26 28  1  0  0  0  0
 26 29  1  0  0  0  0
M  END
$$$$

  -OEChem-01062216083D

 29 29  0     1  0  0  0  0  0999 V2000
   -3.7066   -2.3613    0.8848 H   0  0  0  0  0  0  0  0  0  0  0  0
   -3.4609   -1.4351    0.3574 C   0  0  0  0  0  0  0  0  0  0  0  0
   -4.0255   -0.6154    0.8086 H   0  0  0  0  0  0  0  0  0  0  0  0
   -3.7541   -1.5378   -0.6903 H   0  0  0  0  0  0  0  0  0  0  0  0
   -1.9728   -1.1552    0.4547 C   0  0  0  0  0  0  0  0  0  0  0  0
   -1.2470   -2.0012    0.9434 O   0  0  0  0  0  0  0  0  0  0  0  0
   -1.4820    0.0105   -0.1029 N   0  0  0  0  0  0  0  0  0  0  0  0
   -2.1893    0.5806   -0.5595 H   0  0  0  0  0  0  0  0  0  0  0  0
   -0.1382    0.6366   -0.0215 C   0  0  1  0  0  0  0  0  0  0  0  0
    0.3661    0.4392   -0.9720 H   0  0  0  0  0  0  0  0  0  0  0  0
   -0.3908    2.1580    0.0849 C   0  0  0  0  0  0  0  0  0  0  0  0
   -1.0049    2.3676    0.9677 H   0  0  0  0  0  0  0  0  0  0  0  0
    0.5548    2.6968    0.2097 H   0  0  0  0  0  0  0  0  0  0  0  0
   -1.0588    2.6824   -1.1617 C   0  0  0  0  0  0  0  0  0  0  0  0
   -0.4864    2.9010   -2.3953 N   0  0  0  0  0  0  0  0  0  0  0  0
    0.4866    2.7382   -2.6479 H   0  0  0  0  0  0  0  0  0  0  0  0
   -1.4533    3.4179   -3.2377 C   0  0  0  0  0  0  0  0  0  0  0  0
   -1.2981    3.6827   -4.2799 H   0  0  0  0  0  0  0  0  0  0  0  0
   -2.5907    3.5400   -2.5957 N   0  0  0  0  0  0  0  0  0  0  0  0
   -2.3530    3.1105   -1.2959 C   0  0  0  0  0  0  0  0  0  0  0  0
   -3.0931    3.1081   -0.5011 H   0  0  0  0  0  0  0  0  0  0  0  0
    0.8814    0.1702    1.0640 C   0  0  0  0  0  0  0  0  0  0  0  0
    1.4148    0.9871    1.8075 O   0  0  0  0  0  0  0  0  0  0  0  0
    1.3281   -1.1361    1.1236 N   0  0  0  0  0  0  0  0  0  0  0  0
    0.6594   -1.8150    0.7527 H   0  0  0  0  0  0  0  0  0  0  0  0
    2.2464   -1.6061    2.1540 C   0  0  0  0  0  0  0  0  0  0  0  0
    1.8030   -1.4822    3.1476 H   0  0  0  0  0  0  0  0  0  0  0  0
    2.4703   -2.6663    2.0029 H   0  0  0  0  0  0  0  0  0  0  0  0
    3.1874   -1.0476    2.1151 H   0  0  0  0  0  0  0  0  0  0  0  0
  1  2  1  0  0  0  0
  2  3  1  0  0  0  0
  2  4  1  0  0  0  0
  2  5  1  0  0  0  0
  5  6  2  0  0  0  0
  5  7  1  0  0  0  0
  7  8  1  0  0  0  0
  7  9  1  0  0  0  0
  9 10  1  0  0  0  0
  9 11  1  0  0  0  0
  9 22  1  0  0  0  0
 11 12  1  0  0  0  0
 11 13  1  0  0  0  0
 11 14  1  0  0  0  0
 14 15  1  0  0  0  0
 14 20  2  0  0  0  0
 15 16  1  0  0  0  0
 15 17  1  0  0  0  0
 17 18  1  0  0  0  0
 17 19  2  0  0  0  0
 19 20  1  0  0  0  0
 20 21  1  0  0  0  0
 22 23  2  0  0  0  0
 22 24  1  0  0  0  0
 24 25  1  0  0  0  0
 24 26  1  0  0  0  0
 26 27  1  0  0  0  0
 26 28  1  0  0  0  0
 26 29  1  0  0  0  0
M  END
$$$$

  -OEChem-01062216083D

 29 29  0     1  0  0  0  0  0999 V2000
   -3.5634   -2.4071    1.0034 H   0  0  0  0  0  0  0  0  0  0  0  0
   -3.3747   -1.4839    0.4480 C   0  0  0  0  0  0  0  0  0  0  0  0
   -3.9307   -0.6710    0.9214 H   0  0  0  0  0  0  0  0  0  0  0  0
   -3.7297   -1.6107   -0.5776 H   0  0  0  0  0  0  0  0  0  0  0  0
   -1.8909   -1.1674    0.4476 C   0  0  0  0  0  0  0  0  0  0  0  0
   -1.1060   -1.9986    0.8687 O   0  0  0  0  0  0  0  0  0  0  0  0
   -1.4574    0.0068   -0.1383 N   0  0  0  0  0  0  0  0  0  0  0  0
   -2.1962    0.5808   -0.5359 H   0  0  0  0  0  0  0  0  0  0  0  0
   -0.1270    0.6536   -0.0538 C   0  0  1  0  0  0  0  0  0  0  0  0
    0.3929    0.4635   -0.9974 H   0  0  0  0  0  0  0  0  0  0  0  0
   -0.3817    2.1715    0.0608 C   0  0  0  0  0  0  0  0  0  0  0  0
   -0.9998    2.3735    0.9427 H   0  0  0  0  0  0  0  0  0  0  0  0
    0.5657    2.7045    0.1970 H   0  0  0  0  0  0  0  0  0  0  0  0
   -1.0510    2.7042   -1.1813 C   0  0  0  0  0  0  0  0  0  0  0  0
   -0.4810    2.9329   -2.4144 N   0  0  0  0  0  0  0  0  0  0  0  0
    0.4917    2.7735   -2.6702 H   0  0  0  0  0  0  0  0  0  0  0  0
   -1.4495    3.4569   -3.2506 C   0  0  0  0  0  0  0  0  0  0  0  0
   -1.2955    3.7329   -4.2900 H   0  0  0  0  0  0  0  0  0  0  0  0
   -2.5861    3.5719   -2.6058 N   0  0  0  0  0  0  0  0  0  0  0  0
   -2.3466    3.1298   -1.3105 C   0  0  0  0  0  0  0  0  0  0  0  0
   -3.0857    3.1177   -0.5148 H   0  0  0  0  0  0  0  0  0  0  0  0
    0.8557    0.1830    1.0583 C   0  0  0  0  0  0  0  0  0  0  0  0
    1.1812    0.9401    1.9670 O   0  0  0  0  0  0  0  0  0  0  0  0
    1.5163   -1.0256    0.9384 N   0  0  0  0  0  0  0  0  0  0  0  0
    0.9768   -1.7282    0.4313 H   0  0  0  0  0  0  0  0  0  0  0  0
    2.4257   -1.5143    1.9682 C   0  0  0  0  0  0  0  0  0  0  0  0
    1.8938   -1.6473    2.9160 H   0  0  0  0  0  0  0  0  0  0  0  0
    2.8501   -2.4774    1.6693 H   0  0  0  0  0  0  0  0  0  0  0  0
    3.2494   -0.8093    2.1218 H   0  0  0  0  0  0  0  0  0  0  0  0
  1  2  1  0  0  0  0
  2  3  1  0  0  0  0
  2  4  1  0  0  0  0
  2  5  1  0  0  0  0
  5  6  2  0  0  0  0
  5  7  1  0  0  0  0
  7  8  1  0  0  0  0
  7  9  1  0  0  0  0
  9 10  1  0  0  0  0
  9 11  1  0  0  0  0
  9 22  1  0  0  0  0
 11 12  1  0  0  0  0
 11 13  1  0  0  0  0
 11 14  1  0  0  0  0
 14 15  1  0  0  0  0
 14 20  2  0  0  0  0
 15 16  1  0  0  0  0
 15 17  1  0  0  0  0
 17 18  1  0  0  0  0
 17 19  2  0  0  0  0
 19 20  1  0  0  0  0
 20 21  1  0  0  0  0
 22 23  2  0  0  0  0
 22 24  1  0  0  0  0
 24 25  1  0  0  0  0
 24 26  1  0  0  0  0
 26 27  1  0  0  0  0
 26 28  1  0  0  0  0
 26 29  1  0  0  0  0
M  END
$$$$

  -OEChem-01062216083D

 29 29  0     1  0  0  0  0  0999 V2000
   -3.4454   -2.4506    1.0851 H   0  0  0  0  0  0  0  0  0  0  0  0
   -3.3062   -1.5230    0.5227 C   0  0  0  0  0  0  0  0  0  0  0  0
   -3.8505   -0.7223    1.0291 H   0  0  0  0  0  0  0  0  0  0  0  0
   -3.7150   -1.6550   -0.4820 H   0  0  0  0  0  0  0  0  0  0  0  0
   -1.8312   -1.1775    0.4421 C   0  0  0  0  0  0  0  0  0  0  0  0
   -1.0057   -1.9955    0.8107 O   0  0  0  0  0  0  0  0  0  0  0  0
   -1.4456    0.0023   -0.1661 N   0  0  0  0  0  0  0  0  0  0  0  0
   -2.2092    0.5782   -0.5099 H   0  0  0  0  0  0  0  0  0  0  0  0
   -0.1257    0.6663   -0.0801 C   0  0  1  0  0  0  0  0  0  0  0  0
    0.4028    0.4817   -1.0200 H   0  0  0  0  0  0  0  0  0  0  0  0
   -0.3774    2.1826    0.0419 C   0  0  0  0  0  0  0  0  0  0  0  0
   -0.9976    2.3815    0.9232 H   0  0  0  0  0  0  0  0  0  0  0  0
    0.5724    2.7091    0.1866 H   0  0  0  0  0  0  0  0  0  0  0  0
   -1.0475    2.7225   -1.1963 C   0  0  0  0  0  0  0  0  0  0  0  0
   -0.4772    2.9557   -2.4285 N   0  0  0  0  0  0  0  0  0  0  0  0
    0.4946    2.7943   -2.6859 H   0  0  0  0  0  0  0  0  0  0  0  0
   -1.4447    3.4852   -3.2622 C   0  0  0  0  0  0  0  0  0  0  0  0
   -1.2902    3.7645   -4.3006 H   0  0  0  0  0  0  0  0  0  0  0  0
   -2.5809    3.6002   -2.6169 N   0  0  0  0  0  0  0  0  0  0  0  0
   -2.3425    3.1505   -1.3239 C   0  0  0  0  0  0  0  0  0  0  0  0
   -3.0820    3.1368   -0.5289 H   0  0  0  0  0  0  0  0  0  0  0  0
    0.8333    0.1961    1.0482 C   0  0  0  0  0  0  0  0  0  0  0  0
    0.9348    0.8385    2.0883 O   0  0  0  0  0  0  0  0  0  0  0  0
    1.7191   -0.8389    0.8086 N   0  0  0  0  0  0  0  0  0  0  0  0
    1.3982   -1.5046    0.1091 H   0  0  0  0  0  0  0  0  0  0  0  0
    2.6089   -1.3460    1.8463 C   0  0  0  0  0  0  0  0  0  0  0  0
    2.0289   -1.7368    2.6890 H   0  0  0  0  0  0  0  0  0  0  0  0
    3.2307   -2.1532    1.4478 H   0  0  0  0  0  0  0  0  0  0  0  0
    3.2689   -0.5516    2.2102 H   0  0  0  0  0  0  0  0  0  0  0  0
  1  2  1  0  0  0  0
  2  3  1  0  0  0  0
  2  4  1  0  0  0  0
  2  5  1  0  0  0  0
  5  6  2  0  0  0  0
  5  7  1  0  0  0  0
  7  8  1  0  0  0  0
  7  9  1  0  0  0  0
  9 10  1  0  0  0  0
  9 11  1  0  0  0  0
  9 22  1  0  0  0  0
 11 12  1  0  0  0  0
 11 13  1  0  0  0  0
 11 14  1  0  0  0  0
 14 15  1  0  0  0  0
 14 20  2  0  0  0  0
 15 16  1  0  0  0  0
 15 17  1  0  0  0  0
 17 18  1  0  0  0  0
 17 19  2  0  0  0  0
 19 20  1  0  0  0  0
 20 21  1  0  0  0  0
 22 23  2  0  0  0  0
 22 24  1  0  0  0  0
 24 25  1  0  0  0  0
 24 26  1  0  0  0  0
 26 27  1  0  0  0  0
 26 28  1  0  0  0  0
 26 29  1  0  0  0  0
M  END
$$$$

  -OEChem-01062216083D

 29 29  0     1  0  0  0  0  0999 V2000
   -3.3840   -2.4644    1.1353 H   0  0  0  0  0  0  0  0  0  0  0  0
   -3.2689   -1.5376    0.5661 C   0  0  0  0  0  0  0  0  0  0  0  0
   -3.7974   -0.7374    1.0898 H   0  0  0  0  0  0  0  0  0  0  0  0
   -3.7125   -1.6730   -0.4233 H   0  0  0  0  0  0  0  0  0  0  0  0
   -1.7990   -1.1872    0.4322 C   0  0  0  0  0  0  0  0  0  0  0  0
   -0.9561   -2.0037    0.7648 O   0  0  0  0  0  0  0  0  0  0  0  0
   -1.4380   -0.0083   -0.1936 N   0  0  0  0  0  0  0  0  0  0  0  0
   -2.2146    0.5729   -0.4957 H   0  0  0  0  0  0  0  0  0  0  0  0
   -0.1237    0.6640   -0.1058 C   0  0  1  0  0  0  0  0  0  0  0  0
    0.4087    0.4823   -1.0439 H   0  0  0  0  0  0  0  0  0  0  0  0
   -0.3735    2.1782    0.0271 C   0  0  0  0  0  0  0  0  0  0  0  0
   -0.9941    2.3712    0.9094 H   0  0  0  0  0  0  0  0  0  0  0  0
    0.5768    2.7019    0.1769 H   0  0  0  0  0  0  0  0  0  0  0  0
   -1.0458    2.7274   -1.2051 C   0  0  0  0  0  0  0  0  0  0  0  0
   -0.4786    2.9688   -2.4369 N   0  0  0  0  0  0  0  0  0  0  0  0
    0.4915    2.8057   -2.6992 H   0  0  0  0  0  0  0  0  0  0  0  0
   -1.4478    3.5054   -3.2640 C   0  0  0  0  0  0  0  0  0  0  0  0
   -1.2958    3.7915   -4.3009 H   0  0  0  0  0  0  0  0  0  0  0  0
   -2.5816    3.6186   -2.6146 N   0  0  0  0  0  0  0  0  0  0  0  0
   -2.3407    3.1585   -1.3256 C   0  0  0  0  0  0  0  0  0  0  0  0
   -3.0780    3.1401   -0.5284 H   0  0  0  0  0  0  0  0  0  0  0  0
    0.8203    0.2013    1.0349 C   0  0  0  0  0  0  0  0  0  0  0  0
    0.7173    0.6897    2.1553 O   0  0  0  0  0  0  0  0  0  0  0  0
    1.9089   -0.6022    0.7463 N   0  0  0  0  0  0  0  0  0  0  0  0
    1.8246   -1.1553   -0.1019 H   0  0  0  0  0  0  0  0  0  0  0  0
    2.7955   -1.1026    1.7901 C   0  0  0  0  0  0  0  0  0  0  0  0
    2.2362   -1.7172    2.5036 H   0  0  0  0  0  0  0  0  0  0  0  0
    3.5888   -1.7144    1.3505 H   0  0  0  0  0  0  0  0  0  0  0  0
    3.2621   -0.2721    2.3302 H   0  0  0  0  0  0  0  0  0  0  0  0
  1  2  1  0  0  0  0
  2  3  1  0  0  0  0
  2  4  1  0  0  0  0
  2  5  1  0  0  0  0
  5  6  2  0  0  0  0
  5  7  1  0  0  0  0
  7  8  1  0  0  0  0
  7  9  1  0  0  0  0
  9 10  1  0  0  0  0
  9 11  1  0  0  0  0
  9 22  1  0  0  0  0
 11 12  1  0  0  0  0
 11 13  1  0  0  0  0
 11 14  1  0  0  0  0
 14 15  1  0  0  0  0
 14 20  2  0  0  0  0
 15 16  1  0  0  0  0
 15 17  1  0  0  0  0
 17 18  1  0  0  0  0
 17 19  2  0  0  0  0
 19 20  1  0  0  0  0
 20 21  1  0  0  0  0
 22 23  2  0  0  0  0
 22 24  1  0  0  0  0
 24 25  1  0  0  0  0
 24 26  1  0  0  0  0
 26 27  1  0  0  0  0
 26 28  1  0  0  0  0
 26 29  1  0  0  0  0
M  END
$$$$

  -OEChem-01062216083D

 29 29  0     1  0  0  0  0  0999 V2000
   -3.3526   -2.4753    1.1691 H   0  0  0  0  0  0  0  0  0  0  0  0
   -3.2532   -1.5453    0.6020 C   0  0  0  0  0  0  0  0  0  0  0  0
   -3.7515   -0.7443    1.1533 H   0  0  0  0  0  0  0  0  0  0  0  0
   -3.7389   -1.6694   -0.3688 H   0  0  0  0  0  0  0  0  0  0  0  0
   -1.7872   -1.2071    0.4090 C   0  0  0  0  0  0  0  0  0  0  0  0
   -0.9379   -2.0376    0.6878 O   0  0  0  0  0  0  0  0  0  0  0  0
   -1.4396   -0.0280   -0.2239 N   0  0  0  0  0  0  0  0  0  0  0  0
   -2.2234    0.5630   -0.4845 H   0  0  0  0  0  0  0  0  0  0  0  0
   -0.1286    0.6480   -0.1255 C   0  0  1  0  0  0  0  0  0  0  0  0
    0.4094    0.4676   -1.0603 H   0  0  0  0  0  0  0  0  0  0  0  0
   -0.3751    2.1607    0.0185 C   0  0  0  0  0  0  0  0  0  0  0  0
   -0.9990    2.3467    0.9002 H   0  0  0  0  0  0  0  0  0  0  0  0
    0.5757    2.6802    0.1780 H   0  0  0  0  0  0  0  0  0  0  0  0
   -1.0415    2.7241   -1.2104 C   0  0  0  0  0  0  0  0  0  0  0  0
   -0.4714    2.9765   -2.4390 N   0  0  0  0  0  0  0  0  0  0  0  0
    0.4975    2.8099   -2.7029 H   0  0  0  0  0  0  0  0  0  0  0  0
   -1.4367    3.5274   -3.2614 C   0  0  0  0  0  0  0  0  0  0  0  0
   -1.2826    3.8243   -4.2950 H   0  0  0  0  0  0  0  0  0  0  0  0
   -2.5703    3.6400   -2.6118 N   0  0  0  0  0  0  0  0  0  0  0  0
   -2.3339    3.1629   -1.3282 C   0  0  0  0  0  0  0  0  0  0  0  0
   -3.0722    3.1400   -0.5321 H   0  0  0  0  0  0  0  0  0  0  0  0
    0.8039    0.1916    1.0254 C   0  0  0  0  0  0  0  0  0  0  0  0
    0.5410    0.5070    2.1810 O   0  0  0  0  0  0  0  0  0  0  0  0
    2.0502   -0.3377    0.7403 N   0  0  0  0  0  0  0  0  0  0  0  0
    2.1633   -0.7339   -0.1877 H   0  0  0  0  0  0  0  0  0  0  0  0
    2.9591   -0.7861    1.7883 C   0  0  0  0  0  0  0  0  0  0  0  0
    2.4948   -1.5805    2.3825 H   0  0  0  0  0  0  0  0  0  0  0  0
    3.8815   -1.1755    1.3472 H   0  0  0  0  0  0  0  0  0  0  0  0
    3.2197    0.0446    2.4527 H   0  0  0  0  0  0  0  0  0  0  0  0
  1  2  1  0  0  0  0
  2  3  1  0  0  0  0
  2  4  1  0  0  0  0
  2  5  1  0  0  0  0
  5  6  2  0  0  0  0
  5  7  1  0  0  0  0
  7  8  1  0  0  0  0
  7  9  1  0  0  0  0
  9 10  1  0  0  0  0
  9 11  1  0  0  0  0
  9 22  1  0  0  0  0
 11 12  1  0  0  0  0
 11 13  1  0  0  0  0
 11 14  1  0  0  0  0
 14 15  1  0  0  0  0
 14 20  2  0  0  0  0
 15 16  1  0  0  0  0
 15 17  1  0  0  0  0
 17 18  1  0  0  0  0
 17 19  2  0  0  0  0
 19 20  1  0  0  0  0
 20 21  1  0  0  0  0
 22 23  2  0  0  0  0
 22 24  1  0  0  0  0
 24 25  1  0  0  0  0
 24 26  1  0  0  0  0
 26 27  1  0  0  0  0
 26 28  1  0  0  0  0
 26 29  1  0  0  0  0
M  END
$$$$

  -OEChem-01062216083D

 29 29  0     1  0  0  0  0  0999 V2000
   -3.3397   -2.4881    1.1612 H   0  0  0  0  0  0  0  0  0  0  0  0
   -3.2452   -1.5378    0.6283 C   0  0  0  0  0  0  0  0  0  0  0  0
   -3.6976   -0.7498    1.2350 H   0  0  0  0  0  0  0  0  0  0  0  0
   -3.7786   -1.6108   -0.3224 H   0  0  0  0  0  0  0  0  0  0  0  0
   -1.7822   -1.2235    0.3807 C   0  0  0  0  0  0  0  0  0  0  0  0
   -0.9371   -2.0749    0.6044 O   0  0  0  0  0  0  0  0  0  0  0  0
   -1.4370   -0.0456   -0.2555 N   0  0  0  0  0  0  0  0  0  0  0  0
   -2.2222    0.5576   -0.4805 H   0  0  0  0  0  0  0  0  0  0  0  0
   -0.1258    0.6279   -0.1433 C   0  0  1  0  0  0  0  0  0  0  0  0
    0.4202    0.4511   -1.0740 H   0  0  0  0  0  0  0  0  0  0  0  0
   -0.3745    2.1380    0.0149 C   0  0  0  0  0  0  0  0  0  0  0  0
   -1.0029    2.3129    0.8957 H   0  0  0  0  0  0  0  0  0  0  0  0
    0.5747    2.6573    0.1849 H   0  0  0  0  0  0  0  0  0  0  0  0
   -1.0352    2.7146   -1.2110 C   0  0  0  0  0  0  0  0  0  0  0  0
   -0.4623    2.9823   -2.4352 N   0  0  0  0  0  0  0  0  0  0  0  0
    0.5068    2.8189   -2.6996 H   0  0  0  0  0  0  0  0  0  0  0  0
   -1.4268    3.5398   -3.2541 C   0  0  0  0  0  0  0  0  0  0  0  0
   -1.2700    3.8499   -4.2834 H   0  0  0  0  0  0  0  0  0  0  0  0
   -2.5629    3.6408   -2.6072 N   0  0  0  0  0  0  0  0  0  0  0  0
   -2.3293    3.1485   -1.3290 C   0  0  0  0  0  0  0  0  0  0  0  0
   -3.0708    3.1109   -0.5365 H   0  0  0  0  0  0  0  0  0  0  0  0
    0.7953    0.1752    1.0176 C   0  0  0  0  0  0  0  0  0  0  0  0
    0.4183    0.3148    2.1765 O   0  0  0  0  0  0  0  0  0  0  0  0
    2.1388   -0.0601    0.7815 N   0  0  0  0  0  0  0  0  0  0  0  0
    2.4003   -0.2719   -0.1763 H   0  0  0  0  0  0  0  0  0  0  0  0
    3.0639   -0.4336    1.8451 C   0  0  0  0  0  0  0  0  0  0  0  0
    2.7370   -1.3605    2.3285 H   0  0  0  0  0  0  0  0  0  0  0  0
    4.0668   -0.5901    1.4368 H   0  0  0  0  0  0  0  0  0  0  0  0
    3.1201    0.3568    2.6010 H   0  0  0  0  0  0  0  0  0  0  0  0
  1  2  1  0  0  0  0
  2  3  1  0  0  0  0
  2  4  1  0  0  0  0
  2  5  1  0  0  0  0
  5  6  2  0  0  0  0
  5  7  1  0  0  0  0
  7  8  1  0  0  0  0
  7  9  1  0  0  0  0
  9 10  1  0  0  0  0
  9 11  1  0  0  0  0
  9 22  1  0  0  0  0
 11 12  1  0  0  0  0
 11 13  1  0  0  0  0
 11 14  1  0  0  0  0
 14 15  1  0  0  0  0
 14 20  2  0  0  0  0
 15 16  1  0  0  0  0
 15 17  1  0  0  0  0
 17 18  1  0  0  0  0
 17 19  2  0  0  0  0
 19 20  1  0  0  0  0
 20 21  1  0  0  0  0
 22 23  2  0  0  0  0
 22 24  1  0  0  0  0
 24 25  1  0  0  0  0
 24 26  1  0  0  0  0
 26 27  1  0  0  0  0
 26 28  1  0  0  0  0
 26 29  1  0  0  0  0
M  END
$$$$

  -OEChem-01062216083D

 29 29  0     1  0  0  0  0  0999 V2000
   -3.3299   -2.4973    1.1672 H   0  0  0  0  0  0  0  0  0  0  0  0
   -3.2395   -1.5353    0.6550 C   0  0  0  0  0  0  0  0  0  0  0  0
   -3.6453   -0.7547    1.3028 H   0  0  0  0  0  0  0  0  0  0  0  0
   -3.8181   -1.5717   -0.2710 H   0  0  0  0  0  0  0  0  0  0  0  0
   -1.7829   -1.2453    0.3473 C   0  0  0  0  0  0  0  0  0  0  0  0
   -0.9471   -2.1218    0.4989 O   0  0  0  0  0  0  0  0  0  0  0  0
   -1.4379   -0.0648   -0.2840 N   0  0  0  0  0  0  0  0  0  0  0  0
   -2.2226    0.5521   -0.4698 H   0  0  0  0  0  0  0  0  0  0  0  0
   -0.1246    0.6036   -0.1566 C   0  0  1  0  0  0  0  0  0  0  0  0
    0.4277    0.4316   -1.0847 H   0  0  0  0  0  0  0  0  0  0  0  0
   -0.3752    2.1119    0.0164 C   0  0  0  0  0  0  0  0  0  0  0  0
   -1.0079    2.2760    0.8960 H   0  0  0  0  0  0  0  0  0  0  0  0
    0.5717    2.6314    0.1971 H   0  0  0  0  0  0  0  0  0  0  0  0
   -1.0286    2.7021   -1.2072 C   0  0  0  0  0  0  0  0  0  0  0  0
   -0.4475    2.9833   -2.4246 N   0  0  0  0  0  0  0  0  0  0  0  0
    0.5212    2.8156   -2.6876 H   0  0  0  0  0  0  0  0  0  0  0  0
   -1.4054    3.5532   -3.2427 C   0  0  0  0  0  0  0  0  0  0  0  0
   -1.2420    3.8725   -4.2681 H   0  0  0  0  0  0  0  0  0  0  0  0
   -2.5442    3.6530   -2.6005 N   0  0  0  0  0  0  0  0  0  0  0  0
   -2.3200    3.1441   -1.3270 C   0  0  0  0  0  0  0  0  0  0  0  0
   -3.0658    3.1027   -0.5386 H   0  0  0  0  0  0  0  0  0  0  0  0
    0.7931    0.1498    1.0081 C   0  0  0  0  0  0  0  0  0  0  0  0
    0.3448    0.1093    2.1492 O   0  0  0  0  0  0  0  0  0  0  0  0
    2.1683    0.2162    0.8577 N   0  0  0  0  0  0  0  0  0  0  0  0
    2.5275    0.2063   -0.0915 H   0  0  0  0  0  0  0  0  0  0  0  0
    3.0935   -0.0646    1.9499 C   0  0  0  0  0  0  0  0  0  0  0  0
    2.9233   -1.0714    2.3464 H   0  0  0  0  0  0  0  0  0  0  0  0
    4.1271   -0.0016    1.5965 H   0  0  0  0  0  0  0  0  0  0  0  0
    2.9616    0.6600    2.7604 H   0  0  0  0  0  0  0  0  0  0  0  0
  1  2  1  0  0  0  0
  2  3  1  0  0  0  0
  2  4  1  0  0  0  0
  2  5  1  0  0  0  0
  5  6  2  0  0  0  0
  5  7  1  0  0  0  0
  7  8  1  0  0  0  0
  7  9  1  0  0  0  0
  9 10  1  0  0  0  0
  9 11  1  0  0  0  0
  9 22  1  0  0  0  0
 11 12  1  0  0  0  0
 11 13  1  0  0  0  0
 11 14  1  0  0  0  0
 14 15  1  0  0  0  0
 14 20  2  0  0  0  0
 15 16  1  0  0  0  0
 15 17  1  0  0  0  0
 17 18  1  0  0  0  0
 17 19  2  0  0  0  0
 19 20  1  0  0  0  0
 20 21  1  0  0  0  0
 22 23  2  0  0  0  0
 22 24  1  0  0  0  0
 24 25  1  0  0  0  0
 24 26  1  0  0  0  0
 26 27  1  0  0  0  0
 26 28  1  0  0  0  0
 26 29  1  0  0  0  0
M  END
$$$$

  -OEChem-01062216083D

 29 29  0     1  0  0  0  0  0999 V2000
   -3.3367   -2.4852    1.1732 H   0  0  0  0  0  0  0  0  0  0  0  0
   -3.2407   -1.5188    0.6701 C   0  0  0  0  0  0  0  0  0  0  0  0
   -3.6113   -0.7382    1.3387 H   0  0  0  0  0  0  0  0  0  0  0  0
   -3.8454   -1.5309   -0.2397 H   0  0  0  0  0  0  0  0  0  0  0  0
   -1.7876   -1.2562    0.3242 C   0  0  0  0  0  0  0  0  0  0  0  0
   -0.9726   -2.1610    0.4086 O   0  0  0  0  0  0  0  0  0  0  0  0
   -1.4322   -0.0736   -0.2969 N   0  0  0  0  0  0  0  0  0  0  0  0
   -2.2118    0.5558   -0.4577 H   0  0  0  0  0  0  0  0  0  0  0  0
   -0.1142    0.5848   -0.1584 C   0  0  1  0  0  0  0  0  0  0  0  0
    0.4397    0.4168   -1.0862 H   0  0  0  0  0  0  0  0  0  0  0  0
   -0.3736    2.0920    0.0228 C   0  0  0  0  0  0  0  0  0  0  0  0
   -1.0126    2.2454    0.8999 H   0  0  0  0  0  0  0  0  0  0  0  0
    0.5670    2.6201    0.2116 H   0  0  0  0  0  0  0  0  0  0  0  0
   -1.0226    2.6882   -1.2007 C   0  0  0  0  0  0  0  0  0  0  0  0
   -0.4375    2.9815   -2.4136 N   0  0  0  0  0  0  0  0  0  0  0  0
    0.5314    2.8141   -2.6763 H   0  0  0  0  0  0  0  0  0  0  0  0
   -1.3948    3.5531   -3.2316 C   0  0  0  0  0  0  0  0  0  0  0  0
   -1.2290    3.8797   -4.2543 H   0  0  0  0  0  0  0  0  0  0  0  0
   -2.5362    3.6449   -2.5928 N   0  0  0  0  0  0  0  0  0  0  0  0
   -2.3151    3.1266   -1.3229 C   0  0  0  0  0  0  0  0  0  0  0  0
   -3.0637    3.0766   -0.5378 H   0  0  0  0  0  0  0  0  0  0  0  0
    0.8100    0.1297    1.0037 C   0  0  0  0  0  0  0  0  0  0  0  0
    0.3334   -0.1028    2.1093 O   0  0  0  0  0  0  0  0  0  0  0  0
    2.1497    0.4836    0.9711 N   0  0  0  0  0  0  0  0  0  0  0  0
    2.5519    0.6876    0.0619 H   0  0  0  0  0  0  0  0  0  0  0  0
    3.0542    0.2746    2.0969 C   0  0  0  0  0  0  0  0  0  0  0  0
    3.0539   -0.7785    2.3982 H   0  0  0  0  0  0  0  0  0  0  0  0
    4.0749    0.5554    1.8202 H   0  0  0  0  0  0  0  0  0  0  0  0
    2.7483    0.8852    2.9528 H   0  0  0  0  0  0  0  0  0  0  0  0
  1  2  1  0  0  0  0
  2  3  1  0  0  0  0
  2  4  1  0  0  0  0
  2  5  1  0  0  0  0
  5  6  2  0  0  0  0
  5  7  1  0  0  0  0
  7  8  1  0  0  0  0
  7  9  1  0  0  0  0
  9 10  1  0  0  0  0
  9 11  1  0  0  0  0
  9 22  1  0  0  0  0
 11 12  1  0  0  0  0
 11 13  1  0  0  0  0
 11 14  1  0  0  0  0
 14 15  1  0  0  0  0
 14 20  2  0  0  0  0
 15 16  1  0  0  0  0
 15 17  1  0  0  0  0
 17 18  1  0  0  0  0
 17 19  2  0  0  0  0
 19 20  1  0  0  0  0
 20 21  1  0  0  0  0
 22 23  2  0  0  0  0
 22 24  1  0  0  0  0
 24 25  1  0  0  0  0
 24 26  1  0  0  0  0
 26 27  1  0  0  0  0
 26 28  1  0  0  0  0
 26 29  1  0  0  0  0
M  END
$$$$

  -OEChem-01062216083D

 29 29  0     1  0  0  0  0  0999 V2000
   -3.4459   -2.3721    1.1407 H   0  0  0  0  0  0  0  0  0  0  0  0
   -3.2729   -1.3714    0.7349 C   0  0  0  0  0  0  0  0  0  0  0  0
   -3.4569   -0.6375    1.5229 H   0  0  0  0  0  0  0  0  0  0  0  0
   -3.9694   -1.1983   -0.0888 H   0  0  0  0  0  0  0  0  0  0  0  0
   -1.8433   -1.2523    0.2420 C   0  0  0  0  0  0  0  0  0  0  0  0
   -1.1721   -2.2604    0.1028 O   0  0  0  0  0  0  0  0  0  0  0  0
   -1.4188   -0.0731   -0.3383 N   0  0  0  0  0  0  0  0  0  0  0  0
   -2.1707    0.6006   -0.4437 H   0  0  0  0  0  0  0  0  0  0  0  0
   -0.0840    0.5523   -0.1763 C   0  0  1  0  0  0  0  0  0  0  0  0
    0.3615    0.6300   -1.1721 H   0  0  0  0  0  0  0  0  0  0  0  0
   -0.3591    1.9660    0.3800 C   0  0  0  0  0  0  0  0  0  0  0  0
   -0.9156    1.8803    1.3201 H   0  0  0  0  0  0  0  0  0  0  0  0
    0.5760    2.4869    0.6070 H   0  0  0  0  0  0  0  0  0  0  0  0
   -1.1326    2.8024   -0.6083 C   0  0  0  0  0  0  0  0  0  0  0  0
   -0.6721    3.3967   -1.7635 N   0  0  0  0  0  0  0  0  0  0  0  0
    0.2701    3.3372   -2.1436 H   0  0  0  0  0  0  0  0  0  0  0  0
   -1.7156    4.1002   -2.3367 C   0  0  0  0  0  0  0  0  0  0  0  0
   -1.6561    4.6620   -3.2647 H   0  0  0  0  0  0  0  0  0  0  0  0
   -2.7922    3.9902   -1.5964 N   0  0  0  0  0  0  0  0  0  0  0  0
   -2.4398    3.2017   -0.5087 C   0  0  0  0  0  0  0  0  0  0  0  0
   -3.1088    2.9378    0.3052 H   0  0  0  0  0  0  0  0  0  0  0  0
    1.0015   -0.1114    0.7249 C   0  0  0  0  0  0  0  0  0  0  0  0
    0.6985   -0.8112    1.6814 O   0  0  0  0  0  0  0  0  0  0  0  0
    2.2376    0.5108    0.8335 N   0  0  0  0  0  0  0  0  0  0  0  0
    2.5046    1.1466    0.0893 H   0  0  0  0  0  0  0  0  0  0  0  0
    3.2486    0.1328    1.8170 C   0  0  0  0  0  0  0  0  0  0  0  0
    3.4853   -0.9333    1.7334 H   0  0  0  0  0  0  0  0  0  0  0  0
    4.1674    0.7039    1.6540 H   0  0  0  0  0  0  0  0  0  0  0  0
    2.8916    0.3356    2.8323 H   0  0  0  0  0  0  0  0  0  0  0  0
  1  2  1  0  0  0  0
  2  3  1  0  0  0  0
  2  4  1  0  0  0  0
  2  5  1  0  0  0  0
  5  6  2  0  0  0  0
  5  7  1  0  0  0  0
  7  8  1  0  0  0  0
  7  9  1  0  0  0  0
  9 10  1  0  0  0  0
  9 11  1  0  0  0  0
  9 22  1  0  0  0  0
 11 12  1  0  0  0  0
 11 13  1  0  0  0  0
 11 14  1  0  0  0  0
 14 15  1  0  0  0  0
 14 20  2  0  0  0  0
 15 16  1  0  0  0  0
 15 17  1  0  0  0  0
 17 18  1  0  0  0  0
 17 19  2  0  0  0  0
 19 20  1  0  0  0  0
 20 21  1  0  0  0  0
 22 23  2  0  0  0  0
 22 24  1  0  0  0  0
 24 25  1  0  0  0  0
 24 26  1  0  0  0  0
 26 27  1  0  0  0  0
 26 28  1  0  0  0  0
 26 29  1  0  0  0  0
M  END
$$$$

  -OEChem-01062216083D

 29 29  0     1  0  0  0  0  0999 V2000
   -3.3656   -2.5548    1.0211 H   0  0  0  0  0  0  0  0  0  0  0  0
   -3.1305   -1.7611    0.3064 C   0  0  0  0  0  0  0  0  0  0  0  0
   -4.0337   -1.1760    0.1181 H   0  0  0  0  0  0  0  0  0  0  0  0
   -2.7962   -2.2189   -0.6274 H   0  0  0  0  0  0  0  0  0  0  0  0
   -2.0381   -0.8685    0.8636 C   0  0  0  0  0  0  0  0  0  0  0  0
   -1.7449   -0.9469    2.0451 O   0  0  0  0  0  0  0  0  0  0  0  0
   -1.5988    0.2156    0.1280 N   0  0  0  0  0  0  0  0  0  0  0  0
   -2.1017    0.3281   -0.7467 H   0  0  0  0  0  0  0  0  0  0  0  0
   -0.2106    0.7378    0.0984 C   0  0  1  0  0  0  0  0  0  0  0  0
    0.1497    0.6754   -0.9326 H   0  0  0  0  0  0  0  0  0  0  0  0
   -0.3298    2.2239    0.4933 C   0  0  0  0  0  0  0  0  0  0  0  0
   -0.8099    2.2969    1.4762 H   0  0  0  0  0  0  0  0  0  0  0  0
    0.6529    2.6955    0.5707 H   0  0  0  0  0  0  0  0  0  0  0  0
   -1.1285    2.9876   -0.5334 C   0  0  0  0  0  0  0  0  0  0  0  0
   -0.7322    3.3935   -1.7897 N   0  0  0  0  0  0  0  0  0  0  0  0
    0.1779    3.2403   -2.2190 H   0  0  0  0  0  0  0  0  0  0  0  0
   -1.7823    4.0757   -2.3762 C   0  0  0  0  0  0  0  0  0  0  0  0
   -1.7667    4.5135   -3.3704 H   0  0  0  0  0  0  0  0  0  0  0  0
   -2.8056    4.1171   -1.5579 N   0  0  0  0  0  0  0  0  0  0  0  0
   -2.4100    3.4545   -0.4010 C   0  0  0  0  0  0  0  0  0  0  0  0
   -3.0312    3.3204    0.4798 H   0  0  0  0  0  0  0  0  0  0  0  0
    0.8850    0.0266    0.9480 C   0  0  0  0  0  0  0  0  0  0  0  0
    0.9232   -1.1972    0.9775 O   0  0  0  0  0  0  0  0  0  0  0  0
    2.0969    0.6558    1.1967 N   0  0  0  0  0  0  0  0  0  0  0  0
    2.1202    1.6674    1.1289 H   0  0  0  0  0  0  0  0  0  0  0  0
    3.2459   -0.0236    1.7880 C   0  0  0  0  0  0  0  0  0  0  0  0
    3.6173   -0.8049    1.1164 H   0  0  0  0  0  0  0  0  0  0  0  0
    4.0559    0.6891    1.9692 H   0  0  0  0  0  0  0  0  0  0  0  0
    2.9691   -0.4829    2.7430 H   0  0  0  0  0  0  0  0  0  0  0  0
  1  2  1  0  0  0  0
  2  3  1  0  0  0  0
  2  4  1  0  0  0  0
  2  5  1  0  0  0  0
  5  6  2  0  0  0  0
  5  7  1  0  0  0  0
  7  8  1  0  0  0  0
  7  9  1  0  0  0  0
  9 10  1  0  0  0  0
  9 11  1  0  0  0  0
  9 22  1  0  0  0  0
 11 12  1  0  0  0  0
 11 13  1  0  0  0  0
 11 14  1  0  0  0  0
 14 15  1  0  0  0  0
 14 20  2  0  0  0  0
 15 16  1  0  0  0  0
 15 17  1  0  0  0  0
 17 18  1  0  0  0  0
 17 19  2  0  0  0  0
 19 20  1  0  0  0  0
 20 21  1  0  0  0  0
 22 23  2  0  0  0  0
 22 24  1  0  0  0  0
 24 25  1  0  0  0  0
 24 26  1  0  0  0  0
 26 27  1  0  0  0  0
 26 28  1  0  0  0  0
 26 29  1  0  0  0  0
M  END
$$$$

  -OEChem-01062216083D

 29 29  0     1  0  0  0  0  0999 V2000
   -3.3483   -2.5639    1.0064 H   0  0  0  0  0  0  0  0  0  0  0  0
   -3.1412   -1.7432    0.3138 C   0  0  0  0  0  0  0  0  0  0  0  0
   -4.0446   -1.1395    0.2002 H   0  0  0  0  0  0  0  0  0  0  0  0
   -2.8654   -2.1651   -0.6555 H   0  0  0  0  0  0  0  0  0  0  0  0
   -2.0074   -0.8874    0.8456 C   0  0  0  0  0  0  0  0  0  0  0  0
   -1.6299   -1.0399    1.9955 O   0  0  0  0  0  0  0  0  0  0  0  0
   -1.5915    0.2166    0.1250 N   0  0  0  0  0  0  0  0  0  0  0  0
   -2.1189    0.3588   -0.7312 H   0  0  0  0  0  0  0  0  0  0  0  0
   -0.2125    0.7606    0.0939 C   0  0  1  0  0  0  0  0  0  0  0  0
    0.1476    0.7016   -0.9375 H   0  0  0  0  0  0  0  0  0  0  0  0
   -0.3354    2.2475    0.4813 C   0  0  0  0  0  0  0  0  0  0  0  0
   -0.8108    2.3271    1.4656 H   0  0  0  0  0  0  0  0  0  0  0  0
    0.6479    2.7214    0.5447 H   0  0  0  0  0  0  0  0  0  0  0  0
   -1.1406    2.9971   -0.5500 C   0  0  0  0  0  0  0  0  0  0  0  0
   -0.7444    3.3915   -1.8099 N   0  0  0  0  0  0  0  0  0  0  0  0
    0.1662    3.2341   -2.2372 H   0  0  0  0  0  0  0  0  0  0  0  0
   -1.7975    4.0605   -2.4058 C   0  0  0  0  0  0  0  0  0  0  0  0
   -1.7828    4.4849   -3.4058 H   0  0  0  0  0  0  0  0  0  0  0  0
   -2.8216    4.1073   -1.5884 N   0  0  0  0  0  0  0  0  0  0  0  0
   -2.4236    3.4609   -0.4231 C   0  0  0  0  0  0  0  0  0  0  0  0
   -3.0450    3.3343    0.4586 H   0  0  0  0  0  0  0  0  0  0  0  0
    0.8767    0.0314    0.9335 C   0  0  0  0  0  0  0  0  0  0  0  0
    1.0396   -1.1689    0.7474 O   0  0  0  0  0  0  0  0  0  0  0  0
    1.9547    0.7148    1.4770 N   0  0  0  0  0  0  0  0  0  0  0  0
    1.8317    1.7067    1.6497 H   0  0  0  0  0  0  0  0  0  0  0  0
    3.0812    0.0410    2.1145 C   0  0  0  0  0  0  0  0  0  0  0  0
    3.6124   -0.5869    1.3913 H   0  0  0  0  0  0  0  0  0  0  0  0
    3.7856    0.7769    2.5137 H   0  0  0  0  0  0  0  0  0  0  0  0
    2.7334   -0.5897    2.9397 H   0  0  0  0  0  0  0  0  0  0  0  0
  1  2  1  0  0  0  0
  2  3  1  0  0  0  0
  2  4  1  0  0  0  0
  2  5  1  0  0  0  0
  5  6  2  0  0  0  0
  5  7  1  0  0  0  0
  7  8  1  0  0  0  0
  7  9  1  0  0  0  0
  9 10  1  0  0  0  0
  9 11  1  0  0  0  0
  9 22  1  0  0  0  0
 11 12  1  0  0  0  0
 11 13  1  0  0  0  0
 11 14  1  0  0  0  0
 14 15  1  0  0  0  0
 14 20  2  0  0  0  0
 15 16  1  0  0  0  0
 15 17  1  0  0  0  0
 17 18  1  0  0  0  0
 17 19  2  0  0  0  0
 19 20  1  0  0  0  0
 20 21  1  0  0  0  0
 22 23  2  0  0  0  0
 22 24  1  0  0  0  0
 24 25  1  0  0  0  0
 24 26  1  0  0  0  0
 26 27  1  0  0  0  0
 26 28  1  0  0  0  0
 26 29  1  0  0  0  0
M  END
$$$$

  -OEChem-01062216083D

 29 29  0     1  0  0  0  0  0999 V2000
   -3.3317   -2.5810    0.9843 H   0  0  0  0  0  0  0  0  0  0  0  0
   -3.1657   -1.7214    0.3290 C   0  0  0  0  0  0  0  0  0  0  0  0
   -4.0652   -1.1012    0.3240 H   0  0  0  0  0  0  0  0  0  0  0  0
   -2.9736   -2.0850   -0.6832 H   0  0  0  0  0  0  0  0  0  0  0  0
   -1.9807   -0.9136    0.8220 C   0  0  0  0  0  0  0  0  0  0  0  0
   -1.5300   -1.1342    1.9336 O   0  0  0  0  0  0  0  0  0  0  0  0
   -1.5762    0.1995    0.1078 N   0  0  0  0  0  0  0  0  0  0  0  0
   -2.1280    0.3709   -0.7277 H   0  0  0  0  0  0  0  0  0  0  0  0
   -0.2060    0.7629    0.0747 C   0  0  1  0  0  0  0  0  0  0  0  0
    0.1531    0.7067   -0.9576 H   0  0  0  0  0  0  0  0  0  0  0  0
   -0.3338    2.2491    0.4598 C   0  0  0  0  0  0  0  0  0  0  0  0
   -0.8057    2.3295    1.4457 H   0  0  0  0  0  0  0  0  0  0  0  0
    0.6518    2.7208    0.5177 H   0  0  0  0  0  0  0  0  0  0  0  0
   -1.1455    2.9966   -0.5677 C   0  0  0  0  0  0  0  0  0  0  0  0
   -0.7547    3.3922   -1.8287 N   0  0  0  0  0  0  0  0  0  0  0  0
    0.1563    3.2399   -2.2574 H   0  0  0  0  0  0  0  0  0  0  0  0
   -1.8098    4.0626   -2.4193 C   0  0  0  0  0  0  0  0  0  0  0  0
   -1.7982    4.4910   -3.4176 H   0  0  0  0  0  0  0  0  0  0  0  0
   -2.8316    4.1062   -1.5985 N   0  0  0  0  0  0  0  0  0  0  0  0
   -2.4285    3.4587   -0.4360 C   0  0  0  0  0  0  0  0  0  0  0  0
   -3.0465    3.3314    0.4479 H   0  0  0  0  0  0  0  0  0  0  0  0
    0.8841    0.0357    0.9117 C   0  0  0  0  0  0  0  0  0  0  0  0
    1.1827   -1.1072    0.5852 O   0  0  0  0  0  0  0  0  0  0  0  0
    1.7828    0.7208    1.7158 N   0  0  0  0  0  0  0  0  0  0  0  0
    1.4965    1.6393    2.0384 H   0  0  0  0  0  0  0  0  0  0  0  0
    2.8639    0.0502    2.4296 C   0  0  0  0  0  0  0  0  0  0  0  0
    3.5641   -0.4083    1.7234 H   0  0  0  0  0  0  0  0  0  0  0  0
    3.4152    0.7690    3.0431 H   0  0  0  0  0  0  0  0  0  0  0  0
    2.4630   -0.7303    3.0852 H   0  0  0  0  0  0  0  0  0  0  0  0
  1  2  1  0  0  0  0
  2  3  1  0  0  0  0
  2  4  1  0  0  0  0
  2  5  1  0  0  0  0
  5  6  2  0  0  0  0
  5  7  1  0  0  0  0
  7  8  1  0  0  0  0
  7  9  1  0  0  0  0
  9 10  1  0  0  0  0
  9 11  1  0  0  0  0
  9 22  1  0  0  0  0
 11 12  1  0  0  0  0
 11 13  1  0  0  0  0
 11 14  1  0  0  0  0
 14 15  1  0  0  0  0
 14 20  2  0  0  0  0
 15 16  1  0  0  0  0
 15 17  1  0  0  0  0
 17 18  1  0  0  0  0
 17 19  2  0  0  0  0
 19 20  1  0  0  0  0
 20 21  1  0  0  0  0
 22 23  2  0  0  0  0
 22 24  1  0  0  0  0
 24 25  1  0  0  0  0
 24 26  1  0  0  0  0
 26 27  1  0  0  0  0
 26 28  1  0  0  0  0
 26 29  1  0  0  0  0
M  END
$$$$

  -OEChem-01062216083D

 29 29  0     1  0  0  0  0  0999 V2000
   -3.3697   -2.5639    0.9780 H   0  0  0  0  0  0  0  0  0  0  0  0
   -3.1950   -1.7014    0.3284 C   0  0  0  0  0  0  0  0  0  0  0  0
   -4.0735   -1.0524    0.3586 H   0  0  0  0  0  0  0  0  0  0  0  0
   -3.0462   -2.0579   -0.6937 H   0  0  0  0  0  0  0  0  0  0  0  0
   -1.9694   -0.9384    0.7938 C   0  0  0  0  0  0  0  0  0  0  0  0
   -1.4636   -1.2219    1.8664 O   0  0  0  0  0  0  0  0  0  0  0  0
   -1.5662    0.1826    0.0911 N   0  0  0  0  0  0  0  0  0  0  0  0
   -2.1366    0.3867   -0.7246 H   0  0  0  0  0  0  0  0  0  0  0  0
   -0.2027    0.7602    0.0647 C   0  0  1  0  0  0  0  0  0  0  0  0
    0.1574    0.7111   -0.9676 H   0  0  0  0  0  0  0  0  0  0  0  0
   -0.3341    2.2439    0.4547 C   0  0  0  0  0  0  0  0  0  0  0  0
   -0.8099    2.3214    1.4387 H   0  0  0  0  0  0  0  0  0  0  0  0
    0.6536    2.7118    0.5195 H   0  0  0  0  0  0  0  0  0  0  0  0
   -1.1462    2.9919   -0.5715 C   0  0  0  0  0  0  0  0  0  0  0  0
   -0.7540    3.3915   -1.8306 N   0  0  0  0  0  0  0  0  0  0  0  0
    0.1585    3.2424   -2.2573 H   0  0  0  0  0  0  0  0  0  0  0  0
   -1.8104    4.0587   -2.4226 C   0  0  0  0  0  0  0  0  0  0  0  0
   -1.7983    4.4865   -3.4210 H   0  0  0  0  0  0  0  0  0  0  0  0
   -2.8335    4.0986   -1.6031 N   0  0  0  0  0  0  0  0  0  0  0  0
   -2.4302    3.4513   -0.4406 C   0  0  0  0  0  0  0  0  0  0  0  0
   -3.0488    3.3218    0.4426 H   0  0  0  0  0  0  0  0  0  0  0  0
    0.8913    0.0406    0.8997 C   0  0  0  0  0  0  0  0  0  0  0  0
    1.3445   -1.0091    0.4588 O   0  0  0  0  0  0  0  0  0  0  0  0
    1.5770    0.6683    1.9281 N   0  0  0  0  0  0  0  0  0  0  0  0
    1.1155    1.4647    2.3551 H   0  0  0  0  0  0  0  0  0  0  0  0
    2.6238   -0.0032    2.6897 C   0  0  0  0  0  0  0  0  0  0  0  0
    3.4554   -0.2844    2.0353 H   0  0  0  0  0  0  0  0  0  0  0  0
    3.0095    0.6606    3.4692 H   0  0  0  0  0  0  0  0  0  0  0  0
    2.2294   -0.9071    3.1662 H   0  0  0  0  0  0  0  0  0  0  0  0
  1  2  1  0  0  0  0
  2  3  1  0  0  0  0
  2  4  1  0  0  0  0
  2  5  1  0  0  0  0
  5  6  2  0  0  0  0
  5  7  1  0  0  0  0
  7  8  1  0  0  0  0
  7  9  1  0  0  0  0
  9 10  1  0  0  0  0
  9 11  1  0  0  0  0
  9 22  1  0  0  0  0
 11 12  1  0  0  0  0
 11 13  1  0  0  0  0
 11 14  1  0  0  0  0
 14 15  1  0  0  0  0
 14 20  2  0  0  0  0
 15 16  1  0  0  0  0
 15 17  1  0  0  0  0
 17 18  1  0  0  0  0
 17 19  2  0  0  0  0
 19 20  1  0  0  0  0
 20 21  1  0  0  0  0
 22 23  2  0  0  0  0
 22 24  1  0  0  0  0
 24 25  1  0  0  0  0
 24 26  1  0  0  0  0
 26 27  1  0  0  0  0
 26 28  1  0  0  0  0
 26 29  1  0  0  0  0
M  END
$$$$

  -OEChem-01062216083D

 29 29  0     1  0  0  0  0  0999 V2000
   -3.4153   -2.5459    0.9652 H   0  0  0  0  0  0  0  0  0  0  0  0
   -3.2330   -1.6766    0.3269 C   0  0  0  0  0  0  0  0  0  0  0  0
   -4.0843   -0.9961    0.4054 H   0  0  0  0  0  0  0  0  0  0  0  0
   -3.1387   -2.0155   -0.7076 H   0  0  0  0  0  0  0  0  0  0  0  0
   -1.9617   -0.9702    0.7583 C   0  0  0  0  0  0  0  0  0  0  0  0
   -1.4024   -1.3266    1.7809 O   0  0  0  0  0  0  0  0  0  0  0  0
   -1.5538    0.1582    0.0702 N   0  0  0  0  0  0  0  0  0  0  0  0
   -2.1466    0.4080   -0.7166 H   0  0  0  0  0  0  0  0  0  0  0  0
   -0.1974    0.7523    0.0574 C   0  0  1  0  0  0  0  0  0  0  0  0
    0.1673    0.7122   -0.9741 H   0  0  0  0  0  0  0  0  0  0  0  0
   -0.3364    2.2321    0.4551 C   0  0  0  0  0  0  0  0  0  0  0  0
   -0.8194    2.3044    1.4357 H   0  0  0  0  0  0  0  0  0  0  0  0
    0.6518    2.6979    0.5320 H   0  0  0  0  0  0  0  0  0  0  0  0
   -1.1459    2.9817   -0.5715 C   0  0  0  0  0  0  0  0  0  0  0  0
   -0.7458    3.3880   -1.8257 N   0  0  0  0  0  0  0  0  0  0  0  0
    0.1701    3.2425   -2.2466 H   0  0  0  0  0  0  0  0  0  0  0  0
   -1.7996    4.0548   -2.4227 C   0  0  0  0  0  0  0  0  0  0  0  0
   -1.7812    4.4871   -3.4192 H   0  0  0  0  0  0  0  0  0  0  0  0
   -2.8292    4.0876   -1.6108 N   0  0  0  0  0  0  0  0  0  0  0  0
   -2.4318    3.4373   -0.4480 C   0  0  0  0  0  0  0  0  0  0  0  0
   -3.0561    3.3026    0.4302 H   0  0  0  0  0  0  0  0  0  0  0  0
    0.9022    0.0477    0.8944 C   0  0  0  0  0  0  0  0  0  0  0  0
    1.5349   -0.8574    0.3638 O   0  0  0  0  0  0  0  0  0  0  0  0
    1.3527    0.5586    2.1012 N   0  0  0  0  0  0  0  0  0  0  0  0
    0.7065    1.1716    2.5882 H   0  0  0  0  0  0  0  0  0  0  0  0
    2.3714   -0.1193    2.8943 C   0  0  0  0  0  0  0  0  0  0  0  0
    3.3059   -0.2033    2.3296 H   0  0  0  0  0  0  0  0  0  0  0  0
    2.5733    0.4426    3.8110 H   0  0  0  0  0  0  0  0  0  0  0  0
    2.0345   -1.1245    3.1694 H   0  0  0  0  0  0  0  0  0  0  0  0
  1  2  1  0  0  0  0
  2  3  1  0  0  0  0
  2  4  1  0  0  0  0
  2  5  1  0  0  0  0
  5  6  2  0  0  0  0
  5  7  1  0  0  0  0
  7  8  1  0  0  0  0
  7  9  1  0  0  0  0
  9 10  1  0  0  0  0
  9 11  1  0  0  0  0
  9 22  1  0  0  0  0
 11 12  1  0  0  0  0
 11 13  1  0  0  0  0
 11 14  1  0  0  0  0
 14 15  1  0  0  0  0
 14 20  2  0  0  0  0
 15 16  1  0  0  0  0
 15 17  1  0  0  0  0
 17 18  1  0  0  0  0
 17 19  2  0  0  0  0
 19 20  1  0  0  0  0
 20 21  1  0  0  0  0
 22 23  2  0  0  0  0
 22 24  1  0  0  0  0
 24 25  1  0  0  0  0
 24 26  1  0  0  0  0
 26 27  1  0  0  0  0
 26 28  1  0  0  0  0
 26 29  1  0  0  0  0
M  END
$$$$

  -OEChem-01062216083D

 29 29  0     1  0  0  0  0  0999 V2000
   -3.4480   -2.5697    0.8975 H   0  0  0  0  0  0  0  0  0  0  0  0
   -3.2875   -1.6551    0.3195 C   0  0  0  0  0  0  0  0  0  0  0  0
   -4.1166   -0.9688    0.5073 H   0  0  0  0  0  0  0  0  0  0  0  0
   -3.2677   -1.9118   -0.7424 H   0  0  0  0  0  0  0  0  0  0  0  0
   -1.9767   -1.0057    0.7213 C   0  0  0  0  0  0  0  0  0  0  0  0
   -1.3820   -1.4258    1.6982 O   0  0  0  0  0  0  0  0  0  0  0  0
   -1.5543    0.1257    0.0475 N   0  0  0  0  0  0  0  0  0  0  0  0
   -2.1643    0.4222   -0.7097 H   0  0  0  0  0  0  0  0  0  0  0  0
   -0.2020    0.7292    0.0533 C   0  0  1  0  0  0  0  0  0  0  0  0
    0.1687    0.6958   -0.9765 H   0  0  0  0  0  0  0  0  0  0  0  0
   -0.3412    2.2057    0.4602 C   0  0  0  0  0  0  0  0  0  0  0  0
   -0.8312    2.2742    1.4373 H   0  0  0  0  0  0  0  0  0  0  0  0
    0.6486    2.6664    0.5506 H   0  0  0  0  0  0  0  0  0  0  0  0
   -1.1408    2.9631   -0.5678 C   0  0  0  0  0  0  0  0  0  0  0  0
   -0.7257    3.3747   -1.8151 N   0  0  0  0  0  0  0  0  0  0  0  0
    0.1934    3.2242   -2.2278 H   0  0  0  0  0  0  0  0  0  0  0  0
   -1.7680    4.0546   -2.4168 C   0  0  0  0  0  0  0  0  0  0  0  0
   -1.7375    4.4930   -3.4103 H   0  0  0  0  0  0  0  0  0  0  0  0
   -2.8044    4.0910   -1.6137 N   0  0  0  0  0  0  0  0  0  0  0  0
   -2.4228    3.4312   -0.4511 C   0  0  0  0  0  0  0  0  0  0  0  0
   -3.0549    3.3003    0.4221 H   0  0  0  0  0  0  0  0  0  0  0  0
    0.9017    0.0426    0.8973 C   0  0  0  0  0  0  0  0  0  0  0  0
    1.7318   -0.6455    0.3157 O   0  0  0  0  0  0  0  0  0  0  0  0
    1.1155    0.3811    2.2232 N   0  0  0  0  0  0  0  0  0  0  0  0
    0.2981    0.7382    2.7094 H   0  0  0  0  0  0  0  0  0  0  0  0
    2.1412   -0.2719    3.0274 C   0  0  0  0  0  0  0  0  0  0  0  0
    3.1310   -0.1234    2.5829 H   0  0  0  0  0  0  0  0  0  0  0  0
    2.1525    0.1477    4.0379 H   0  0  0  0  0  0  0  0  0  0  0  0
    1.9438   -1.3470    3.0982 H   0  0  0  0  0  0  0  0  0  0  0  0
  1  2  1  0  0  0  0
  2  3  1  0  0  0  0
  2  4  1  0  0  0  0
  2  5  1  0  0  0  0
  5  6  2  0  0  0  0
  5  7  1  0  0  0  0
  7  8  1  0  0  0  0
  7  9  1  0  0  0  0
  9 10  1  0  0  0  0
  9 11  1  0  0  0  0
  9 22  1  0  0  0  0
 11 12  1  0  0  0  0
 11 13  1  0  0  0  0
 11 14  1  0  0  0  0
 14 15  1  0  0  0  0
 14 20  2  0  0  0  0
 15 16  1  0  0  0  0
 15 17  1  0  0  0  0
 17 18  1  0  0  0  0
 17 19  2  0  0  0  0
 19 20  1  0  0  0  0
 20 21  1  0  0  0  0
 22 23  2  0  0  0  0
 22 24  1  0  0  0  0
 24 25  1  0  0  0  0
 24 26  1  0  0  0  0
 26 27  1  0  0  0  0
 26 28  1  0  0  0  0
 26 29  1  0  0  0  0
M  END
$$$$

  -OEChem-01062216083D

 29 29  0     1  0  0  0  0  0999 V2000
   -3.5378   -2.5413    0.8461 H   0  0  0  0  0  0  0  0  0  0  0  0
   -3.3592   -1.6117    0.2982 C   0  0  0  0  0  0  0  0  0  0  0  0
   -4.1547   -0.9021    0.5382 H   0  0  0  0  0  0  0  0  0  0  0  0
   -3.3826   -1.8270   -0.7727 H   0  0  0  0  0  0  0  0  0  0  0  0
   -2.0117   -1.0292    0.6818 C   0  0  0  0  0  0  0  0  0  0  0  0
   -1.4048   -1.5097    1.6221 O   0  0  0  0  0  0  0  0  0  0  0  0
   -1.5583    0.0989    0.0235 N   0  0  0  0  0  0  0  0  0  0  0  0
   -2.1768    0.4436   -0.7062 H   0  0  0  0  0  0  0  0  0  0  0  0
   -0.2040    0.6997    0.0500 C   0  0  1  0  0  0  0  0  0  0  0  0
    0.1737    0.6734   -0.9775 H   0  0  0  0  0  0  0  0  0  0  0  0
   -0.3461    2.1711    0.4707 C   0  0  0  0  0  0  0  0  0  0  0  0
   -0.8446    2.2298    1.4441 H   0  0  0  0  0  0  0  0  0  0  0  0
    0.6435    2.6288    0.5771 H   0  0  0  0  0  0  0  0  0  0  0  0
   -1.1340    2.9408   -0.5580 C   0  0  0  0  0  0  0  0  0  0  0  0
   -0.7060    3.3660   -1.7963 N   0  0  0  0  0  0  0  0  0  0  0  0
    0.2197    3.2258   -2.1977 H   0  0  0  0  0  0  0  0  0  0  0  0
   -1.7437    4.0479   -2.4039 C   0  0  0  0  0  0  0  0  0  0  0  0
   -1.7024    4.4974   -3.3921 H   0  0  0  0  0  0  0  0  0  0  0  0
   -2.7905    4.0706   -1.6137 N   0  0  0  0  0  0  0  0  0  0  0  0
   -2.4196    3.4011   -0.4533 C   0  0  0  0  0  0  0  0  0  0  0  0
   -3.0626    3.2552    0.4095 H   0  0  0  0  0  0  0  0  0  0  0  0
    0.9030    0.0306    0.9025 C   0  0  0  0  0  0  0  0  0  0  0  0
    1.9000   -0.3915    0.3292 O   0  0  0  0  0  0  0  0  0  0  0  0
    0.9141    0.1428    2.2821 N   0  0  0  0  0  0  0  0  0  0  0  0
   -0.0144    0.2029    2.6947 H   0  0  0  0  0  0  0  0  0  0  0  0
    1.9591   -0.4714    3.0922 C   0  0  0  0  0  0  0  0  0  0  0  0
    2.9438   -0.0855    2.8083 H   0  0  0  0  0  0  0  0  0  0  0  0
    1.7961   -0.2482    4.1508 H   0  0  0  0  0  0  0  0  0  0  0  0
    1.9551   -1.5586    2.9602 H   0  0  0  0  0  0  0  0  0  0  0  0
  1  2  1  0  0  0  0
  2  3  1  0  0  0  0
  2  4  1  0  0  0  0
  2  5  1  0  0  0  0
  5  6  2  0  0  0  0
  5  7  1  0  0  0  0
  7  8  1  0  0  0  0
  7  9  1  0  0  0  0
  9 10  1  0  0  0  0
  9 11  1  0  0  0  0
  9 22  1  0  0  0  0
 11 12  1  0  0  0  0
 11 13  1  0  0  0  0
 11 14  1  0  0  0  0
 14 15  1  0  0  0  0
 14 20  2  0  0  0  0
 15 16  1  0  0  0  0
 15 17  1  0  0  0  0
 17 18  1  0  0  0  0
 17 19  2  0  0  0  0
 19 20  1  0  0  0  0
 20 21  1  0  0  0  0
 22 23  2  0  0  0  0
 22 24  1  0  0  0  0
 24 25  1  0  0  0  0
 24 26  1  0  0  0  0
 26 27  1  0  0  0  0
 26 28  1  0  0  0  0
 26 29  1  0  0  0  0
M  END
$$$$

  -OEChem-01062216083D

 29 29  0     1  0  0  0  0  0999 V2000
   -3.6735   -2.4785    0.7999 H   0  0  0  0  0  0  0  0  0  0  0  0
   -3.4466   -1.5532    0.2628 C   0  0  0  0  0  0  0  0  0  0  0  0
   -4.1920   -0.7998    0.5286 H   0  0  0  0  0  0  0  0  0  0  0  0
   -3.5026   -1.7490   -0.8107 H   0  0  0  0  0  0  0  0  0  0  0  0
   -2.0591   -1.0612    0.6291 C   0  0  0  0  0  0  0  0  0  0  0  0
   -1.4512   -1.6217    1.5226 O   0  0  0  0  0  0  0  0  0  0  0  0
   -1.5633    0.0614   -0.0069 N   0  0  0  0  0  0  0  0  0  0  0  0
   -2.1888    0.4654   -0.6996 H   0  0  0  0  0  0  0  0  0  0  0  0
   -0.2070    0.6590    0.0444 C   0  0  1  0  0  0  0  0  0  0  0  0
    0.1806    0.6418   -0.9795 H   0  0  0  0  0  0  0  0  0  0  0  0
   -0.3610    2.1241    0.4824 C   0  0  0  0  0  0  0  0  0  0  0  0
   -0.8717    2.1656    1.4506 H   0  0  0  0  0  0  0  0  0  0  0  0
    0.6248    2.5852    0.6091 H   0  0  0  0  0  0  0  0  0  0  0  0
   -1.1373    2.9051   -0.5465 C   0  0  0  0  0  0  0  0  0  0  0  0
   -0.6925    3.3482   -1.7724 N   0  0  0  0  0  0  0  0  0  0  0  0
    0.2392    3.2144   -2.1624 H   0  0  0  0  0  0  0  0  0  0  0  0
   -1.7213    4.0406   -2.3830 C   0  0  0  0  0  0  0  0  0  0  0  0
   -1.6668    4.5045   -3.3639 H   0  0  0  0  0  0  0  0  0  0  0  0
   -2.7781    4.0537   -1.6057 N   0  0  0  0  0  0  0  0  0  0  0  0
   -2.4221    3.3691   -0.4496 C   0  0  0  0  0  0  0  0  0  0  0  0
   -3.0741    3.2170    0.4054 H   0  0  0  0  0  0  0  0  0  0  0  0
    0.9106    0.0178    0.9051 C   0  0  0  0  0  0  0  0  0  0  0  0
    2.0169   -0.1219    0.3974 O   0  0  0  0  0  0  0  0  0  0  0  0
    0.7769   -0.1323    2.2733 N   0  0  0  0  0  0  0  0  0  0  0  0
   -0.1821   -0.3335    2.5593 H   0  0  0  0  0  0  0  0  0  0  0  0
    1.8397   -0.7009    3.0930 C   0  0  0  0  0  0  0  0  0  0  0  0
    2.7517   -0.1002    3.0124 H   0  0  0  0  0  0  0  0  0  0  0  0
    1.5341   -0.7215    4.1434 H   0  0  0  0  0  0  0  0  0  0  0  0
    2.0619   -1.7249    2.7746 H   0  0  0  0  0  0  0  0  0  0  0  0
  1  2  1  0  0  0  0
  2  3  1  0  0  0  0
  2  4  1  0  0  0  0
  2  5  1  0  0  0  0
  5  6  2  0  0  0  0
  5  7  1  0  0  0  0
  7  8  1  0  0  0  0
  7  9  1  0  0  0  0
  9 10  1  0  0  0  0
  9 11  1  0  0  0  0
  9 22  1  0  0  0  0
 11 12  1  0  0  0  0
 11 13  1  0  0  0  0
 11 14  1  0  0  0  0
 14 15  1  0  0  0  0
 14 20  2  0  0  0  0
 15 16  1  0  0  0  0
 15 17  1  0  0  0  0
 17 18  1  0  0  0  0
 17 19  2  0  0  0  0
 19 20  1  0  0  0  0
 20 21  1  0  0  0  0
 22 23  2  0  0  0  0
 22 24  1  0  0  0  0
 24 25  1  0  0  0  0
 24 26  1  0  0  0  0
 26 27  1  0  0  0  0
 26 28  1  0  0  0  0
 26 29  1  0  0  0  0
M  END
$$$$

  -OEChem-01062216083D

 29 29  0     1  0  0  0  0  0999 V2000
   -3.8195   -2.3965    0.7367 H   0  0  0  0  0  0  0  0  0  0  0  0
   -3.5418   -1.4716    0.2230 C   0  0  0  0  0  0  0  0  0  0  0  0
   -4.2288   -0.6792    0.5302 H   0  0  0  0  0  0  0  0  0  0  0  0
   -3.6347   -1.6282   -0.8545 H   0  0  0  0  0  0  0  0  0  0  0  0
   -2.1158   -1.0859    0.5698 C   0  0  0  0  0  0  0  0  0  0  0  0
   -1.5094   -1.7530    1.3871 O   0  0  0  0  0  0  0  0  0  0  0  0
   -1.5727    0.0334   -0.0321 N   0  0  0  0  0  0  0  0  0  0  0  0
   -2.2025    0.5035   -0.6778 H   0  0  0  0  0  0  0  0  0  0  0  0
   -0.2141    0.6267    0.0516 C   0  0  1  0  0  0  0  0  0  0  0  0
    0.1861    0.6201   -0.9676 H   0  0  0  0  0  0  0  0  0  0  0  0
   -0.3898    2.0861    0.5025 C   0  0  0  0  0  0  0  0  0  0  0  0
   -0.9188    2.1124    1.4613 H   0  0  0  0  0  0  0  0  0  0  0  0
    0.5886    2.5559    0.6542 H   0  0  0  0  0  0  0  0  0  0  0  0
   -1.1496    2.8719   -0.5353 C   0  0  0  0  0  0  0  0  0  0  0  0
   -0.6797    3.3310   -1.7456 N   0  0  0  0  0  0  0  0  0  0  0  0
    0.2621    3.2074   -2.1146 H   0  0  0  0  0  0  0  0  0  0  0  0
   -1.7001    4.0196   -2.3744 C   0  0  0  0  0  0  0  0  0  0  0  0
   -1.6269    4.4927   -3.3496 H   0  0  0  0  0  0  0  0  0  0  0  0
   -2.7754    4.0153   -1.6226 N   0  0  0  0  0  0  0  0  0  0  0  0
   -2.4405    3.3235   -0.4646 C   0  0  0  0  0  0  0  0  0  0  0  0
   -3.1119    3.1561    0.3724 H   0  0  0  0  0  0  0  0  0  0  0  0
    0.9178    0.0145    0.9182 C   0  0  0  0  0  0  0  0  0  0  0  0
    2.0659    0.1252    0.5046 O   0  0  0  0  0  0  0  0  0  0  0  0
    0.7243   -0.4229    2.2146 N   0  0  0  0  0  0  0  0  0  0  0  0
   -0.2200   -0.7709    2.3934 H   0  0  0  0  0  0  0  0  0  0  0  0
    1.8038   -0.9814    3.0195 C   0  0  0  0  0  0  0  0  0  0  0  0
    2.6105   -0.2511    3.1411 H   0  0  0  0  0  0  0  0  0  0  0  0
    1.4317   -1.2503    4.0127 H   0  0  0  0  0  0  0  0  0  0  0  0
    2.2105   -1.8802    2.5445 H   0  0  0  0  0  0  0  0  0  0  0  0
  1  2  1  0  0  0  0
  2  3  1  0  0  0  0
  2  4  1  0  0  0  0
  2  5  1  0  0  0  0
  5  6  2  0  0  0  0
  5  7  1  0  0  0  0
  7  8  1  0  0  0  0
  7  9  1  0  0  0  0
  9 10  1  0  0  0  0
  9 11  1  0  0  0  0
  9 22  1  0  0  0  0
 11 12  1  0  0  0  0
 11 13  1  0  0  0  0
 11 14  1  0  0  0  0
 14 15  1  0  0  0  0
 14 20  2  0  0  0  0
 15 16  1  0  0  0  0
 15 17  1  0  0  0  0
 17 18  1  0  0  0  0
 17 19  2  0  0  0  0
 19 20  1  0  0  0  0
 20 21  1  0  0  0  0
 22 23  2  0  0  0  0
 22 24  1  0  0  0  0
 24 25  1  0  0  0  0
 24 26  1  0  0  0  0
 26 27  1  0  0  0  0
 26 28  1  0  0  0  0
 26 29  1  0  0  0  0
M  END
$$$$

  -OEChem-01062216083D

 29 29  0     1  0  0  0  0  0999 V2000
   -3.9485   -2.3133    0.6981 H   0  0  0  0  0  0  0  0  0  0  0  0
   -3.6253   -1.3985    0.1931 C   0  0  0  0  0  0  0  0  0  0  0  0
   -4.2632   -0.5734    0.5195 H   0  0  0  0  0  0  0  0  0  0  0  0
   -3.7403   -1.5343   -0.8851 H   0  0  0  0  0  0  0  0  0  0  0  0
   -2.1756   -1.0980    0.5266 C   0  0  0  0  0  0  0  0  0  0  0  0
   -1.5879   -1.8416    1.2885 O   0  0  0  0  0  0  0  0  0  0  0  0
   -1.5892    0.0134   -0.0497 N   0  0  0  0  0  0  0  0  0  0  0  0
   -2.2150    0.5303   -0.6629 H   0  0  0  0  0  0  0  0  0  0  0  0
   -0.2244    0.5942    0.0552 C   0  0  1  0  0  0  0  0  0  0  0  0
    0.1837    0.5940   -0.9608 H   0  0  0  0  0  0  0  0  0  0  0  0
   -0.4154    2.0517    0.5133 C   0  0  0  0  0  0  0  0  0  0  0  0
   -0.9587    2.0680    1.4644 H   0  0  0  0  0  0  0  0  0  0  0  0
    0.5560    2.5295    0.6838 H   0  0  0  0  0  0  0  0  0  0  0  0
   -1.1610    2.8440   -0.5297 C   0  0  0  0  0  0  0  0  0  0  0  0
   -0.6718    3.3150   -1.7277 N   0  0  0  0  0  0  0  0  0  0  0  0
    0.2776    3.2003   -2.0796 H   0  0  0  0  0  0  0  0  0  0  0  0
   -1.6823    4.0091   -2.3664 C   0  0  0  0  0  0  0  0  0  0  0  0
   -1.5936    4.4923   -3.3355 H   0  0  0  0  0  0  0  0  0  0  0  0
   -2.7696    3.9969   -1.6320 N   0  0  0  0  0  0  0  0  0  0  0  0
   -2.4526    3.2958   -0.4746 C   0  0  0  0  0  0  0  0  0  0  0  0
   -3.1363    3.1227    0.3512 H   0  0  0  0  0  0  0  0  0  0  0  0
    0.9189   -0.0007    0.9242 C   0  0  0  0  0  0  0  0  0  0  0  0
    2.0659    0.2956    0.6100 O   0  0  0  0  0  0  0  0  0  0  0  0
    0.7340   -0.7066    2.0965 N   0  0  0  0  0  0  0  0  0  0  0  0
   -0.1917   -1.1258    2.2063 H   0  0  0  0  0  0  0  0  0  0  0  0
    1.8328   -1.2741    2.8675 C   0  0  0  0  0  0  0  0  0  0  0  0
    2.5162   -0.4855    3.1992 H   0  0  0  0  0  0  0  0  0  0  0  0
    1.4448   -1.7875    3.7523 H   0  0  0  0  0  0  0  0  0  0  0  0
    2.3924   -1.9960    2.2637 H   0  0  0  0  0  0  0  0  0  0  0  0
  1  2  1  0  0  0  0
  2  3  1  0  0  0  0
  2  4  1  0  0  0  0
  2  5  1  0  0  0  0
  5  6  2  0  0  0  0
  5  7  1  0  0  0  0
  7  8  1  0  0  0  0
  7  9  1  0  0  0  0
  9 10  1  0  0  0  0
  9 11  1  0  0  0  0
  9 22  1  0  0  0  0
 11 12  1  0  0  0  0
 11 13  1  0  0  0  0
 11 14  1  0  0  0  0
 14 15  1  0  0  0  0
 14 20  2  0  0  0  0
 15 16  1  0  0  0  0
 15 17  1  0  0  0  0
 17 18  1  0  0  0  0
 17 19  2  0  0  0  0
 19 20  1  0  0  0  0
 20 21  1  0  0  0  0
 22 23  2  0  0  0  0
 22 24  1  0  0  0  0
 24 25  1  0  0  0  0
 24 26  1  0  0  0  0
 26 27  1  0  0  0  0
 26 28  1  0  0  0  0
 26 29  1  0  0  0  0
M  END
$$$$

  -OEChem-01062216083D

 29 29  0     1  0  0  0  0  0999 V2000
   -3.6053   -2.4897    0.7866 H   0  0  0  0  0  0  0  0  0  0  0  0
   -3.3069   -1.5899    0.2409 C   0  0  0  0  0  0  0  0  0  0  0  0
   -4.0838   -0.8312    0.3632 H   0  0  0  0  0  0  0  0  0  0  0  0
   -3.2131   -1.8385   -0.8189 H   0  0  0  0  0  0  0  0  0  0  0  0
   -1.9846   -1.0673    0.7728 C   0  0  0  0  0  0  0  0  0  0  0  0
   -1.5096   -1.6068    1.7487 O   0  0  0  0  0  0  0  0  0  0  0  0
   -1.4348    0.0385    0.1531 N   0  0  0  0  0  0  0  0  0  0  0  0
   -2.0130    0.3910   -0.6053 H   0  0  0  0  0  0  0  0  0  0  0  0
   -0.1521    0.7743    0.3129 C   0  0  1  0  0  0  0  0  0  0  0  0
    0.3449    0.7191   -0.6603 H   0  0  0  0  0  0  0  0  0  0  0  0
   -0.5908    2.2350    0.5638 C   0  0  0  0  0  0  0  0  0  0  0  0
   -1.2387    2.2729    1.4464 H   0  0  0  0  0  0  0  0  0  0  0  0
    0.2713    2.8785    0.7679 H   0  0  0  0  0  0  0  0  0  0  0  0
   -1.3092    2.7913   -0.6402 C   0  0  0  0  0  0  0  0  0  0  0  0
   -0.7474    3.1947   -1.8310 N   0  0  0  0  0  0  0  0  0  0  0  0
    0.2447    3.1890   -2.0626 H   0  0  0  0  0  0  0  0  0  0  0  0
   -1.7578    3.6581   -2.6526 C   0  0  0  0  0  0  0  0  0  0  0  0
   -1.6182    4.0410   -3.6598 H   0  0  0  0  0  0  0  0  0  0  0  0
   -2.9140    3.5646   -2.0393 N   0  0  0  0  0  0  0  0  0  0  0  0
   -2.6474    3.0496   -0.7758 C   0  0  0  0  0  0  0  0  0  0  0  0
   -3.3960    2.8677   -0.0103 H   0  0  0  0  0  0  0  0  0  0  0  0
    0.9990    0.4416    1.3165 C   0  0  0  0  0  0  0  0  0  0  0  0
    1.9926    1.1551    1.3034 O   0  0  0  0  0  0  0  0  0  0  0  0
    1.0043   -0.3738    2.4202 N   0  0  0  0  0  0  0  0  0  0  0  0
    1.5965    0.0391    3.1349 H   0  0  0  0  0  0  0  0  0  0  0  0
    1.3243   -1.7801    2.1996 C   0  0  0  0  0  0  0  0  0  0  0  0
    2.4059   -1.9349    2.2645 H   0  0  0  0  0  0  0  0  0  0  0  0
    0.8360   -2.3995    2.9587 H   0  0  0  0  0  0  0  0  0  0  0  0
    0.9899   -2.1179    1.2129 H   0  0  0  0  0  0  0  0  0  0  0  0
  1  2  1  0  0  0  0
  2  3  1  0  0  0  0
  2  4  1  0  0  0  0
  2  5  1  0  0  0  0
  5  6  2  0  0  0  0
  5  7  1  0  0  0  0
  7  8  1  0  0  0  0
  7  9  1  0  0  0  0
  9 10  1  0  0  0  0
  9 11  1  0  0  0  0
  9 22  1  0  0  0  0
 11 12  1  0  0  0  0
 11 13  1  0  0  0  0
 11 14  1  0  0  0  0
 14 15  1  0  0  0  0
 14 20  2  0  0  0  0
 15 16  1  0  0  0  0
 15 17  1  0  0  0  0
 17 18  1  0  0  0  0
 17 19  2  0  0  0  0
 19 20  1  0  0  0  0
 20 21  1  0  0  0  0
 22 23  2  0  0  0  0
 22 24  1  0  0  0  0
 24 25  1  0  0  0  0
 24 26  1  0  0  0  0
 26 27  1  0  0  0  0
 26 28  1  0  0  0  0
 26 29  1  0  0  0  0
M  END
$$$$

  -OEChem-01062216083D

 29 29  0     1  0  0  0  0  0999 V2000
   -3.5133   -2.4552    1.1256 H   0  0  0  0  0  0  0  0  0  0  0  0
   -3.2694   -1.5766    0.5216 C   0  0  0  0  0  0  0  0  0  0  0  0
   -4.0714   -0.8420    0.6290 H   0  0  0  0  0  0  0  0  0  0  0  0
   -3.1994   -1.8802   -0.5257 H   0  0  0  0  0  0  0  0  0  0  0  0
   -1.9534   -0.9753    0.9788 C   0  0  0  0  0  0  0  0  0  0  0  0
   -1.4768   -1.3617    2.0261 O   0  0  0  0  0  0  0  0  0  0  0  0
   -1.4541    0.1048    0.2782 N   0  0  0  0  0  0  0  0  0  0  0  0
   -2.0760    0.4107   -0.4657 H   0  0  0  0  0  0  0  0  0  0  0  0
   -0.1171    0.7559    0.2372 C   0  0  1  0  0  0  0  0  0  0  0  0
    0.2212    0.6835   -0.8004 H   0  0  0  0  0  0  0  0  0  0  0  0
   -0.4279    2.2381    0.5527 C   0  0  0  0  0  0  0  0  0  0  0  0
   -0.9295    2.3041    1.5246 H   0  0  0  0  0  0  0  0  0  0  0  0
    0.4882    2.8332    0.6207 H   0  0  0  0  0  0  0  0  0  0  0  0
   -1.2894    2.8453   -0.5272 C   0  0  0  0  0  0  0  0  0  0  0  0
   -0.9021    3.2293   -1.7918 N   0  0  0  0  0  0  0  0  0  0  0  0
    0.0411    3.1843   -2.1740 H   0  0  0  0  0  0  0  0  0  0  0  0
   -2.0041    3.7521   -2.4426 C   0  0  0  0  0  0  0  0  0  0  0  0
   -2.0055    4.1385   -3.4580 H   0  0  0  0  0  0  0  0  0  0  0  0
   -3.0530    3.7106   -1.6557 N   0  0  0  0  0  0  0  0  0  0  0  0
   -2.6174    3.1710   -0.4506 C   0  0  0  0  0  0  0  0  0  0  0  0
   -3.2445    3.0182    0.4228 H   0  0  0  0  0  0  0  0  0  0  0  0
    1.1468    0.3177    1.0516 C   0  0  0  0  0  0  0  0  0  0  0  0
    2.1202    1.0577    1.0703 O   0  0  0  0  0  0  0  0  0  0  0  0
    1.3225   -0.7121    1.9423 N   0  0  0  0  0  0  0  0  0  0  0  0
    2.1219   -0.5237    2.5405 H   0  0  0  0  0  0  0  0  0  0  0  0
    1.2581   -2.0867    1.4588 C   0  0  0  0  0  0  0  0  0  0  0  0
    0.8461   -2.7391    2.2354 H   0  0  0  0  0  0  0  0  0  0  0  0
    0.6291   -2.1710    0.5670 H   0  0  0  0  0  0  0  0  0  0  0  0
    2.2616   -2.4400    1.2020 H   0  0  0  0  0  0  0  0  0  0  0  0
  1  2  1  0  0  0  0
  2  3  1  0  0  0  0
  2  4  1  0  0  0  0
  2  5  1  0  0  0  0
  5  6  2  0  0  0  0
  5  7  1  0  0  0  0
  7  8  1  0  0  0  0
  7  9  1  0  0  0  0
  9 10  1  0  0  0  0
  9 11  1  0  0  0  0
  9 22  1  0  0  0  0
 11 12  1  0  0  0  0
 11 13  1  0  0  0  0
 11 14  1  0  0  0  0
 14 15  1  0  0  0  0
 14 20  2  0  0  0  0
 15 16  1  0  0  0  0
 15 17  1  0  0  0  0
 17 18  1  0  0  0  0
 17 19  2  0  0  0  0
 19 20  1  0  0  0  0
 20 21  1  0  0  0  0
 22 23  2  0  0  0  0
 22 24  1  0  0  0  0
 24 25  1  0  0  0  0
 24 26  1  0  0  0  0
 26 27  1  0  0  0  0
 26 28  1  0  0  0  0
 26 29  1  0  0  0  0
M  END
$$$$

  -OEChem-01062216083D

 29 29  0     1  0  0  0  0  0999 V2000
   -3.7638   -2.2666    1.1574 H   0  0  0  0  0  0  0  0  0  0  0  0
   -3.5004   -1.3679    0.5923 C   0  0  0  0  0  0  0  0  0  0  0  0
   -3.9573   -0.5026    1.0781 H   0  0  0  0  0  0  0  0  0  0  0  0
   -3.8986   -1.4614   -0.4209 H   0  0  0  0  0  0  0  0  0  0  0  0
   -1.9927   -1.2016    0.5423 C   0  0  0  0  0  0  0  0  0  0  0  0
   -1.3068   -2.0854    1.0081 O   0  0  0  0  0  0  0  0  0  0  0  0
   -1.4924   -0.0655   -0.0641 N   0  0  0  0  0  0  0  0  0  0  0  0
   -2.2238    0.5382   -0.4306 H   0  0  0  0  0  0  0  0  0  0  0  0
   -0.1228    0.4812   -0.2543 C   0  0  1  0  0  0  0  0  0  0  0  0
    0.0153    0.5570   -1.3374 H   0  0  0  0  0  0  0  0  0  0  0  0
   -0.1936    1.9041    0.3427 C   0  0  0  0  0  0  0  0  0  0  0  0
   -0.5021    1.8438    1.3919 H   0  0  0  0  0  0  0  0  0  0  0  0
    0.7889    2.3880    0.3212 H   0  0  0  0  0  0  0  0  0  0  0  0
   -1.1545    2.7659   -0.4373 C   0  0  0  0  0  0  0  0  0  0  0  0
   -0.9521    3.3300   -1.6770 N   0  0  0  0  0  0  0  0  0  0  0  0
   -0.1115    3.2489   -2.2473 H   0  0  0  0  0  0  0  0  0  0  0  0
   -2.0772    4.0605   -2.0107 C   0  0  0  0  0  0  0  0  0  0  0  0
   -2.2117    4.6144   -2.9356 H   0  0  0  0  0  0  0  0  0  0  0  0
   -2.9643    3.9851   -1.0468 N   0  0  0  0  0  0  0  0  0  0  0  0
   -2.3937    3.2024   -0.0503 C   0  0  0  0  0  0  0  0  0  0  0  0
   -2.8690    2.9626    0.8963 H   0  0  0  0  0  0  0  0  0  0  0  0
    1.2170   -0.1558    0.2338 C   0  0  0  0  0  0  0  0  0  0  0  0
    2.2511    0.3719   -0.1514 O   0  0  0  0  0  0  0  0  0  0  0  0
    1.4783   -1.4271    0.6779 N   0  0  0  0  0  0  0  0  0  0  0  0
    2.3878   -1.7223    0.3342 H   0  0  0  0  0  0  0  0  0  0  0  0
    1.3152   -1.6811    2.1050 C   0  0  0  0  0  0  0  0  0  0  0  0
    0.5273   -1.0546    2.5364 H   0  0  0  0  0  0  0  0  0  0  0  0
    1.0500   -2.7301    2.2715 H   0  0  0  0  0  0  0  0  0  0  0  0
    2.2491   -1.4679    2.6343 H   0  0  0  0  0  0  0  0  0  0  0  0
  1  2  1  0  0  0  0
  2  3  1  0  0  0  0
  2  4  1  0  0  0  0
  2  5  1  0  0  0  0
  5  6  2  0  0  0  0
  5  7  1  0  0  0  0
  7  8  1  0  0  0  0
  7  9  1  0  0  0  0
  9 10  1  0  0  0  0
  9 11  1  0  0  0  0
  9 22  1  0  0  0  0
 11 12  1  0  0  0  0
 11 13  1  0  0  0  0
 11 14  1  0  0  0  0
 14 15  1  0  0  0  0
 14 20  2  0  0  0  0
 15 16  1  0  0  0  0
 15 17  1  0  0  0  0
 17 18  1  0  0  0  0
 17 19  2  0  0  0  0
 19 20  1  0  0  0  0
 20 21  1  0  0  0  0
 22 23  2  0  0  0  0
 22 24  1  0  0  0  0
 24 25  1  0  0  0  0
 24 26  1  0  0  0  0
 26 27  1  0  0  0  0
 26 28  1  0  0  0  0
 26 29  1  0  0  0  0
M  END
$$$$

  -OEChem-01062216083D

 29 29  0     1  0  0  0  0  0999 V2000
   -3.9608   -2.2419    0.7579 H   0  0  0  0  0  0  0  0  0  0  0  0
   -3.6284   -1.3310    0.2516 C   0  0  0  0  0  0  0  0  0  0  0  0
   -4.2291   -0.4916    0.6103 H   0  0  0  0  0  0  0  0  0  0  0  0
   -3.7855   -1.4501   -0.8232 H   0  0  0  0  0  0  0  0  0  0  0  0
   -2.1595   -1.0778    0.5368 C   0  0  0  0  0  0  0  0  0  0  0  0
   -1.5691   -1.8534    1.2635 O   0  0  0  0  0  0  0  0  0  0  0  0
   -1.5680    0.0367   -0.0286 N   0  0  0  0  0  0  0  0  0  0  0  0
   -2.2111    0.5901   -0.5900 H   0  0  0  0  0  0  0  0  0  0  0  0
   -0.1831    0.5809    0.0115 C   0  0  1  0  0  0  0  0  0  0  0  0
    0.1746    0.5914   -1.0222 H   0  0  0  0  0  0  0  0  0  0  0  0
   -0.3632    2.0437    0.4844 C   0  0  0  0  0  0  0  0  0  0  0  0
   -0.8654    2.0534    1.4578 H   0  0  0  0  0  0  0  0  0  0  0  0
    0.6027    2.5426    0.6130 H   0  0  0  0  0  0  0  0  0  0  0  0
   -1.1526    2.8377   -0.5268 C   0  0  0  0  0  0  0  0  0  0  0  0
   -0.7123    3.3154   -1.7409 N   0  0  0  0  0  0  0  0  0  0  0  0
    0.2259    3.2147   -2.1249 H   0  0  0  0  0  0  0  0  0  0  0  0
   -1.7488    4.0098   -2.3360 C   0  0  0  0  0  0  0  0  0  0  0  0
   -1.6987    4.4980   -3.3051 H   0  0  0  0  0  0  0  0  0  0  0  0
   -2.8066    3.9909   -1.5600 N   0  0  0  0  0  0  0  0  0  0  0  0
   -2.4417    3.2877   -0.4180 C   0  0  0  0  0  0  0  0  0  0  0  0
   -3.0913    3.1120    0.4344 H   0  0  0  0  0  0  0  0  0  0  0  0
    0.9899   -0.0943    0.7934 C   0  0  0  0  0  0  0  0  0  0  0  0
    1.9658    0.5818    1.1002 O   0  0  0  0  0  0  0  0  0  0  0  0
    1.0903   -1.4545    1.0113 N   0  0  0  0  0  0  0  0  0  0  0  0
    0.2086   -1.9671    0.9516 H   0  0  0  0  0  0  0  0  0  0  0  0
    2.1803   -2.0698    1.7590 C   0  0  0  0  0  0  0  0  0  0  0  0
    2.2113   -1.6798    2.7815 H   0  0  0  0  0  0  0  0  0  0  0  0
    2.0387   -3.1538    1.8044 H   0  0  0  0  0  0  0  0  0  0  0  0
    3.1411   -1.8686    1.2740 H   0  0  0  0  0  0  0  0  0  0  0  0
  1  2  1  0  0  0  0
  2  3  1  0  0  0  0
  2  4  1  0  0  0  0
  2  5  1  0  0  0  0
  5  6  2  0  0  0  0
  5  7  1  0  0  0  0
  7  8  1  0  0  0  0
  7  9  1  0  0  0  0
  9 10  1  0  0  0  0
  9 11  1  0  0  0  0
  9 22  1  0  0  0  0
 11 12  1  0  0  0  0
 11 13  1  0  0  0  0
 11 14  1  0  0  0  0
 14 15  1  0  0  0  0
 14 20  2  0  0  0  0
 15 16  1  0  0  0  0
 15 17  1  0  0  0  0
 17 18  1  0  0  0  0
 17 19  2  0  0  0  0
 19 20  1  0  0  0  0
 20 21  1  0  0  0  0
 22 23  2  0  0  0  0
 22 24  1  0  0  0  0
 24 25  1  0  0  0  0
 24 26  1  0  0  0  0
 26 27  1  0  0  0  0
 26 28  1  0  0  0  0
 26 29  1  0  0  0  0
M  END
$$$$

  -OEChem-01062216083D

 29 29  0     1  0  0  0  0  0999 V2000
   -3.8488   -2.2684    0.8644 H   0  0  0  0  0  0  0  0  0  0  0  0
   -3.5532   -1.3580    0.3352 C   0  0  0  0  0  0  0  0  0  0  0  0
   -4.1310   -0.5196    0.7316 H   0  0  0  0  0  0  0  0  0  0  0  0
   -3.7805   -1.4792   -0.7267 H   0  0  0  0  0  0  0  0  0  0  0  0
   -2.0696   -1.1000    0.5222 C   0  0  0  0  0  0  0  0  0  0  0  0
   -1.4127   -1.9064    1.1524 O   0  0  0  0  0  0  0  0  0  0  0  0
   -1.5238    0.0344   -0.0496 N   0  0  0  0  0  0  0  0  0  0  0  0
   -2.2000    0.6033   -0.5536 H   0  0  0  0  0  0  0  0  0  0  0  0
   -0.1526    0.6074   -0.0061 C   0  0  1  0  0  0  0  0  0  0  0  0
    0.2157    0.6242   -1.0360 H   0  0  0  0  0  0  0  0  0  0  0  0
   -0.3488    2.0676    0.4650 C   0  0  0  0  0  0  0  0  0  0  0  0
   -0.8475    2.0738    1.4403 H   0  0  0  0  0  0  0  0  0  0  0  0
    0.6144    2.5734    0.5885 H   0  0  0  0  0  0  0  0  0  0  0  0
   -1.1480    2.8540   -0.5446 C   0  0  0  0  0  0  0  0  0  0  0  0
   -0.7209    3.3400   -1.7605 N   0  0  0  0  0  0  0  0  0  0  0  0
    0.2152    3.2502   -2.1522 H   0  0  0  0  0  0  0  0  0  0  0  0
   -1.7691    4.0249   -2.3468 C   0  0  0  0  0  0  0  0  0  0  0  0
   -1.7309    4.5162   -3.3150 H   0  0  0  0  0  0  0  0  0  0  0  0
   -2.8213    3.9925   -1.5641 N   0  0  0  0  0  0  0  0  0  0  0  0
   -2.4412    3.2897   -0.4270 C   0  0  0  0  0  0  0  0  0  0  0  0
   -3.0831    3.1041    0.4293 H   0  0  0  0  0  0  0  0  0  0  0  0
    1.0011   -0.0806    0.7905 C   0  0  0  0  0  0  0  0  0  0  0  0
    1.8530    0.6025    1.3486 O   0  0  0  0  0  0  0  0  0  0  0  0
    1.2285   -1.4423    0.7241 N   0  0  0  0  0  0  0  0  0  0  0  0
    0.3851   -1.9907    0.5451 H   0  0  0  0  0  0  0  0  0  0  0  0
    2.2997   -2.0989    1.4646 C   0  0  0  0  0  0  0  0  0  0  0  0
    2.1693   -1.9485    2.5412 H   0  0  0  0  0  0  0  0  0  0  0  0
    2.2936   -3.1738    1.2603 H   0  0  0  0  0  0  0  0  0  0  0  0
    3.2747   -1.6986    1.1674 H   0  0  0  0  0  0  0  0  0  0  0  0
  1  2  1  0  0  0  0
  2  3  1  0  0  0  0
  2  4  1  0  0  0  0
  2  5  1  0  0  0  0
  5  6  2  0  0  0  0
  5  7  1  0  0  0  0
  7  8  1  0  0  0  0
  7  9  1  0  0  0  0
  9 10  1  0  0  0  0
  9 11  1  0  0  0  0
  9 22  1  0  0  0  0
 11 12  1  0  0  0  0
 11 13  1  0  0  0  0
 11 14  1  0  0  0  0
 14 15  1  0  0  0  0
 14 20  2  0  0  0  0
 15 16  1  0  0  0  0
 15 17  1  0  0  0  0
 17 18  1  0  0  0  0
 17 19  2  0  0  0  0
 19 20  1  0  0  0  0
 20 21  1  0  0  0  0
 22 23  2  0  0  0  0
 22 24  1  0  0  0  0
 24 25  1  0  0  0  0
 24 26  1  0  0  0  0
 26 27  1  0  0  0  0
 26 28  1  0  0  0  0
 26 29  1  0  0  0  0
M  END
$$$$

  -OEChem-01062216083D

 29 29  0     1  0  0  0  0  0999 V2000
   -3.7182   -2.3080    0.9691 H   0  0  0  0  0  0  0  0  0  0  0  0
   -3.4715   -1.3964    0.4174 C   0  0  0  0  0  0  0  0  0  0  0  0
   -4.0255   -0.5623    0.8549 H   0  0  0  0  0  0  0  0  0  0  0  0
   -3.7773   -1.5217   -0.6241 H   0  0  0  0  0  0  0  0  0  0  0  0
   -1.9803   -1.1255    0.4921 C   0  0  0  0  0  0  0  0  0  0  0  0
   -1.2568   -1.9576    1.0066 O   0  0  0  0  0  0  0  0  0  0  0  0
   -1.4871    0.0283   -0.0881 N   0  0  0  0  0  0  0  0  0  0  0  0
   -2.1978    0.6151   -0.5183 H   0  0  0  0  0  0  0  0  0  0  0  0
   -0.1323    0.6322   -0.0294 C   0  0  1  0  0  0  0  0  0  0  0  0
    0.2549    0.6596   -1.0522 H   0  0  0  0  0  0  0  0  0  0  0  0
   -0.3431    2.0864    0.4481 C   0  0  0  0  0  0  0  0  0  0  0  0
   -0.8454    2.0828    1.4216 H   0  0  0  0  0  0  0  0  0  0  0  0
    0.6196    2.5925    0.5782 H   0  0  0  0  0  0  0  0  0  0  0  0
   -1.1455    2.8711   -0.5596 C   0  0  0  0  0  0  0  0  0  0  0  0
   -0.7208    3.3685   -1.7717 N   0  0  0  0  0  0  0  0  0  0  0  0
    0.2156    3.2876   -2.1638 H   0  0  0  0  0  0  0  0  0  0  0  0
   -1.7743    4.0462   -2.3564 C   0  0  0  0  0  0  0  0  0  0  0  0
   -1.7395    4.5420   -3.3223 H   0  0  0  0  0  0  0  0  0  0  0  0
   -2.8270    4.0008   -1.5751 N   0  0  0  0  0  0  0  0  0  0  0  0
   -2.4423    3.2953   -0.4413 C   0  0  0  0  0  0  0  0  0  0  0  0
   -3.0837    3.1002    0.4131 H   0  0  0  0  0  0  0  0  0  0  0  0
    0.9938   -0.0643    0.7930 C   0  0  0  0  0  0  0  0  0  0  0  0
    1.6702    0.5740    1.5928 O   0  0  0  0  0  0  0  0  0  0  0  0
    1.3970   -1.3499    0.4814 N   0  0  0  0  0  0  0  0  0  0  0  0
    0.6379   -1.9305    0.1237 H   0  0  0  0  0  0  0  0  0  0  0  0
    2.4490   -2.0334    1.2251 C   0  0  0  0  0  0  0  0  0  0  0  0
    2.1668   -2.1388    2.2779 H   0  0  0  0  0  0  0  0  0  0  0  0
    2.6171   -3.0311    0.8084 H   0  0  0  0  0  0  0  0  0  0  0  0
    3.3887   -1.4743    1.1660 H   0  0  0  0  0  0  0  0  0  0  0  0
  1  2  1  0  0  0  0
  2  3  1  0  0  0  0
  2  4  1  0  0  0  0
  2  5  1  0  0  0  0
  5  6  2  0  0  0  0
  5  7  1  0  0  0  0
  7  8  1  0  0  0  0
  7  9  1  0  0  0  0
  9 10  1  0  0  0  0
  9 11  1  0  0  0  0
  9 22  1  0  0  0  0
 11 12  1  0  0  0  0
 11 13  1  0  0  0  0
 11 14  1  0  0  0  0
 14 15  1  0  0  0  0
 14 20  2  0  0  0  0
 15 16  1  0  0  0  0
 15 17  1  0  0  0  0
 17 18  1  0  0  0  0
 17 19  2  0  0  0  0
 19 20  1  0  0  0  0
 20 21  1  0  0  0  0
 22 23  2  0  0  0  0
 22 24  1  0  0  0  0
 24 25  1  0  0  0  0
 24 26  1  0  0  0  0
 26 27  1  0  0  0  0
 26 28  1  0  0  0  0
 26 29  1  0  0  0  0
M  END
$$$$

  -OEChem-01062216083D

 29 29  0     1  0  0  0  0  0999 V2000
   -3.5923   -2.3515    1.0478 H   0  0  0  0  0  0  0  0  0  0  0  0
   -3.3924   -1.4359    0.4836 C   0  0  0  0  0  0  0  0  0  0  0  0
   -3.9324   -0.6105    0.9539 H   0  0  0  0  0  0  0  0  0  0  0  0
   -3.7555   -1.5653   -0.5388 H   0  0  0  0  0  0  0  0  0  0  0  0
   -1.9038   -1.1427    0.4714 C   0  0  0  0  0  0  0  0  0  0  0  0
   -1.1338   -1.9777    0.9100 O   0  0  0  0  0  0  0  0  0  0  0  0
   -1.4593    0.0235   -0.1242 N   0  0  0  0  0  0  0  0  0  0  0  0
   -2.1971    0.6153   -0.4974 H   0  0  0  0  0  0  0  0  0  0  0  0
   -0.1189    0.6525   -0.0560 C   0  0  1  0  0  0  0  0  0  0  0  0
    0.2810    0.6897   -1.0734 H   0  0  0  0  0  0  0  0  0  0  0  0
   -0.3381    2.1008    0.4297 C   0  0  0  0  0  0  0  0  0  0  0  0
   -0.8432    2.0885    1.4021 H   0  0  0  0  0  0  0  0  0  0  0  0
    0.6252    2.6040    0.5686 H   0  0  0  0  0  0  0  0  0  0  0  0
   -1.1449    2.8880   -0.5723 C   0  0  0  0  0  0  0  0  0  0  0  0
   -0.7237    3.3964   -1.7813 N   0  0  0  0  0  0  0  0  0  0  0  0
    0.2126    3.3235   -2.1751 H   0  0  0  0  0  0  0  0  0  0  0  0
   -1.7818    4.0720   -2.3606 C   0  0  0  0  0  0  0  0  0  0  0  0
   -1.7507    4.5754   -3.3228 H   0  0  0  0  0  0  0  0  0  0  0  0
   -2.8341    4.0145   -1.5797 N   0  0  0  0  0  0  0  0  0  0  0  0
   -2.4449    3.3021   -0.4517 C   0  0  0  0  0  0  0  0  0  0  0  0
   -3.0859    3.0957    0.4002 H   0  0  0  0  0  0  0  0  0  0  0  0
    0.9840   -0.0464    0.7890 C   0  0  0  0  0  0  0  0  0  0  0  0
    1.4561    0.4964    1.7827 O   0  0  0  0  0  0  0  0  0  0  0  0
    1.5971   -1.1860    0.3001 N   0  0  0  0  0  0  0  0  0  0  0  0
    1.0001   -1.7444   -0.3056 H   0  0  0  0  0  0  0  0  0  0  0  0
    2.6138   -1.8999    1.0637 C   0  0  0  0  0  0  0  0  0  0  0  0
    2.1988   -2.2558    2.0127 H   0  0  0  0  0  0  0  0  0  0  0  0
    2.9744   -2.7630    0.4962 H   0  0  0  0  0  0  0  0  0  0  0  0
    3.4672   -1.2470    1.2749 H   0  0  0  0  0  0  0  0  0  0  0  0
  1  2  1  0  0  0  0
  2  3  1  0  0  0  0
  2  4  1  0  0  0  0
  2  5  1  0  0  0  0
  5  6  2  0  0  0  0
  5  7  1  0  0  0  0
  7  8  1  0  0  0  0
  7  9  1  0  0  0  0
  9 10  1  0  0  0  0
  9 11  1  0  0  0  0
  9 22  1  0  0  0  0
 11 12  1  0  0  0  0
 11 13  1  0  0  0  0
 11 14  1  0  0  0  0
 14 15  1  0  0  0  0
 14 20  2  0  0  0  0
 15 16  1  0  0  0  0
 15 17  1  0  0  0  0
 17 18  1  0  0  0  0
 17 19  2  0  0  0  0
 19 20  1  0  0  0  0
 20 21  1  0  0  0  0
 22 23  2  0  0  0  0
 22 24  1  0  0  0  0
 24 25  1  0  0  0  0
 24 26  1  0  0  0  0
 26 27  1  0  0  0  0
 26 28  1  0  0  0  0
 26 29  1  0  0  0  0
M  END
$$$$

  -OEChem-01062216083D

 29 29  0     1  0  0  0  0  0999 V2000
   -3.5209   -2.3705    1.1017 H   0  0  0  0  0  0  0  0  0  0  0  0
   -3.3504   -1.4542    0.5293 C   0  0  0  0  0  0  0  0  0  0  0  0
   -3.8687   -0.6303    1.0259 H   0  0  0  0  0  0  0  0  0  0  0  0
   -3.7618   -1.5835   -0.4747 H   0  0  0  0  0  0  0  0  0  0  0  0
   -1.8646   -1.1582    0.4474 C   0  0  0  0  0  0  0  0  0  0  0  0
   -1.0706   -2.0009    0.8261 O   0  0  0  0  0  0  0  0  0  0  0  0
   -1.4484    0.0135   -0.1585 N   0  0  0  0  0  0  0  0  0  0  0  0
   -2.2025    0.6124   -0.4842 H   0  0  0  0  0  0  0  0  0  0  0  0
   -0.1165    0.6560   -0.0787 C   0  0  1  0  0  0  0  0  0  0  0  0
    0.2928    0.7015   -1.0920 H   0  0  0  0  0  0  0  0  0  0  0  0
   -0.3404    2.0989    0.4164 C   0  0  0  0  0  0  0  0  0  0  0  0
   -0.8522    2.0782    1.3852 H   0  0  0  0  0  0  0  0  0  0  0  0
    0.6230    2.5982    0.5674 H   0  0  0  0  0  0  0  0  0  0  0  0
   -1.1462    2.8925   -0.5806 C   0  0  0  0  0  0  0  0  0  0  0  0
   -0.7234    3.4118   -1.7844 N   0  0  0  0  0  0  0  0  0  0  0  0
    0.2134    3.3431   -2.1775 H   0  0  0  0  0  0  0  0  0  0  0  0
   -1.7810    4.0913   -2.3598 C   0  0  0  0  0  0  0  0  0  0  0  0
   -1.7478    4.6038   -3.3171 H   0  0  0  0  0  0  0  0  0  0  0  0
   -2.8348    4.0255   -1.5817 N   0  0  0  0  0  0  0  0  0  0  0  0
   -2.4473    3.3034   -0.4592 C   0  0  0  0  0  0  0  0  0  0  0  0
   -3.0895    3.0890    0.3900 H   0  0  0  0  0  0  0  0  0  0  0  0
    0.9709   -0.0400    0.7844 C   0  0  0  0  0  0  0  0  0  0  0  0
    1.2353    0.3709    1.9097 O   0  0  0  0  0  0  0  0  0  0  0  0
    1.8063   -0.9758    0.2006 N   0  0  0  0  0  0  0  0  0  0  0  0
    1.4184   -1.4473   -0.6116 H   0  0  0  0  0  0  0  0  0  0  0  0
    2.8194   -1.6894    0.9693 C   0  0  0  0  0  0  0  0  0  0  0  0
    2.3513   -2.2677    1.7730 H   0  0  0  0  0  0  0  0  0  0  0  0
    3.3706   -2.3773    0.3211 H   0  0  0  0  0  0  0  0  0  0  0  0
    3.5343   -0.9870    1.4108 H   0  0  0  0  0  0  0  0  0  0  0  0
  1  2  1  0  0  0  0
  2  3  1  0  0  0  0
  2  4  1  0  0  0  0
  2  5  1  0  0  0  0
  5  6  2  0  0  0  0
  5  7  1  0  0  0  0
  7  8  1  0  0  0  0
  7  9  1  0  0  0  0
  9 10  1  0  0  0  0
  9 11  1  0  0  0  0
  9 22  1  0  0  0  0
 11 12  1  0  0  0  0
 11 13  1  0  0  0  0
 11 14  1  0  0  0  0
 14 15  1  0  0  0  0
 14 20  2  0  0  0  0
 15 16  1  0  0  0  0
 15 17  1  0  0  0  0
 17 18  1  0  0  0  0
 17 19  2  0  0  0  0
 19 20  1  0  0  0  0
 20 21  1  0  0  0  0
 22 23  2  0  0  0  0
 22 24  1  0  0  0  0
 24 25  1  0  0  0  0
 24 26  1  0  0  0  0
 26 27  1  0  0  0  0
 26 28  1  0  0  0  0
 26 29  1  0  0  0  0
M  END
$$$$

  -OEChem-01062216083D

 29 29  0     1  0  0  0  0  0999 V2000
   -3.4863   -2.3871    1.1285 H   0  0  0  0  0  0  0  0  0  0  0  0
   -3.3339   -1.4663    0.5581 C   0  0  0  0  0  0  0  0  0  0  0  0
   -3.8318   -0.6456    1.0799 H   0  0  0  0  0  0  0  0  0  0  0  0
   -3.7808   -1.5857   -0.4318 H   0  0  0  0  0  0  0  0  0  0  0  0
   -1.8510   -1.1744    0.4255 C   0  0  0  0  0  0  0  0  0  0  0  0
   -1.0473   -2.0327    0.7453 O   0  0  0  0  0  0  0  0  0  0  0  0
   -1.4496   -0.0001   -0.1855 N   0  0  0  0  0  0  0  0  0  0  0  0
   -2.2119    0.6085   -0.4710 H   0  0  0  0  0  0  0  0  0  0  0  0
   -0.1219    0.6478   -0.0947 C   0  0  1  0  0  0  0  0  0  0  0  0
    0.2922    0.6977   -1.1057 H   0  0  0  0  0  0  0  0  0  0  0  0
   -0.3430    2.0869    0.4095 C   0  0  0  0  0  0  0  0  0  0  0  0
   -0.8599    2.0603    1.3755 H   0  0  0  0  0  0  0  0  0  0  0  0
    0.6220    2.5801    0.5699 H   0  0  0  0  0  0  0  0  0  0  0  0
   -1.1441    2.8896   -0.5839 C   0  0  0  0  0  0  0  0  0  0  0  0
   -0.7169    3.4160   -1.7832 N   0  0  0  0  0  0  0  0  0  0  0  0
    0.2198    3.3453   -2.1760 H   0  0  0  0  0  0  0  0  0  0  0  0
   -1.7711    4.1024   -2.3565 C   0  0  0  0  0  0  0  0  0  0  0  0
   -1.7350    4.6197   -3.3110 H   0  0  0  0  0  0  0  0  0  0  0  0
   -2.8259    4.0368   -1.5799 N   0  0  0  0  0  0  0  0  0  0  0  0
   -2.4436    3.3051   -0.4620 C   0  0  0  0  0  0  0  0  0  0  0  0
   -3.0882    3.0877    0.3845 H   0  0  0  0  0  0  0  0  0  0  0  0
    0.9582   -0.0420    0.7797 C   0  0  0  0  0  0  0  0  0  0  0  0
    1.0396    0.2129    1.9768 O   0  0  0  0  0  0  0  0  0  0  0  0
    1.9938   -0.7295    0.1715 N   0  0  0  0  0  0  0  0  0  0  0  0
    1.8082   -1.0641   -0.7691 H   0  0  0  0  0  0  0  0  0  0  0  0
    3.0272   -1.4100    0.9426 C   0  0  0  0  0  0  0  0  0  0  0  0
    2.5807   -2.1705    1.5922 H   0  0  0  0  0  0  0  0  0  0  0  0
    3.7389   -1.9000    0.2715 H   0  0  0  0  0  0  0  0  0  0  0  0
    3.5768   -0.6947    1.5635 H   0  0  0  0  0  0  0  0  0  0  0  0
  1  2  1  0  0  0  0
  2  3  1  0  0  0  0
  2  4  1  0  0  0  0
  2  5  1  0  0  0  0
  5  6  2  0  0  0  0
  5  7  1  0  0  0  0
  7  8  1  0  0  0  0
  7  9  1  0  0  0  0
  9 10  1  0  0  0  0
  9 11  1  0  0  0  0
  9 22  1  0  0  0  0
 11 12  1  0  0  0  0
 11 13  1  0  0  0  0
 11 14  1  0  0  0  0
 14 15  1  0  0  0  0
 14 20  2  0  0  0  0
 15 16  1  0  0  0  0
 15 17  1  0  0  0  0
 17 18  1  0  0  0  0
 17 19  2  0  0  0  0
 19 20  1  0  0  0  0
 20 21  1  0  0  0  0
 22 23  2  0  0  0  0
 22 24  1  0  0  0  0
 24 25  1  0  0  0  0
 24 26  1  0  0  0  0
 26 27  1  0  0  0  0
 26 28  1  0  0  0  0
 26 29  1  0  0  0  0
M  END
$$$$

  -OEChem-01062216083D

 29 29  0     1  0  0  0  0  0999 V2000
   -3.4693   -2.4114    1.1016 H   0  0  0  0  0  0  0  0  0  0  0  0
   -3.3237   -1.4555    0.5907 C   0  0  0  0  0  0  0  0  0  0  0  0
   -3.7613   -0.6621    1.2010 H   0  0  0  0  0  0  0  0  0  0  0  0
   -3.8349   -1.4896   -0.3742 H   0  0  0  0  0  0  0  0  0  0  0  0
   -1.8435   -1.1941    0.3860 C   0  0  0  0  0  0  0  0  0  0  0  0
   -1.0430   -2.0804    0.6296 O   0  0  0  0  0  0  0  0  0  0  0  0
   -1.4474   -0.0197   -0.2278 N   0  0  0  0  0  0  0  0  0  0  0  0
   -2.2133    0.6020   -0.4714 H   0  0  0  0  0  0  0  0  0  0  0  0
   -0.1215    0.6286   -0.1217 C   0  0  1  0  0  0  0  0  0  0  0  0
    0.3009    0.6837   -1.1289 H   0  0  0  0  0  0  0  0  0  0  0  0
   -0.3455    2.0613    0.3963 C   0  0  0  0  0  0  0  0  0  0  0  0
   -0.8687    2.0239    1.3586 H   0  0  0  0  0  0  0  0  0  0  0  0
    0.6184    2.5520    0.5693 H   0  0  0  0  0  0  0  0  0  0  0  0
   -1.1412    2.8761   -0.5918 C   0  0  0  0  0  0  0  0  0  0  0  0
   -0.7126    3.4186   -1.7837 N   0  0  0  0  0  0  0  0  0  0  0  0
    0.2222    3.3477   -2.1804 H   0  0  0  0  0  0  0  0  0  0  0  0
   -1.7658    4.1144   -2.3482 C   0  0  0  0  0  0  0  0  0  0  0  0
   -1.7293    4.6441   -3.2960 H   0  0  0  0  0  0  0  0  0  0  0  0
   -2.8207    4.0408   -1.5726 N   0  0  0  0  0  0  0  0  0  0  0  0
   -2.4403    3.2924   -0.4653 C   0  0  0  0  0  0  0  0  0  0  0  0
   -3.0855    3.0651    0.3782 H   0  0  0  0  0  0  0  0  0  0  0  0
    0.9486   -0.0571    0.7676 C   0  0  0  0  0  0  0  0  0  0  0  0
    0.8743    0.0343    1.9885 O   0  0  0  0  0  0  0  0  0  0  0  0
    2.1448   -0.4734    0.2086 N   0  0  0  0  0  0  0  0  0  0  0  0
    2.1360   -0.6521   -0.7906 H   0  0  0  0  0  0  0  0  0  0  0  0
    3.2029   -1.0850    1.0043 C   0  0  0  0  0  0  0  0  0  0  0  0
    2.8354   -1.9916    1.4968 H   0  0  0  0  0  0  0  0  0  0  0  0
    4.0490   -1.3553    0.3656 H   0  0  0  0  0  0  0  0  0  0  0  0
    3.5592   -0.3882    1.7704 H   0  0  0  0  0  0  0  0  0  0  0  0
  1  2  1  0  0  0  0
  2  3  1  0  0  0  0
  2  4  1  0  0  0  0
  2  5  1  0  0  0  0
  5  6  2  0  0  0  0
  5  7  1  0  0  0  0
  7  8  1  0  0  0  0
  7  9  1  0  0  0  0
  9 10  1  0  0  0  0
  9 11  1  0  0  0  0
  9 22  1  0  0  0  0
 11 12  1  0  0  0  0
 11 13  1  0  0  0  0
 11 14  1  0  0  0  0
 14 15  1  0  0  0  0
 14 20  2  0  0  0  0
 15 16  1  0  0  0  0
 15 17  1  0  0  0  0
 17 18  1  0  0  0  0
 17 19  2  0  0  0  0
 19 20  1  0  0  0  0
 20 21  1  0  0  0  0
 22 23  2  0  0  0  0
 22 24  1  0  0  0  0
 24 25  1  0  0  0  0
 24 26  1  0  0  0  0
 26 27  1  0  0  0  0
 26 28  1  0  0  0  0
 26 29  1  0  0  0  0
M  END
$$$$

  -OEChem-01062216083D

 29 29  0     1  0  0  0  0  0999 V2000
   -3.4600   -2.4020    1.1309 H   0  0  0  0  0  0  0  0  0  0  0  0
   -3.3192   -1.4466    0.6177 C   0  0  0  0  0  0  0  0  0  0  0  0
   -3.7132   -0.6481    1.2507 H   0  0  0  0  0  0  0  0  0  0  0  0
   -3.8737   -1.4653   -0.3234 H   0  0  0  0  0  0  0  0  0  0  0  0
   -1.8449   -1.2135    0.3474 C   0  0  0  0  0  0  0  0  0  0  0  0
   -1.0562   -2.1291    0.5083 O   0  0  0  0  0  0  0  0  0  0  0  0
   -1.4493   -0.0382   -0.2640 N   0  0  0  0  0  0  0  0  0  0  0  0
   -2.2149    0.5982   -0.4661 H   0  0  0  0  0  0  0  0  0  0  0  0
   -0.1224    0.6053   -0.1421 C   0  0  1  0  0  0  0  0  0  0  0  0
    0.3067    0.6645   -1.1461 H   0  0  0  0  0  0  0  0  0  0  0  0
   -0.3456    2.0316    0.3922 C   0  0  0  0  0  0  0  0  0  0  0  0
   -0.8734    1.9834    1.3515 H   0  0  0  0  0  0  0  0  0  0  0  0
    0.6183    2.5184    0.5759 H   0  0  0  0  0  0  0  0  0  0  0  0
   -1.1333    2.8615   -0.5895 C   0  0  0  0  0  0  0  0  0  0  0  0
   -0.6964    3.4181   -1.7717 N   0  0  0  0  0  0  0  0  0  0  0  0
    0.2404    3.3501   -2.1640 H   0  0  0  0  0  0  0  0  0  0  0  0
   -1.7452    4.1220   -2.3343 C   0  0  0  0  0  0  0  0  0  0  0  0
   -1.7018    4.6635   -3.2751 H   0  0  0  0  0  0  0  0  0  0  0  0
   -2.8051    4.0405   -1.5664 N   0  0  0  0  0  0  0  0  0  0  0  0
   -2.4330    3.2773   -0.4665 C   0  0  0  0  0  0  0  0  0  0  0  0
   -3.0844    3.0391    0.3693 H   0  0  0  0  0  0  0  0  0  0  0  0
    0.9418   -0.0781    0.7552 C   0  0  0  0  0  0  0  0  0  0  0  0
    0.7528   -0.1545    1.9646 O   0  0  0  0  0  0  0  0  0  0  0  0
    2.2411   -0.2085    0.2937 N   0  0  0  0  0  0  0  0  0  0  0  0
    2.3695   -0.2061   -0.7132 H   0  0  0  0  0  0  0  0  0  0  0  0
    3.3179   -0.7373    1.1234 C   0  0  0  0  0  0  0  0  0  0  0  0
    3.0709   -1.7452    1.4741 H   0  0  0  0  0  0  0  0  0  0  0  0
    4.2478   -0.7877    0.5492 H   0  0  0  0  0  0  0  0  0  0  0  0
    3.4851   -0.0931    1.9931 H   0  0  0  0  0  0  0  0  0  0  0  0
  1  2  1  0  0  0  0
  2  3  1  0  0  0  0
  2  4  1  0  0  0  0
  2  5  1  0  0  0  0
  5  6  2  0  0  0  0
  5  7  1  0  0  0  0
  7  8  1  0  0  0  0
  7  9  1  0  0  0  0
  9 10  1  0  0  0  0
  9 11  1  0  0  0  0
  9 22  1  0  0  0  0
 11 12  1  0  0  0  0
 11 13  1  0  0  0  0
 11 14  1  0  0  0  0
 14 15  1  0  0  0  0
 14 20  2  0  0  0  0
 15 16  1  0  0  0  0
 15 17  1  0  0  0  0
 17 18  1  0  0  0  0
 17 19  2  0  0  0  0
 19 20  1  0  0  0  0
 20 21  1  0  0  0  0
 22 23  2  0  0  0  0
 22 24  1  0  0  0  0
 24 25  1  0  0  0  0
 24 26  1  0  0  0  0
 26 27  1  0  0  0  0
 26 28  1  0  0  0  0
 26 29  1  0  0  0  0
M  END
$$$$

  -OEChem-01062216083D

 29 29  0     1  0  0  0  0  0999 V2000
   -3.4368   -2.4053    1.1560 H   0  0  0  0  0  0  0  0  0  0  0  0
   -3.3031   -1.4394    0.6607 C   0  0  0  0  0  0  0  0  0  0  0  0
   -3.6339   -0.6496    1.3395 H   0  0  0  0  0  0  0  0  0  0  0  0
   -3.9158   -1.4176   -0.2437 H   0  0  0  0  0  0  0  0  0  0  0  0
   -1.8430   -1.2367    0.3037 C   0  0  0  0  0  0  0  0  0  0  0  0
   -1.0756   -2.1826    0.3623 O   0  0  0  0  0  0  0  0  0  0  0  0
   -1.4490   -0.0596   -0.3049 N   0  0  0  0  0  0  0  0  0  0  0  0
   -2.2131    0.5912   -0.4597 H   0  0  0  0  0  0  0  0  0  0  0  0
   -0.1205    0.5784   -0.1672 C   0  0  1  0  0  0  0  0  0  0  0  0
    0.3163    0.6415   -1.1677 H   0  0  0  0  0  0  0  0  0  0  0  0
   -0.3466    1.9992    0.3808 C   0  0  0  0  0  0  0  0  0  0  0  0
   -0.8810    1.9384    1.3359 H   0  0  0  0  0  0  0  0  0  0  0  0
    0.6157    2.4833    0.5782 H   0  0  0  0  0  0  0  0  0  0  0  0
   -1.1258    2.8452   -0.5940 C   0  0  0  0  0  0  0  0  0  0  0  0
   -0.6796    3.4177   -1.7654 N   0  0  0  0  0  0  0  0  0  0  0  0
    0.2582    3.3498   -2.1550 H   0  0  0  0  0  0  0  0  0  0  0  0
   -1.7208    4.1375   -2.3217 C   0  0  0  0  0  0  0  0  0  0  0  0
   -1.6685    4.6940   -3.2533 H   0  0  0  0  0  0  0  0  0  0  0  0
   -2.7848    4.0509   -1.5603 N   0  0  0  0  0  0  0  0  0  0  0  0
   -2.4237    3.2670   -0.4716 C   0  0  0  0  0  0  0  0  0  0  0  0
   -3.0807    3.0205    0.3573 H   0  0  0  0  0  0  0  0  0  0  0  0
    0.9408   -0.1020    0.7366 C   0  0  0  0  0  0  0  0  0  0  0  0
    0.6684   -0.3522    1.9058 O   0  0  0  0  0  0  0  0  0  0  0  0
    2.2825    0.0485    0.4251 N   0  0  0  0  0  0  0  0  0  0  0  0
    2.5106    0.2457   -0.5439 H   0  0  0  0  0  0  0  0  0  0  0  0
    3.3535   -0.3972    1.3101 C   0  0  0  0  0  0  0  0  0  0  0  0
    3.2421   -1.4624    1.5400 H   0  0  0  0  0  0  0  0  0  0  0  0
    4.3265   -0.2463    0.8331 H   0  0  0  0  0  0  0  0  0  0  0  0
    3.3372    0.1685    2.2477 H   0  0  0  0  0  0  0  0  0  0  0  0
  1  2  1  0  0  0  0
  2  3  1  0  0  0  0
  2  4  1  0  0  0  0
  2  5  1  0  0  0  0
  5  6  2  0  0  0  0
  5  7  1  0  0  0  0
  7  8  1  0  0  0  0
  7  9  1  0  0  0  0
  9 10  1  0  0  0  0
  9 11  1  0  0  0  0
  9 22  1  0  0  0  0
 11 12  1  0  0  0  0
 11 13  1  0  0  0  0
 11 14  1  0  0  0  0
 14 15  1  0  0  0  0
 14 20  2  0  0  0  0
 15 16  1  0  0  0  0
 15 17  1  0  0  0  0
 17 18  1  0  0  0  0
 17 19  2  0  0  0  0
 19 20  1  0  0  0  0
 20 21  1  0  0  0  0
 22 23  2  0  0  0  0
 22 24  1  0  0  0  0
 24 25  1  0  0  0  0
 24 26  1  0  0  0  0
 26 27  1  0  0  0  0
 26 28  1  0  0  0  0
 26 29  1  0  0  0  0
M  END
$$$$

  -OEChem-01062216083D

 29 29  0     1  0  0  0  0  0999 V2000
   -3.4387   -2.3910    1.1524 H   0  0  0  0  0  0  0  0  0  0  0  0
   -3.2925   -1.4118    0.6876 C   0  0  0  0  0  0  0  0  0  0  0  0
   -3.5564   -0.6377    1.4121 H   0  0  0  0  0  0  0  0  0  0  0  0
   -3.9491   -1.3304   -0.1817 H   0  0  0  0  0  0  0  0  0  0  0  0
   -1.8451   -1.2497    0.2643 C   0  0  0  0  0  0  0  0  0  0  0  0
   -1.1163   -2.2269    0.2317 O   0  0  0  0  0  0  0  0  0  0  0  0
   -1.4376   -0.0724   -0.3333 N   0  0  0  0  0  0  0  0  0  0  0  0
   -2.1953    0.5910   -0.4622 H   0  0  0  0  0  0  0  0  0  0  0  0
   -0.1050    0.5567   -0.1823 C   0  0  1  0  0  0  0  0  0  0  0  0
    0.3370    0.6289   -1.1800 H   0  0  0  0  0  0  0  0  0  0  0  0
   -0.3463    1.9707    0.3800 C   0  0  0  0  0  0  0  0  0  0  0  0
   -0.8882    1.8942    1.3297 H   0  0  0  0  0  0  0  0  0  0  0  0
    0.6074    2.4652    0.5919 H   0  0  0  0  0  0  0  0  0  0  0  0
   -1.1222    2.8214   -0.5933 C   0  0  0  0  0  0  0  0  0  0  0  0
   -0.6700    3.4096   -1.7546 N   0  0  0  0  0  0  0  0  0  0  0  0
    0.2681    3.3432   -2.1434 H   0  0  0  0  0  0  0  0  0  0  0  0
   -1.7113    4.1285   -2.3121 C   0  0  0  0  0  0  0  0  0  0  0  0
   -1.6562    4.6916   -3.2395 H   0  0  0  0  0  0  0  0  0  0  0  0
   -2.7793    4.0315   -1.5576 N   0  0  0  0  0  0  0  0  0  0  0  0
   -2.4223    3.2378   -0.4748 C   0  0  0  0  0  0  0  0  0  0  0  0
   -3.0838    2.9819    0.3477 H   0  0  0  0  0  0  0  0  0  0  0  0
    0.9625   -0.1185    0.7223 C   0  0  0  0  0  0  0  0  0  0  0  0
    0.6460   -0.5647    1.8186 O   0  0  0  0  0  0  0  0  0  0  0  0
    2.2823    0.2901    0.6011 N   0  0  0  0  0  0  0  0  0  0  0  0
    2.5610    0.6998   -0.2843 H   0  0  0  0  0  0  0  0  0  0  0  0
    3.3272   -0.0923    1.5460 C   0  0  0  0  0  0  0  0  0  0  0  0
    3.3773   -1.1821    1.6419 H   0  0  0  0  0  0  0  0  0  0  0  0
    4.3008    0.2692    1.2015 H   0  0  0  0  0  0  0  0  0  0  0  0
    3.1288    0.3389    2.5327 H   0  0  0  0  0  0  0  0  0  0  0  0
  1  2  1  0  0  0  0
  2  3  1  0  0  0  0
  2  4  1  0  0  0  0
  2  5  1  0  0  0  0
  5  6  2  0  0  0  0
  5  7  1  0  0  0  0
  7  8  1  0  0  0  0
  7  9  1  0  0  0  0
  9 10  1  0  0  0  0
  9 11  1  0  0  0  0
  9 22  1  0  0  0  0
 11 12  1  0  0  0  0
 11 13  1  0  0  0  0
 11 14  1  0  0  0  0
 14 15  1  0  0  0  0
 14 20  2  0  0  0  0
 15 16  1  0  0  0  0
 15 17  1  0  0  0  0
 17 18  1  0  0  0  0
 17 19  2  0  0  0  0
 19 20  1  0  0  0  0
 20 21  1  0  0  0  0
 22 23  2  0  0  0  0
 22 24  1  0  0  0  0
 24 25  1  0  0  0  0
 24 26  1  0  0  0  0
 26 27  1  0  0  0  0
 26 28  1  0  0  0  0
 26 29  1  0  0  0  0
M  END
$$$$

  -OEChem-01062216083D

 29 29  0     1  0  0  0  0  0999 V2000
   -3.3413   -2.5721    1.1027 H   0  0  0  0  0  0  0  0  0  0  0  0
   -3.1295   -1.7898    0.3684 C   0  0  0  0  0  0  0  0  0  0  0  0
   -4.0334   -1.1962    0.2133 H   0  0  0  0  0  0  0  0  0  0  0  0
   -2.8428   -2.2631   -0.5736 H   0  0  0  0  0  0  0  0  0  0  0  0
   -2.0036   -0.9030    0.8650 C   0  0  0  0  0  0  0  0  0  0  0  0
   -1.6364   -0.9862    2.0261 O   0  0  0  0  0  0  0  0  0  0  0  0
   -1.5895    0.1754    0.1066 N   0  0  0  0  0  0  0  0  0  0  0  0
   -2.1061    0.2748   -0.7612 H   0  0  0  0  0  0  0  0  0  0  0  0
   -0.2025    0.6984    0.0669 C   0  0  1  0  0  0  0  0  0  0  0  0
    0.0515    0.8898   -0.9795 H   0  0  0  0  0  0  0  0  0  0  0  0
   -0.2402    2.0404    0.8246 C   0  0  0  0  0  0  0  0  0  0  0  0
   -0.6205    1.8668    1.8384 H   0  0  0  0  0  0  0  0  0  0  0  0
    0.7611    2.4688    0.9209 H   0  0  0  0  0  0  0  0  0  0  0  0
   -1.1165    3.0389    0.1106 C   0  0  0  0  0  0  0  0  0  0  0  0
   -0.8388    3.7452   -1.0402 N   0  0  0  0  0  0  0  0  0  0  0  0
    0.0182    3.7029   -1.5871 H   0  0  0  0  0  0  0  0  0  0  0  0
   -1.9225    4.5565   -1.3225 C   0  0  0  0  0  0  0  0  0  0  0  0
   -1.9937    5.2310   -2.1710 H   0  0  0  0  0  0  0  0  0  0  0  0
   -2.8560    4.3942   -0.4168 N   0  0  0  0  0  0  0  0  0  0  0  0
   -2.3649    3.4587    0.4885 C   0  0  0  0  0  0  0  0  0  0  0  0
   -2.8977    3.1081    1.3677 H   0  0  0  0  0  0  0  0  0  0  0  0
    0.9617   -0.1768    0.6188 C   0  0  0  0  0  0  0  0  0  0  0  0
    0.8805   -1.3985    0.6358 O   0  0  0  0  0  0  0  0  0  0  0  0
    2.2533    0.3286    0.5802 N   0  0  0  0  0  0  0  0  0  0  0  0
    2.3620    1.3315    0.4736 H   0  0  0  0  0  0  0  0  0  0  0  0
    3.4434   -0.4754    0.8414 C   0  0  0  0  0  0  0  0  0  0  0  0
    3.5577   -1.2510    0.0768 H   0  0  0  0  0  0  0  0  0  0  0  0
    4.3371    0.1556    0.8295 H   0  0  0  0  0  0  0  0  0  0  0  0
    3.3733   -0.9562    1.8231 H   0  0  0  0  0  0  0  0  0  0  0  0
  1  2  1  0  0  0  0
  2  3  1  0  0  0  0
  2  4  1  0  0  0  0
  2  5  1  0  0  0  0
  5  6  2  0  0  0  0
  5  7  1  0  0  0  0
  7  8  1  0  0  0  0
  7  9  1  0  0  0  0
  9 10  1  0  0  0  0
  9 11  1  0  0  0  0
  9 22  1  0  0  0  0
 11 12  1  0  0  0  0
 11 13  1  0  0  0  0
 11 14  1  0  0  0  0
 14 15  1  0  0  0  0
 14 20  2  0  0  0  0
 15 16  1  0  0  0  0
 15 17  1  0  0  0  0
 17 18  1  0  0  0  0
 17 19  2  0  0  0  0
 19 20  1  0  0  0  0
 20 21  1  0  0  0  0
 22 23  2  0  0  0  0
 22 24  1  0  0  0  0
 24 25  1  0  0  0  0
 24 26  1  0  0  0  0
 26 27  1  0  0  0  0
 26 28  1  0  0  0  0
 26 29  1  0  0  0  0
M  END
$$$$

  -OEChem-01062216083D

 29 29  0     1  0  0  0  0  0999 V2000
   -3.2976   -2.5737    1.1076 H   0  0  0  0  0  0  0  0  0  0  0  0
   -3.1066   -1.7808    0.3792 C   0  0  0  0  0  0  0  0  0  0  0  0
   -4.0140   -1.1844    0.2590 H   0  0  0  0  0  0  0  0  0  0  0  0
   -2.8469   -2.2394   -0.5777 H   0  0  0  0  0  0  0  0  0  0  0  0
   -1.9654   -0.9025    0.8550 C   0  0  0  0  0  0  0  0  0  0  0  0
   -1.5333   -1.0302    1.9900 O   0  0  0  0  0  0  0  0  0  0  0  0
   -1.5786    0.1905    0.1026 N   0  0  0  0  0  0  0  0  0  0  0  0
   -2.1115    0.3003   -0.7543 H   0  0  0  0  0  0  0  0  0  0  0  0
   -0.1991    0.7311    0.0555 C   0  0  1  0  0  0  0  0  0  0  0  0
    0.0552    0.9236   -0.9906 H   0  0  0  0  0  0  0  0  0  0  0  0
   -0.2463    2.0756    0.8091 C   0  0  0  0  0  0  0  0  0  0  0  0
   -0.6143    1.9038    1.8275 H   0  0  0  0  0  0  0  0  0  0  0  0
    0.7492    2.5195    0.8883 H   0  0  0  0  0  0  0  0  0  0  0  0
   -1.1383    3.0600    0.0951 C   0  0  0  0  0  0  0  0  0  0  0  0
   -0.8758    3.7636   -1.0609 N   0  0  0  0  0  0  0  0  0  0  0  0
   -0.0235    3.7243   -1.6157 H   0  0  0  0  0  0  0  0  0  0  0  0
   -1.9704    4.5610   -1.3406 C   0  0  0  0  0  0  0  0  0  0  0  0
   -2.0557    5.2290   -2.1930 H   0  0  0  0  0  0  0  0  0  0  0  0
   -2.8954    4.3945   -0.4269 N   0  0  0  0  0  0  0  0  0  0  0  0
   -2.3879    3.4698    0.4800 C   0  0  0  0  0  0  0  0  0  0  0  0
   -2.9101    3.1189    1.3654 H   0  0  0  0  0  0  0  0  0  0  0  0
    0.9494   -0.1704    0.5980 C   0  0  0  0  0  0  0  0  0  0  0  0
    0.9264   -1.3736    0.3646 O   0  0  0  0  0  0  0  0  0  0  0  0
    2.1974    0.3665    0.8791 N   0  0  0  0  0  0  0  0  0  0  0  0
    2.2483    1.3655    1.0464 H   0  0  0  0  0  0  0  0  0  0  0  0
    3.3642   -0.4490    1.2019 C   0  0  0  0  0  0  0  0  0  0  0  0
    3.6467   -1.0708    0.3458 H   0  0  0  0  0  0  0  0  0  0  0  0
    4.2139    0.1907    1.4586 H   0  0  0  0  0  0  0  0  0  0  0  0
    3.1522   -1.1014    2.0559 H   0  0  0  0  0  0  0  0  0  0  0  0
  1  2  1  0  0  0  0
  2  3  1  0  0  0  0
  2  4  1  0  0  0  0
  2  5  1  0  0  0  0
  5  6  2  0  0  0  0
  5  7  1  0  0  0  0
  7  8  1  0  0  0  0
  7  9  1  0  0  0  0
  9 10  1  0  0  0  0
  9 11  1  0  0  0  0
  9 22  1  0  0  0  0
 11 12  1  0  0  0  0
 11 13  1  0  0  0  0
 11 14  1  0  0  0  0
 14 15  1  0  0  0  0
 14 20  2  0  0  0  0
 15 16  1  0  0  0  0
 15 17  1  0  0  0  0
 17 18  1  0  0  0  0
 17 19  2  0  0  0  0
 19 20  1  0  0  0  0
 20 21  1  0  0  0  0
 22 23  2  0  0  0  0
 22 24  1  0  0  0  0
 24 25  1  0  0  0  0
 24 26  1  0  0  0  0
 26 27  1  0  0  0  0
 26 28  1  0  0  0  0
 26 29  1  0  0  0  0
M  END
$$$$

  -OEChem-01062216083D

 29 29  0     1  0  0  0  0  0999 V2000
   -3.2612   -2.5896    1.0937 H   0  0  0  0  0  0  0  0  0  0  0  0
   -3.1047   -1.7657    0.3918 C   0  0  0  0  0  0  0  0  0  0  0  0
   -4.0118   -1.1583    0.3504 H   0  0  0  0  0  0  0  0  0  0  0  0
   -2.9045   -2.1823   -0.5981 H   0  0  0  0  0  0  0  0  0  0  0  0
   -1.9309   -0.9164    0.8399 C   0  0  0  0  0  0  0  0  0  0  0  0
   -1.4396   -1.0970    1.9432 O   0  0  0  0  0  0  0  0  0  0  0  0
   -1.5646    0.1921    0.0991 N   0  0  0  0  0  0  0  0  0  0  0  0
   -2.1195    0.3255   -0.7406 H   0  0  0  0  0  0  0  0  0  0  0  0
   -0.1948    0.7540    0.0472 C   0  0  1  0  0  0  0  0  0  0  0  0
    0.0546    0.9493   -0.9999 H   0  0  0  0  0  0  0  0  0  0  0  0
   -0.2464    2.1003    0.7956 C   0  0  0  0  0  0  0  0  0  0  0  0
   -0.6030    1.9319    1.8184 H   0  0  0  0  0  0  0  0  0  0  0  0
    0.7475    2.5518    0.8572 H   0  0  0  0  0  0  0  0  0  0  0  0
   -1.1515    3.0729    0.0825 C   0  0  0  0  0  0  0  0  0  0  0  0
   -0.8997    3.7706   -1.0793 N   0  0  0  0  0  0  0  0  0  0  0  0
   -0.0495    3.7328   -1.6377 H   0  0  0  0  0  0  0  0  0  0  0  0
   -2.0019    4.5571   -1.3599 C   0  0  0  0  0  0  0  0  0  0  0  0
   -2.0965    5.2179   -2.2171 H   0  0  0  0  0  0  0  0  0  0  0  0
   -2.9213    4.3899   -0.4403 N   0  0  0  0  0  0  0  0  0  0  0  0
   -2.4020    3.4761    0.4709 C   0  0  0  0  0  0  0  0  0  0  0  0
   -2.9171    3.1281    1.3613 H   0  0  0  0  0  0  0  0  0  0  0  0
    0.9497   -0.1581    0.5759 C   0  0  0  0  0  0  0  0  0  0  0  0
    1.0164   -1.3063    0.1511 O   0  0  0  0  0  0  0  0  0  0  0  0
    2.0958    0.3637    1.1566 N   0  0  0  0  0  0  0  0  0  0  0  0
    2.0263    1.2946    1.5536 H   0  0  0  0  0  0  0  0  0  0  0  0
    3.2280   -0.4679    1.5507 C   0  0  0  0  0  0  0  0  0  0  0  0
    3.6711   -0.9537    0.6750 H   0  0  0  0  0  0  0  0  0  0  0  0
    3.9978    0.1433    2.0309 H   0  0  0  0  0  0  0  0  0  0  0  0
    2.9075   -1.2406    2.2576 H   0  0  0  0  0  0  0  0  0  0  0  0
  1  2  1  0  0  0  0
  2  3  1  0  0  0  0
  2  4  1  0  0  0  0
  2  5  1  0  0  0  0
  5  6  2  0  0  0  0
  5  7  1  0  0  0  0
  7  8  1  0  0  0  0
  7  9  1  0  0  0  0
  9 10  1  0  0  0  0
  9 11  1  0  0  0  0
  9 22  1  0  0  0  0
 11 12  1  0  0  0  0
 11 13  1  0  0  0  0
 11 14  1  0  0  0  0
 14 15  1  0  0  0  0
 14 20  2  0  0  0  0
 15 16  1  0  0  0  0
 15 17  1  0  0  0  0
 17 18  1  0  0  0  0
 17 19  2  0  0  0  0
 19 20  1  0  0  0  0
 20 21  1  0  0  0  0
 22 23  2  0  0  0  0
 22 24  1  0  0  0  0
 24 25  1  0  0  0  0
 24 26  1  0  0  0  0
 26 27  1  0  0  0  0
 26 28  1  0  0  0  0
 26 29  1  0  0  0  0
M  END
$$$$

  -OEChem-01062216083D

 29 29  0     1  0  0  0  0  0999 V2000
   -3.2490   -2.6005    1.0748 H   0  0  0  0  0  0  0  0  0  0  0  0
   -3.1135   -1.7533    0.3966 C   0  0  0  0  0  0  0  0  0  0  0  0
   -4.0134   -1.1344    0.4193 H   0  0  0  0  0  0  0  0  0  0  0  0
   -2.9649   -2.1357   -0.6161 H   0  0  0  0  0  0  0  0  0  0  0  0
   -1.9099   -0.9341    0.8212 C   0  0  0  0  0  0  0  0  0  0  0  0
   -1.3729   -1.1633    1.8934 O   0  0  0  0  0  0  0  0  0  0  0  0
   -1.5532    0.1850    0.0914 N   0  0  0  0  0  0  0  0  0  0  0  0
   -2.1287    0.3474   -0.7294 H   0  0  0  0  0  0  0  0  0  0  0  0
   -0.1913    0.7641    0.0412 C   0  0  1  0  0  0  0  0  0  0  0  0
    0.0553    0.9621   -1.0064 H   0  0  0  0  0  0  0  0  0  0  0  0
   -0.2475    2.1109    0.7863 C   0  0  0  0  0  0  0  0  0  0  0  0
   -0.6014    1.9439    1.8100 H   0  0  0  0  0  0  0  0  0  0  0  0
    0.7472    2.5630    0.8428 H   0  0  0  0  0  0  0  0  0  0  0  0
   -1.1593    3.0774    0.0741 C   0  0  0  0  0  0  0  0  0  0  0  0
   -0.9105    3.7724   -1.0898 N   0  0  0  0  0  0  0  0  0  0  0  0
   -0.0599    3.7361   -1.6480 H   0  0  0  0  0  0  0  0  0  0  0  0
   -2.0142    4.5563   -1.3711 C   0  0  0  0  0  0  0  0  0  0  0  0
   -2.1103    5.2157   -2.2293 H   0  0  0  0  0  0  0  0  0  0  0  0
   -2.9327    4.3886   -0.4505 N   0  0  0  0  0  0  0  0  0  0  0  0
   -2.4105    3.4783    0.4625 C   0  0  0  0  0  0  0  0  0  0  0  0
   -2.9245    3.1315    1.3542 H   0  0  0  0  0  0  0  0  0  0  0  0
    0.9561   -0.1458    0.5620 C   0  0  0  0  0  0  0  0  0  0  0  0
    1.1389   -1.2156   -0.0079 O   0  0  0  0  0  0  0  0  0  0  0  0
    1.9515    0.3163    1.4091 N   0  0  0  0  0  0  0  0  0  0  0  0
    1.7315    1.1419    1.9565 H   0  0  0  0  0  0  0  0  0  0  0  0
    3.0439   -0.5354    1.8666 C   0  0  0  0  0  0  0  0  0  0  0  0
    3.6453   -0.8784    1.0181 H   0  0  0  0  0  0  0  0  0  0  0  0
    3.6960    0.0187    2.5484 H   0  0  0  0  0  0  0  0  0  0  0  0
    2.6508   -1.4101    2.3958 H   0  0  0  0  0  0  0  0  0  0  0  0
  1  2  1  0  0  0  0
  2  3  1  0  0  0  0
  2  4  1  0  0  0  0
  2  5  1  0  0  0  0
  5  6  2  0  0  0  0
  5  7  1  0  0  0  0
  7  8  1  0  0  0  0
  7  9  1  0  0  0  0
  9 10  1  0  0  0  0
  9 11  1  0  0  0  0
  9 22  1  0  0  0  0
 11 12  1  0  0  0  0
 11 13  1  0  0  0  0
 11 14  1  0  0  0  0
 14 15  1  0  0  0  0
 14 20  2  0  0  0  0
 15 16  1  0  0  0  0
 15 17  1  0  0  0  0
 17 18  1  0  0  0  0
 17 19  2  0  0  0  0
 19 20  1  0  0  0  0
 20 21  1  0  0  0  0
 22 23  2  0  0  0  0
 22 24  1  0  0  0  0
 24 25  1  0  0  0  0
 24 26  1  0  0  0  0
 26 27  1  0  0  0  0
 26 28  1  0  0  0  0
 26 29  1  0  0  0  0
M  END
$$$$

  -OEChem-01062216083D

 29 29  0     1  0  0  0  0  0999 V2000
   -3.2746   -2.5937    1.0529 H   0  0  0  0  0  0  0  0  0  0  0  0
   -3.1402   -1.7314    0.3939 C   0  0  0  0  0  0  0  0  0  0  0  0
   -4.0235   -1.0921    0.4638 H   0  0  0  0  0  0  0  0  0  0  0  0
   -3.0352   -2.0887   -0.6334 H   0  0  0  0  0  0  0  0  0  0  0  0
   -1.9028   -0.9535    0.7990 C   0  0  0  0  0  0  0  0  0  0  0  0
   -1.3282   -1.2363    1.8381 O   0  0  0  0  0  0  0  0  0  0  0  0
   -1.5423    0.1725    0.0818 N   0  0  0  0  0  0  0  0  0  0  0  0
   -2.1358    0.3712   -0.7181 H   0  0  0  0  0  0  0  0  0  0  0  0
   -0.1862    0.7641    0.0403 C   0  0  1  0  0  0  0  0  0  0  0  0
    0.0611    0.9668   -1.0064 H   0  0  0  0  0  0  0  0  0  0  0  0
   -0.2473    2.1095    0.7853 C   0  0  0  0  0  0  0  0  0  0  0  0
   -0.6060    1.9426    1.8071 H   0  0  0  0  0  0  0  0  0  0  0  0
    0.7495    2.5580    0.8471 H   0  0  0  0  0  0  0  0  0  0  0  0
   -1.1601    3.0732    0.0708 C   0  0  0  0  0  0  0  0  0  0  0  0
   -0.9099    3.7684   -1.0924 N   0  0  0  0  0  0  0  0  0  0  0  0
   -0.0557    3.7368   -1.6456 H   0  0  0  0  0  0  0  0  0  0  0  0
   -2.0155    4.5477   -1.3786 C   0  0  0  0  0  0  0  0  0  0  0  0
   -2.1103    5.2068   -2.2370 H   0  0  0  0  0  0  0  0  0  0  0  0
   -2.9374    4.3757   -0.4621 N   0  0  0  0  0  0  0  0  0  0  0  0
   -2.4149    3.4682    0.4533 C   0  0  0  0  0  0  0  0  0  0  0  0
   -2.9313    3.1185    1.3424 H   0  0  0  0  0  0  0  0  0  0  0  0
    0.9671   -0.1361    0.5597 C   0  0  0  0  0  0  0  0  0  0  0  0
    1.2945   -1.0957   -0.1285 O   0  0  0  0  0  0  0  0  0  0  0  0
    1.7727    0.2205    1.6297 N   0  0  0  0  0  0  0  0  0  0  0  0
    1.3823    0.9026    2.2722 H   0  0  0  0  0  0  0  0  0  0  0  0
    2.8319   -0.6506    2.1256 C   0  0  0  0  0  0  0  0  0  0  0  0
    3.5754   -0.8356    1.3432 H   0  0  0  0  0  0  0  0  0  0  0  0
    3.3377   -0.1849    2.9766 H   0  0  0  0  0  0  0  0  0  0  0  0
    2.4163   -1.6105    2.4507 H   0  0  0  0  0  0  0  0  0  0  0  0
  1  2  1  0  0  0  0
  2  3  1  0  0  0  0
  2  4  1  0  0  0  0
  2  5  1  0  0  0  0
  5  6  2  0  0  0  0
  5  7  1  0  0  0  0
  7  8  1  0  0  0  0
  7  9  1  0  0  0  0
  9 10  1  0  0  0  0
  9 11  1  0  0  0  0
  9 22  1  0  0  0  0
 11 12  1  0  0  0  0
 11 13  1  0  0  0  0
 11 14  1  0  0  0  0
 14 15  1  0  0  0  0
 14 20  2  0  0  0  0
 15 16  1  0  0  0  0
 15 17  1  0  0  0  0
 17 18  1  0  0  0  0
 17 19  2  0  0  0  0
 19 20  1  0  0  0  0
 20 21  1  0  0  0  0
 22 23  2  0  0  0  0
 22 24  1  0  0  0  0
 24 25  1  0  0  0  0
 24 26  1  0  0  0  0
 26 27  1  0  0  0  0
 26 28  1  0  0  0  0
 26 29  1  0  0  0  0
M  END
$$$$

  -OEChem-01062216083D

 29 29  0     1  0  0  0  0  0999 V2000
   -3.3315   -2.5715    1.0440 H   0  0  0  0  0  0  0  0  0  0  0  0
   -3.1804   -1.7098    0.3879 C   0  0  0  0  0  0  0  0  0  0  0  0
   -4.0417   -1.0435    0.4758 H   0  0  0  0  0  0  0  0  0  0  0  0
   -3.1037   -2.0636   -0.6429 H   0  0  0  0  0  0  0  0  0  0  0  0
   -1.9131   -0.9731    0.7777 C   0  0  0  0  0  0  0  0  0  0  0  0
   -1.3142   -1.3017    1.7889 O   0  0  0  0  0  0  0  0  0  0  0  0
   -1.5399    0.1553    0.0714 N   0  0  0  0  0  0  0  0  0  0  0  0
   -2.1474    0.3911   -0.7080 H   0  0  0  0  0  0  0  0  0  0  0  0
   -0.1866    0.7532    0.0416 C   0  0  1  0  0  0  0  0  0  0  0  0
    0.0622    0.9595   -1.0042 H   0  0  0  0  0  0  0  0  0  0  0  0
   -0.2479    2.0963    0.7892 C   0  0  0  0  0  0  0  0  0  0  0  0
   -0.6130    1.9310    1.8087 H   0  0  0  0  0  0  0  0  0  0  0  0
    0.7521    2.5372    0.8581 H   0  0  0  0  0  0  0  0  0  0  0  0
   -1.1562    3.0622    0.0725 C   0  0  0  0  0  0  0  0  0  0  0  0
   -0.8981    3.7575   -1.0887 N   0  0  0  0  0  0  0  0  0  0  0  0
   -0.0405    3.7244   -1.6368 H   0  0  0  0  0  0  0  0  0  0  0  0
   -2.0008    4.5386   -1.3808 C   0  0  0  0  0  0  0  0  0  0  0  0
   -2.0901    5.1976   -2.2399 H   0  0  0  0  0  0  0  0  0  0  0  0
   -2.9281    4.3678   -0.4693 N   0  0  0  0  0  0  0  0  0  0  0  0
   -2.4115    3.4605    0.4494 C   0  0  0  0  0  0  0  0  0  0  0  0
   -2.9331    3.1120    1.3358 H   0  0  0  0  0  0  0  0  0  0  0  0
    0.9738   -0.1330    0.5647 C   0  0  0  0  0  0  0  0  0  0  0  0
    1.4796   -0.9333   -0.2128 O   0  0  0  0  0  0  0  0  0  0  0  0
    1.5653    0.0733    1.8002 N   0  0  0  0  0  0  0  0  0  0  0  0
    0.9823    0.5485    2.4828 H   0  0  0  0  0  0  0  0  0  0  0  0
    2.6129   -0.8039    2.3083 C   0  0  0  0  0  0  0  0  0  0  0  0
    3.4764   -0.8034    1.6349 H   0  0  0  0  0  0  0  0  0  0  0  0
    2.9458   -0.4625    3.2931 H   0  0  0  0  0  0  0  0  0  0  0  0
    2.2395   -1.8292    2.4025 H   0  0  0  0  0  0  0  0  0  0  0  0
  1  2  1  0  0  0  0
  2  3  1  0  0  0  0
  2  4  1  0  0  0  0
  2  5  1  0  0  0  0
  5  6  2  0  0  0  0
  5  7  1  0  0  0  0
  7  8  1  0  0  0  0
  7  9  1  0  0  0  0
  9 10  1  0  0  0  0
  9 11  1  0  0  0  0
  9 22  1  0  0  0  0
 11 12  1  0  0  0  0
 11 13  1  0  0  0  0
 11 14  1  0  0  0  0
 14 15  1  0  0  0  0
 14 20  2  0  0  0  0
 15 16  1  0  0  0  0
 15 17  1  0  0  0  0
 17 18  1  0  0  0  0
 17 19  2  0  0  0  0
 19 20  1  0  0  0  0
 20 21  1  0  0  0  0
 22 23  2  0  0  0  0
 22 24  1  0  0  0  0
 24 25  1  0  0  0  0
 24 26  1  0  0  0  0
 26 27  1  0  0  0  0
 26 28  1  0  0  0  0
 26 29  1  0  0  0  0
M  END
$$$$

  -OEChem-01062216083D

 29 29  0     1  0  0  0  0  0999 V2000
   -3.4095   -2.5739    0.9632 H   0  0  0  0  0  0  0  0  0  0  0  0
   -3.2660   -1.6637    0.3742 C   0  0  0  0  0  0  0  0  0  0  0  0
   -4.0955   -0.9805    0.5720 H   0  0  0  0  0  0  0  0  0  0  0  0
   -3.2651   -1.9292   -0.6856 H   0  0  0  0  0  0  0  0  0  0  0  0
   -1.9515   -1.0036    0.7445 C   0  0  0  0  0  0  0  0  0  0  0  0
   -1.3357   -1.3997    1.7199 O   0  0  0  0  0  0  0  0  0  0  0  0
   -1.5443    0.1222    0.0540 N   0  0  0  0  0  0  0  0  0  0  0  0
   -2.1680    0.4187   -0.6916 H   0  0  0  0  0  0  0  0  0  0  0  0
   -0.1904    0.7196    0.0442 C   0  0  1  0  0  0  0  0  0  0  0  0
    0.0643    0.9298   -0.9997 H   0  0  0  0  0  0  0  0  0  0  0  0
   -0.2534    2.0593    0.7966 C   0  0  0  0  0  0  0  0  0  0  0  0
   -0.6284    1.8924    1.8122 H   0  0  0  0  0  0  0  0  0  0  0  0
    0.7493    2.4926    0.8786 H   0  0  0  0  0  0  0  0  0  0  0  0
   -1.1501    3.0317    0.0746 C   0  0  0  0  0  0  0  0  0  0  0  0
   -0.8757    3.7296   -1.0812 N   0  0  0  0  0  0  0  0  0  0  0  0
   -0.0119    3.6938   -1.6196 H   0  0  0  0  0  0  0  0  0  0  0  0
   -1.9695    4.5203   -1.3806 C   0  0  0  0  0  0  0  0  0  0  0  0
   -2.0461    5.1820   -2.2388 H   0  0  0  0  0  0  0  0  0  0  0  0
   -2.9061    4.3540   -0.4775 N   0  0  0  0  0  0  0  0  0  0  0  0
   -2.4038    3.4415    0.4437 C   0  0  0  0  0  0  0  0  0  0  0  0
   -2.9338    3.0986    1.3273 H   0  0  0  0  0  0  0  0  0  0  0  0
    0.9788   -0.1466    0.5791 C   0  0  0  0  0  0  0  0  0  0  0  0
    1.6966   -0.7146   -0.2350 O   0  0  0  0  0  0  0  0  0  0  0  0
    1.3475   -0.1313    1.9136 N   0  0  0  0  0  0  0  0  0  0  0  0
    0.5806    0.0684    2.5519 H   0  0  0  0  0  0  0  0  0  0  0  0
    2.4314   -0.9641    2.4205 C   0  0  0  0  0  0  0  0  0  0  0  0
    3.3701   -0.7287    1.9080 H   0  0  0  0  0  0  0  0  0  0  0  0
    2.5725   -0.7891    3.4913 H   0  0  0  0  0  0  0  0  0  0  0  0
    2.2021   -2.0241    2.2677 H   0  0  0  0  0  0  0  0  0  0  0  0
  1  2  1  0  0  0  0
  2  3  1  0  0  0  0
  2  4  1  0  0  0  0
  2  5  1  0  0  0  0
  5  6  2  0  0  0  0
  5  7  1  0  0  0  0
  7  8  1  0  0  0  0
  7  9  1  0  0  0  0
  9 10  1  0  0  0  0
  9 11  1  0  0  0  0
  9 22  1  0  0  0  0
 11 12  1  0  0  0  0
 11 13  1  0  0  0  0
 11 14  1  0  0  0  0
 14 15  1  0  0  0  0
 14 20  2  0  0  0  0
 15 16  1  0  0  0  0
 15 17  1  0  0  0  0
 17 18  1  0  0  0  0
 17 19  2  0  0  0  0
 19 20  1  0  0  0  0
 20 21  1  0  0  0  0
 22 23  2  0  0  0  0
 22 24  1  0  0  0  0
 24 25  1  0  0  0  0
 24 26  1  0  0  0  0
 26 27  1  0  0  0  0
 26 28  1  0  0  0  0
 26 29  1  0  0  0  0
M  END
$$$$

  -OEChem-01062216083D

 29 29  0     1  0  0  0  0  0999 V2000
   -3.5637   -2.5016    0.9429 H   0  0  0  0  0  0  0  0  0  0  0  0
   -3.3658   -1.6061    0.3469 C   0  0  0  0  0  0  0  0  0  0  0  0
   -4.1535   -0.8734    0.5393 H   0  0  0  0  0  0  0  0  0  0  0  0
   -3.3813   -1.8791   -0.7110 H   0  0  0  0  0  0  0  0  0  0  0  0
   -2.0144   -1.0224    0.7126 C   0  0  0  0  0  0  0  0  0  0  0  0
   -1.4069   -1.4776    1.6662 O   0  0  0  0  0  0  0  0  0  0  0  0
   -1.5603    0.0939    0.0367 N   0  0  0  0  0  0  0  0  0  0  0  0
   -2.1883    0.4422   -0.6830 H   0  0  0  0  0  0  0  0  0  0  0  0
   -0.1990    0.6789    0.0411 C   0  0  1  0  0  0  0  0  0  0  0  0
    0.0580    0.8950   -1.0011 H   0  0  0  0  0  0  0  0  0  0  0  0
   -0.2583    2.0111    0.8057 C   0  0  0  0  0  0  0  0  0  0  0  0
   -0.6405    1.8367    1.8173 H   0  0  0  0  0  0  0  0  0  0  0  0
    0.7469    2.4360    0.9006 H   0  0  0  0  0  0  0  0  0  0  0  0
   -1.1426    2.9961    0.0855 C   0  0  0  0  0  0  0  0  0  0  0  0
   -0.8542    3.7025   -1.0613 N   0  0  0  0  0  0  0  0  0  0  0  0
    0.0154    3.6679   -1.5905 H   0  0  0  0  0  0  0  0  0  0  0  0
   -1.9414    4.5011   -1.3639 C   0  0  0  0  0  0  0  0  0  0  0  0
   -2.0071    5.1715   -2.2162 H   0  0  0  0  0  0  0  0  0  0  0  0
   -2.8877    4.3303   -0.4718 N   0  0  0  0  0  0  0  0  0  0  0  0
   -2.3977    3.4082    0.4465 C   0  0  0  0  0  0  0  0  0  0  0  0
   -2.9377    3.0581    1.3212 H   0  0  0  0  0  0  0  0  0  0  0  0
    0.9831   -0.1647    0.5833 C   0  0  0  0  0  0  0  0  0  0  0  0
    1.8775   -0.4715   -0.1954 O   0  0  0  0  0  0  0  0  0  0  0  0
    1.1658   -0.3786    1.9377 N   0  0  0  0  0  0  0  0  0  0  0  0
    0.2880   -0.4345    2.4558 H   0  0  0  0  0  0  0  0  0  0  0  0
    2.2862   -1.1562    2.4521 C   0  0  0  0  0  0  0  0  0  0  0  0
    3.2374   -0.7021    2.1560 H   0  0  0  0  0  0  0  0  0  0  0  0
    2.2487   -1.1922    3.5450 H   0  0  0  0  0  0  0  0  0  0  0  0
    2.2496   -2.1812    2.0681 H   0  0  0  0  0  0  0  0  0  0  0  0
  1  2  1  0  0  0  0
  2  3  1  0  0  0  0
  2  4  1  0  0  0  0
  2  5  1  0  0  0  0
  5  6  2  0  0  0  0
  5  7  1  0  0  0  0
  7  8  1  0  0  0  0
  7  9  1  0  0  0  0
  9 10  1  0  0  0  0
  9 11  1  0  0  0  0
  9 22  1  0  0  0  0
 11 12  1  0  0  0  0
 11 13  1  0  0  0  0
 11 14  1  0  0  0  0
 14 15  1  0  0  0  0
 14 20  2  0  0  0  0
 15 16  1  0  0  0  0
 15 17  1  0  0  0  0
 17 18  1  0  0  0  0
 17 19  2  0  0  0  0
 19 20  1  0  0  0  0
 20 21  1  0  0  0  0
 22 23  2  0  0  0  0
 22 24  1  0  0  0  0
 24 25  1  0  0  0  0
 24 26  1  0  0  0  0
 26 27  1  0  0  0  0
 26 28  1  0  0  0  0
 26 29  1  0  0  0  0
M  END
$$$$

  -OEChem-01062216083D

 29 29  0     1  0  0  0  0  0999 V2000
   -3.7228   -2.4291    0.8694 H   0  0  0  0  0  0  0  0  0  0  0  0
   -3.4797   -1.5174    0.3161 C   0  0  0  0  0  0  0  0  0  0  0  0
   -4.2074   -0.7440    0.5742 H   0  0  0  0  0  0  0  0  0  0  0  0
   -3.5466   -1.7295   -0.7538 H   0  0  0  0  0  0  0  0  0  0  0  0
   -2.0797   -1.0493    0.6662 C   0  0  0  0  0  0  0  0  0  0  0  0
   -1.4789   -1.6079    1.5659 O   0  0  0  0  0  0  0  0  0  0  0  0
   -1.5694    0.0600    0.0189 N   0  0  0  0  0  0  0  0  0  0  0  0
   -2.2075    0.4872   -0.6477 H   0  0  0  0  0  0  0  0  0  0  0  0
   -0.2033    0.6394    0.0463 C   0  0  1  0  0  0  0  0  0  0  0  0
    0.0589    0.8623   -0.9932 H   0  0  0  0  0  0  0  0  0  0  0  0
   -0.2773    1.9646    0.8211 C   0  0  0  0  0  0  0  0  0  0  0  0
   -0.6722    1.7805    1.8263 H   0  0  0  0  0  0  0  0  0  0  0  0
    0.7249    2.3929    0.9335 H   0  0  0  0  0  0  0  0  0  0  0  0
   -1.1510    2.9534    0.0935 C   0  0  0  0  0  0  0  0  0  0  0  0
   -0.8407    3.6674   -1.0428 N   0  0  0  0  0  0  0  0  0  0  0  0
    0.0398    3.6372   -1.5542 H   0  0  0  0  0  0  0  0  0  0  0  0
   -1.9228    4.4661   -1.3620 C   0  0  0  0  0  0  0  0  0  0  0  0
   -1.9723    5.1409   -2.2119 H   0  0  0  0  0  0  0  0  0  0  0  0
   -2.8864    4.2880   -0.4898 N   0  0  0  0  0  0  0  0  0  0  0  0
   -2.4127    3.3626    0.4336 C   0  0  0  0  0  0  0  0  0  0  0  0
   -2.9691    3.0073    1.2959 H   0  0  0  0  0  0  0  0  0  0  0  0
    1.0027   -0.1667    0.5954 C   0  0  0  0  0  0  0  0  0  0  0  0
    2.0163   -0.2137   -0.0910 O   0  0  0  0  0  0  0  0  0  0  0  0
    1.0584   -0.6381    1.8935 N   0  0  0  0  0  0  0  0  0  0  0  0
    0.1402   -0.8475    2.2922 H   0  0  0  0  0  0  0  0  0  0  0  0
    2.1947   -1.3957    2.4030 C   0  0  0  0  0  0  0  0  0  0  0  0
    3.1151   -0.8072    2.3274 H   0  0  0  0  0  0  0  0  0  0  0  0
    2.0349   -1.6494    3.4553 H   0  0  0  0  0  0  0  0  0  0  0  0
    2.3214   -2.3241    1.8363 H   0  0  0  0  0  0  0  0  0  0  0  0
  1  2  1  0  0  0  0
  2  3  1  0  0  0  0
  2  4  1  0  0  0  0
  2  5  1  0  0  0  0
  5  6  2  0  0  0  0
  5  7  1  0  0  0  0
  7  8  1  0  0  0  0
  7  9  1  0  0  0  0
  9 10  1  0  0  0  0
  9 11  1  0  0  0  0
  9 22  1  0  0  0  0
 11 12  1  0  0  0  0
 11 13  1  0  0  0  0
 11 14  1  0  0  0  0
 14 15  1  0  0  0  0
 14 20  2  0  0  0  0
 15 16  1  0  0  0  0
 15 17  1  0  0  0  0
 17 18  1  0  0  0  0
 17 19  2  0  0  0  0
 19 20  1  0  0  0  0
 20 21  1  0  0  0  0
 22 23  2  0  0  0  0
 22 24  1  0  0  0  0
 24 25  1  0  0  0  0
 24 26  1  0  0  0  0
 26 27  1  0  0  0  0
 26 28  1  0  0  0  0
 26 29  1  0  0  0  0
M  END
$$$$

  -OEChem-01062216083D

 29 29  0     1  0  0  0  0  0999 V2000
   -3.8696   -2.3423    0.8234 H   0  0  0  0  0  0  0  0  0  0  0  0
   -3.5781   -1.4319    0.2917 C   0  0  0  0  0  0  0  0  0  0  0  0
   -4.2543   -0.6236    0.5812 H   0  0  0  0  0  0  0  0  0  0  0  0
   -3.6708   -1.6089   -0.7827 H   0  0  0  0  0  0  0  0  0  0  0  0
   -2.1480   -1.0592    0.6347 C   0  0  0  0  0  0  0  0  0  0  0  0
   -1.5681   -1.6976    1.4928 O   0  0  0  0  0  0  0  0  0  0  0  0
   -1.5879    0.0400    0.0116 N   0  0  0  0  0  0  0  0  0  0  0  0
   -2.2219    0.5196   -0.6226 H   0  0  0  0  0  0  0  0  0  0  0  0
   -0.2149    0.6061    0.0585 C   0  0  1  0  0  0  0  0  0  0  0  0
    0.0542    0.8328   -0.9785 H   0  0  0  0  0  0  0  0  0  0  0  0
   -0.3037    1.9283    0.8381 C   0  0  0  0  0  0  0  0  0  0  0  0
   -0.7162    1.7384    1.8351 H   0  0  0  0  0  0  0  0  0  0  0  0
    0.6951    2.3584    0.9715 H   0  0  0  0  0  0  0  0  0  0  0  0
   -1.1639    2.9201    0.0976 C   0  0  0  0  0  0  0  0  0  0  0  0
   -0.8297    3.6374   -1.0296 N   0  0  0  0  0  0  0  0  0  0  0  0
    0.0619    3.6091   -1.5217 H   0  0  0  0  0  0  0  0  0  0  0  0
   -1.9045    4.4375   -1.3690 C   0  0  0  0  0  0  0  0  0  0  0  0
   -1.9361    5.1148   -2.2179 H   0  0  0  0  0  0  0  0  0  0  0  0
   -2.8862    4.2571   -0.5174 N   0  0  0  0  0  0  0  0  0  0  0  0
   -2.4318    3.3300    0.4136 C   0  0  0  0  0  0  0  0  0  0  0  0
   -3.0057    2.9729    1.2635 H   0  0  0  0  0  0  0  0  0  0  0  0
    1.0090   -0.1722    0.6130 C   0  0  0  0  0  0  0  0  0  0  0  0
    2.0793   -0.0111    0.0387 O   0  0  0  0  0  0  0  0  0  0  0  0
    1.0053   -0.9011    1.7858 N   0  0  0  0  0  0  0  0  0  0  0  0
    0.0793   -1.1904    2.1095 H   0  0  0  0  0  0  0  0  0  0  0  0
    2.1573   -1.6615    2.2537 C   0  0  0  0  0  0  0  0  0  0  0  0
    3.0182   -1.0019    2.4053 H   0  0  0  0  0  0  0  0  0  0  0  0
    1.9251   -2.1475    3.2062 H   0  0  0  0  0  0  0  0  0  0  0  0
    2.4272   -2.4337    1.5258 H   0  0  0  0  0  0  0  0  0  0  0  0
  1  2  1  0  0  0  0
  2  3  1  0  0  0  0
  2  4  1  0  0  0  0
  2  5  1  0  0  0  0
  5  6  2  0  0  0  0
  5  7  1  0  0  0  0
  7  8  1  0  0  0  0
  7  9  1  0  0  0  0
  9 10  1  0  0  0  0
  9 11  1  0  0  0  0
  9 22  1  0  0  0  0
 11 12  1  0  0  0  0
 11 13  1  0  0  0  0
 11 14  1  0  0  0  0
 14 15  1  0  0  0  0
 14 20  2  0  0  0  0
 15 16  1  0  0  0  0
 15 17  1  0  0  0  0
 17 18  1  0  0  0  0
 17 19  2  0  0  0  0
 19 20  1  0  0  0  0
 20 21  1  0  0  0  0
 22 23  2  0  0  0  0
 22 24  1  0  0  0  0
 24 25  1  0  0  0  0
 24 26  1  0  0  0  0
 26 27  1  0  0  0  0
 26 28  1  0  0  0  0
 26 29  1  0  0  0  0
M  END
$$$$

  -OEChem-01062216083D

 29 29  0     1  0  0  0  0  0999 V2000
   -4.0039   -2.2310    0.9495 H   0  0  0  0  0  0  0  0  0  0  0  0
   -3.6849   -1.3406    0.4002 C   0  0  0  0  0  0  0  0  0  0  0  0
   -4.3113   -0.4975    0.7023 H   0  0  0  0  0  0  0  0  0  0  0  0
   -3.8203   -1.5223   -0.6687 H   0  0  0  0  0  0  0  0  0  0  0  0
   -2.2282   -1.0355    0.6956 C   0  0  0  0  0  0  0  0  0  0  0  0
   -1.6571   -1.6931    1.5442 O   0  0  0  0  0  0  0  0  0  0  0  0
   -1.6380    0.0281    0.0392 N   0  0  0  0  0  0  0  0  0  0  0  0
   -2.2773    0.5270   -0.5746 H   0  0  0  0  0  0  0  0  0  0  0  0
   -0.2463    0.5525    0.0239 C   0  0  1  0  0  0  0  0  0  0  0  0
   -0.0131    0.7578   -1.0259 H   0  0  0  0  0  0  0  0  0  0  0  0
   -0.2846    1.8861    0.7904 C   0  0  0  0  0  0  0  0  0  0  0  0
   -0.6658    1.7139    1.8028 H   0  0  0  0  0  0  0  0  0  0  0  0
    0.7250    2.3011    0.8866 H   0  0  0  0  0  0  0  0  0  0  0  0
   -1.1495    2.8878    0.0688 C   0  0  0  0  0  0  0  0  0  0  0  0
   -0.8411    3.5880   -1.0762 N   0  0  0  0  0  0  0  0  0  0  0  0
    0.0334    3.5398   -1.5968 H   0  0  0  0  0  0  0  0  0  0  0  0
   -1.9106    4.4079   -1.3840 C   0  0  0  0  0  0  0  0  0  0  0  0
   -1.9586    5.0791   -2.2368 H   0  0  0  0  0  0  0  0  0  0  0  0
   -2.8648    4.2554   -0.4965 N   0  0  0  0  0  0  0  0  0  0  0  0
   -2.3959    3.3277    0.4266 C   0  0  0  0  0  0  0  0  0  0  0  0
   -2.9454    2.9921    1.3011 H   0  0  0  0  0  0  0  0  0  0  0  0
    0.9960   -0.2266    0.5415 C   0  0  0  0  0  0  0  0  0  0  0  0
    2.0777    0.0748    0.0505 O   0  0  0  0  0  0  0  0  0  0  0  0
    0.9967   -1.1625    1.5553 N   0  0  0  0  0  0  0  0  0  0  0  0
    0.0805   -1.4757    1.8831 H   0  0  0  0  0  0  0  0  0  0  0  0
    2.1799   -1.8935    1.9899 C   0  0  0  0  0  0  0  0  0  0  0  0
    2.9471   -1.2013    2.3519 H   0  0  0  0  0  0  0  0  0  0  0  0
    1.9207   -2.5771    2.8040 H   0  0  0  0  0  0  0  0  0  0  0  0
    2.5938   -2.4792    1.1628 H   0  0  0  0  0  0  0  0  0  0  0  0
  1  2  1  0  0  0  0
  2  3  1  0  0  0  0
  2  4  1  0  0  0  0
  2  5  1  0  0  0  0
  5  6  2  0  0  0  0
  5  7  1  0  0  0  0
  7  8  1  0  0  0  0
  7  9  1  0  0  0  0
  9 10  1  0  0  0  0
  9 11  1  0  0  0  0
  9 22  1  0  0  0  0
 11 12  1  0  0  0  0
 11 13  1  0  0  0  0
 11 14  1  0  0  0  0
 14 15  1  0  0  0  0
 14 20  2  0  0  0  0
 15 16  1  0  0  0  0
 15 17  1  0  0  0  0
 17 18  1  0  0  0  0
 17 19  2  0  0  0  0
 19 20  1  0  0  0  0
 20 21  1  0  0  0  0
 22 23  2  0  0  0  0
 22 24  1  0  0  0  0
 24 25  1  0  0  0  0
 24 26  1  0  0  0  0
 26 27  1  0  0  0  0
 26 28  1  0  0  0  0
 26 29  1  0  0  0  0
M  END
$$$$

  -OEChem-01062216083D

 29 29  0     1  0  0  0  0  0999 V2000
   -3.3513   -2.5516    1.2351 H   0  0  0  0  0  0  0  0  0  0  0  0
   -3.1623   -1.6890    0.5897 C   0  0  0  0  0  0  0  0  0  0  0  0
   -3.9930   -0.9858    0.6891 H   0  0  0  0  0  0  0  0  0  0  0  0
   -3.1053   -2.0321   -0.4460 H   0  0  0  0  0  0  0  0  0  0  0  0
   -1.8631   -1.0137    0.9866 C   0  0  0  0  0  0  0  0  0  0  0  0
   -1.3421   -1.3213    2.0404 O   0  0  0  0  0  0  0  0  0  0  0  0
   -1.4259    0.0672    0.2490 N   0  0  0  0  0  0  0  0  0  0  0  0
   -2.0752    0.3481   -0.4805 H   0  0  0  0  0  0  0  0  0  0  0  0
   -0.0958    0.7247    0.1719 C   0  0  1  0  0  0  0  0  0  0  0  0
    0.0958    0.8989   -0.8910 H   0  0  0  0  0  0  0  0  0  0  0  0
   -0.3037    2.0891    0.8650 C   0  0  0  0  0  0  0  0  0  0  0  0
   -0.6611    1.9235    1.8876 H   0  0  0  0  0  0  0  0  0  0  0  0
    0.6379    2.6434    0.9366 H   0  0  0  0  0  0  0  0  0  0  0  0
   -1.2890    2.9340    0.0960 C   0  0  0  0  0  0  0  0  0  0  0  0
   -1.0712    3.6033   -1.0876 N   0  0  0  0  0  0  0  0  0  0  0  0
   -0.1934    3.6486   -1.6022 H   0  0  0  0  0  0  0  0  0  0  0  0
   -2.2361    4.2624   -1.4332 C   0  0  0  0  0  0  0  0  0  0  0  0
   -2.3669    4.8764   -2.3198 H   0  0  0  0  0  0  0  0  0  0  0  0
   -3.1653    4.0364   -0.5352 N   0  0  0  0  0  0  0  0  0  0  0  0
   -2.5832    3.2267    0.4348 C   0  0  0  0  0  0  0  0  0  0  0  0
   -3.0868    2.8688    1.3279 H   0  0  0  0  0  0  0  0  0  0  0  0
    1.2501    0.1181    0.6873 C   0  0  0  0  0  0  0  0  0  0  0  0
    2.2686    0.7745    0.5233 O   0  0  0  0  0  0  0  0  0  0  0  0
    1.4969   -0.9455    1.5215 N   0  0  0  0  0  0  0  0  0  0  0  0
    2.4102   -0.8412    1.9549 H   0  0  0  0  0  0  0  0  0  0  0  0
    1.2161   -2.3014    1.0641 C   0  0  0  0  0  0  0  0  0  0  0  0
    0.8123   -2.9004    1.8865 H   0  0  0  0  0  0  0  0  0  0  0  0
    0.4942   -2.3087    0.2418 H   0  0  0  0  0  0  0  0  0  0  0  0
    2.1373   -2.7739    0.7093 H   0  0  0  0  0  0  0  0  0  0  0  0
  1  2  1  0  0  0  0
  2  3  1  0  0  0  0
  2  4  1  0  0  0  0
  2  5  1  0  0  0  0
  5  6  2  0  0  0  0
  5  7  1  0  0  0  0
  7  8  1  0  0  0  0
  7  9  1  0  0  0  0
  9 10  1  0  0  0  0
  9 11  1  0  0  0  0
  9 22  1  0  0  0  0
 11 12  1  0  0  0  0
 11 13  1  0  0  0  0
 11 14  1  0  0  0  0
 14 15  1  0  0  0  0
 14 20  2  0  0  0  0
 15 16  1  0  0  0  0
 15 17  1  0  0  0  0
 17 18  1  0  0  0  0
 17 19  2  0  0  0  0
 19 20  1  0  0  0  0
 20 21  1  0  0  0  0
 22 23  2  0  0  0  0
 22 24  1  0  0  0  0
 24 25  1  0  0  0  0
 24 26  1  0  0  0  0
 26 27  1  0  0  0  0
 26 28  1  0  0  0  0
 26 29  1  0  0  0  0
M  END
$$$$

  -OEChem-01062216083D

 29 29  0     1  0  0  0  0  0999 V2000
   -3.7357   -2.3800    1.2248 H   0  0  0  0  0  0  0  0  0  0  0  0
   -3.5191   -1.5273    0.5748 C   0  0  0  0  0  0  0  0  0  0  0  0
   -4.1668   -0.6948    0.8599 H   0  0  0  0  0  0  0  0  0  0  0  0
   -3.7329   -1.8111   -0.4585 H   0  0  0  0  0  0  0  0  0  0  0  0
   -2.0629   -1.1224    0.7092 C   0  0  0  0  0  0  0  0  0  0  0  0
   -1.3720   -1.7087    1.5160 O   0  0  0  0  0  0  0  0  0  0  0  0
   -1.6289   -0.0039    0.0265 N   0  0  0  0  0  0  0  0  0  0  0  0
   -2.3729    0.4664   -0.4815 H   0  0  0  0  0  0  0  0  0  0  0  0
   -0.2674    0.5000   -0.2889 C   0  0  1  0  0  0  0  0  0  0  0  0
   -0.3002    0.8066   -1.3391 H   0  0  0  0  0  0  0  0  0  0  0  0
   -0.0790    1.7540    0.5853 C   0  0  0  0  0  0  0  0  0  0  0  0
   -0.2102    1.4845    1.6391 H   0  0  0  0  0  0  0  0  0  0  0  0
    0.9351    2.1531    0.4730 H   0  0  0  0  0  0  0  0  0  0  0  0
   -1.0612    2.8307    0.1975 C   0  0  0  0  0  0  0  0  0  0  0  0
   -1.0176    3.6400   -0.9161 N   0  0  0  0  0  0  0  0  0  0  0  0
   -0.2971    3.6379   -1.6362 H   0  0  0  0  0  0  0  0  0  0  0  0
   -2.1007    4.4979   -0.8712 C   0  0  0  0  0  0  0  0  0  0  0  0
   -2.3306    5.2539   -1.6169 H   0  0  0  0  0  0  0  0  0  0  0  0
   -2.8153    4.2653    0.2040 N   0  0  0  0  0  0  0  0  0  0  0  0
   -2.1694    3.2417    0.8893 C   0  0  0  0  0  0  0  0  0  0  0  0
   -2.5016    2.8229    1.8346 H   0  0  0  0  0  0  0  0  0  0  0  0
    1.0509   -0.3254   -0.1859 C   0  0  0  0  0  0  0  0  0  0  0  0
    2.0040    0.0808   -0.8353 O   0  0  0  0  0  0  0  0  0  0  0  0
    1.2428   -1.6293    0.1990 N   0  0  0  0  0  0  0  0  0  0  0  0
    1.9619   -2.0441   -0.3870 H   0  0  0  0  0  0  0  0  0  0  0  0
    1.4898   -1.8738    1.6162 C   0  0  0  0  0  0  0  0  0  0  0  0
    1.0275   -1.1044    2.2440 H   0  0  0  0  0  0  0  0  0  0  0  0
    1.0805   -2.8467    1.9062 H   0  0  0  0  0  0  0  0  0  0  0  0
    2.5660   -1.8738    1.8159 H   0  0  0  0  0  0  0  0  0  0  0  0
  1  2  1  0  0  0  0
  2  3  1  0  0  0  0
  2  4  1  0  0  0  0
  2  5  1  0  0  0  0
  5  6  2  0  0  0  0
  5  7  1  0  0  0  0
  7  8  1  0  0  0  0
  7  9  1  0  0  0  0
  9 10  1  0  0  0  0
  9 11  1  0  0  0  0
  9 22  1  0  0  0  0
 11 12  1  0  0  0  0
 11 13  1  0  0  0  0
 11 14  1  0  0  0  0
 14 15  1  0  0  0  0
 14 20  2  0  0  0  0
 15 16  1  0  0  0  0
 15 17  1  0  0  0  0
 17 18  1  0  0  0  0
 17 19  2  0  0  0  0
 19 20  1  0  0  0  0
 20 21  1  0  0  0  0
 22 23  2  0  0  0  0
 22 24  1  0  0  0  0
 24 25  1  0  0  0  0
 24 26  1  0  0  0  0
 26 27  1  0  0  0  0
 26 28  1  0  0  0  0
 26 29  1  0  0  0  0
M  END
$$$$

  -OEChem-01062216083D

 29 29  0     1  0  0  0  0  0999 V2000
   -3.9543   -2.2336    0.8827 H   0  0  0  0  0  0  0  0  0  0  0  0
   -3.6409   -1.3406    0.3346 C   0  0  0  0  0  0  0  0  0  0  0  0
   -4.2604   -0.4983    0.6523 H   0  0  0  0  0  0  0  0  0  0  0  0
   -3.7929   -1.5137   -0.7335 H   0  0  0  0  0  0  0  0  0  0  0  0
   -2.1789   -1.0424    0.6099 C   0  0  0  0  0  0  0  0  0  0  0  0
   -1.5819   -1.7343    1.4131 O   0  0  0  0  0  0  0  0  0  0  0  0
   -1.6030    0.0518   -0.0072 N   0  0  0  0  0  0  0  0  0  0  0  0
   -2.2536    0.5889   -0.5754 H   0  0  0  0  0  0  0  0  0  0  0  0
   -0.2082    0.5694   -0.0158 C   0  0  1  0  0  0  0  0  0  0  0  0
    0.0265    0.8135   -1.0562 H   0  0  0  0  0  0  0  0  0  0  0  0
   -0.2707    1.8812    0.7977 C   0  0  0  0  0  0  0  0  0  0  0  0
   -0.6546    1.6687    1.8014 H   0  0  0  0  0  0  0  0  0  0  0  0
    0.7252    2.3203    0.9177 H   0  0  0  0  0  0  0  0  0  0  0  0
   -1.1474    2.8938    0.1037 C   0  0  0  0  0  0  0  0  0  0  0  0
   -0.8435    3.6360   -1.0158 N   0  0  0  0  0  0  0  0  0  0  0  0
    0.0379    3.6246   -1.5266 H   0  0  0  0  0  0  0  0  0  0  0  0
   -1.9239    4.4489   -1.3037 C   0  0  0  0  0  0  0  0  0  0  0  0
   -1.9769    5.1473   -2.1342 H   0  0  0  0  0  0  0  0  0  0  0  0
   -2.8813    4.2514   -0.4287 N   0  0  0  0  0  0  0  0  0  0  0  0
   -2.4025    3.3027    0.4679 C   0  0  0  0  0  0  0  0  0  0  0  0
   -2.9510    2.9302    1.3278 H   0  0  0  0  0  0  0  0  0  0  0  0
    1.0237   -0.2651    0.4519 C   0  0  0  0  0  0  0  0  0  0  0  0
    2.1118    0.2973    0.5065 O   0  0  0  0  0  0  0  0  0  0  0  0
    1.0176   -1.6338    0.6384 N   0  0  0  0  0  0  0  0  0  0  0  0
    0.0960   -2.0428    0.8013 H   0  0  0  0  0  0  0  0  0  0  0  0
    2.1819   -2.3864    1.0896 C   0  0  0  0  0  0  0  0  0  0  0  0
    2.5098   -2.0330    2.0727 H   0  0  0  0  0  0  0  0  0  0  0  0
    1.9348   -3.4495    1.1672 H   0  0  0  0  0  0  0  0  0  0  0  0
    3.0090   -2.2766    0.3804 H   0  0  0  0  0  0  0  0  0  0  0  0
  1  2  1  0  0  0  0
  2  3  1  0  0  0  0
  2  4  1  0  0  0  0
  2  5  1  0  0  0  0
  5  6  2  0  0  0  0
  5  7  1  0  0  0  0
  7  8  1  0  0  0  0
  7  9  1  0  0  0  0
  9 10  1  0  0  0  0
  9 11  1  0  0  0  0
  9 22  1  0  0  0  0
 11 12  1  0  0  0  0
 11 13  1  0  0  0  0
 11 14  1  0  0  0  0
 14 15  1  0  0  0  0
 14 20  2  0  0  0  0
 15 16  1  0  0  0  0
 15 17  1  0  0  0  0
 17 18  1  0  0  0  0
 17 19  2  0  0  0  0
 19 20  1  0  0  0  0
 20 21  1  0  0  0  0
 22 23  2  0  0  0  0
 22 24  1  0  0  0  0
 24 25  1  0  0  0  0
 24 26  1  0  0  0  0
 26 27  1  0  0  0  0
 26 28  1  0  0  0  0
 26 29  1  0  0  0  0
M  END
$$$$

  -OEChem-01062216083D

 29 29  0     1  0  0  0  0  0999 V2000
   -3.8610   -2.2542    0.9502 H   0  0  0  0  0  0  0  0  0  0  0  0
   -3.5763   -1.3549    0.3964 C   0  0  0  0  0  0  0  0  0  0  0  0
   -4.1727   -0.5151    0.7613 H   0  0  0  0  0  0  0  0  0  0  0  0
   -3.7914   -1.5126   -0.6633 H   0  0  0  0  0  0  0  0  0  0  0  0
   -2.0996   -1.0650    0.5896 C   0  0  0  0  0  0  0  0  0  0  0  0
   -1.4440   -1.8067    1.2969 O   0  0  0  0  0  0  0  0  0  0  0  0
   -1.5595    0.0505   -0.0224 N   0  0  0  0  0  0  0  0  0  0  0  0
   -2.2392    0.6147   -0.5269 H   0  0  0  0  0  0  0  0  0  0  0  0
   -0.1758    0.5947   -0.0253 C   0  0  1  0  0  0  0  0  0  0  0  0
    0.0632    0.8443   -1.0631 H   0  0  0  0  0  0  0  0  0  0  0  0
   -0.2600    1.9063    0.7881 C   0  0  0  0  0  0  0  0  0  0  0  0
   -0.6379    1.6890    1.7931 H   0  0  0  0  0  0  0  0  0  0  0  0
    0.7279    2.3641    0.9039 H   0  0  0  0  0  0  0  0  0  0  0  0
   -1.1516    2.9047    0.0928 C   0  0  0  0  0  0  0  0  0  0  0  0
   -0.8586    3.6515   -1.0265 N   0  0  0  0  0  0  0  0  0  0  0  0
    0.0230    3.6537   -1.5368 H   0  0  0  0  0  0  0  0  0  0  0  0
   -1.9488    4.4517   -1.3121 C   0  0  0  0  0  0  0  0  0  0  0  0
   -2.0107    5.1512   -2.1410 H   0  0  0  0  0  0  0  0  0  0  0  0
   -2.9028    4.2412   -0.4365 N   0  0  0  0  0  0  0  0  0  0  0  0
   -2.4110    3.2985    0.4592 C   0  0  0  0  0  0  0  0  0  0  0  0
   -2.9534    2.9208    1.3208 H   0  0  0  0  0  0  0  0  0  0  0  0
    1.0463   -0.2534    0.4434 C   0  0  0  0  0  0  0  0  0  0  0  0
    2.0882    0.3179    0.7459 O   0  0  0  0  0  0  0  0  0  0  0  0
    1.0932   -1.6288    0.3151 N   0  0  0  0  0  0  0  0  0  0  0  0
    0.1764   -2.0768    0.3547 H   0  0  0  0  0  0  0  0  0  0  0  0
    2.2373   -2.4213    0.7501 C   0  0  0  0  0  0  0  0  0  0  0  0
    2.4109   -2.2868    1.8229 H   0  0  0  0  0  0  0  0  0  0  0  0
    2.0539   -3.4829    0.5586 H   0  0  0  0  0  0  0  0  0  0  0  0
    3.1404   -2.1252    0.2062 H   0  0  0  0  0  0  0  0  0  0  0  0
  1  2  1  0  0  0  0
  2  3  1  0  0  0  0
  2  4  1  0  0  0  0
  2  5  1  0  0  0  0
  5  6  2  0  0  0  0
  5  7  1  0  0  0  0
  7  8  1  0  0  0  0
  7  9  1  0  0  0  0
  9 10  1  0  0  0  0
  9 11  1  0  0  0  0
  9 22  1  0  0  0  0
 11 12  1  0  0  0  0
 11 13  1  0  0  0  0
 11 14  1  0  0  0  0
 14 15  1  0  0  0  0
 14 20  2  0  0  0  0
 15 16  1  0  0  0  0
 15 17  1  0  0  0  0
 17 18  1  0  0  0  0
 17 19  2  0  0  0  0
 19 20  1  0  0  0  0
 20 21  1  0  0  0  0
 22 23  2  0  0  0  0
 22 24  1  0  0  0  0
 24 25  1  0  0  0  0
 24 26  1  0  0  0  0
 26 27  1  0  0  0  0
 26 28  1  0  0  0  0
 26 29  1  0  0  0  0
M  END
$$$$

  -OEChem-01062216083D

 29 29  0     1  0  0  0  0  0999 V2000
   -3.7558   -2.2717    1.0206 H   0  0  0  0  0  0  0  0  0  0  0  0
   -3.5032   -1.3701    0.4552 C   0  0  0  0  0  0  0  0  0  0  0  0
   -4.0674   -0.5296    0.8667 H   0  0  0  0  0  0  0  0  0  0  0  0
   -3.7908   -1.5173   -0.5885 H   0  0  0  0  0  0  0  0  0  0  0  0
   -2.0148   -1.0922    0.5497 C   0  0  0  0  0  0  0  0  0  0  0  0
   -1.3048   -1.8816    1.1437 O   0  0  0  0  0  0  0  0  0  0  0  0
   -1.5130    0.0449   -0.0553 N   0  0  0  0  0  0  0  0  0  0  0  0
   -2.2199    0.6345   -0.4882 H   0  0  0  0  0  0  0  0  0  0  0  0
   -0.1439    0.6204   -0.0351 C   0  0  1  0  0  0  0  0  0  0  0  0
    0.1126    0.8787   -1.0666 H   0  0  0  0  0  0  0  0  0  0  0  0
   -0.2579    1.9269    0.7821 C   0  0  0  0  0  0  0  0  0  0  0  0
   -0.6397    1.6999    1.7836 H   0  0  0  0  0  0  0  0  0  0  0  0
    0.7227    2.3983    0.9059 H   0  0  0  0  0  0  0  0  0  0  0  0
   -1.1588    2.9137    0.0822 C   0  0  0  0  0  0  0  0  0  0  0  0
   -0.8694    3.6711   -1.0312 N   0  0  0  0  0  0  0  0  0  0  0  0
    0.0147    3.6884   -1.5367 H   0  0  0  0  0  0  0  0  0  0  0  0
   -1.9702    4.4553   -1.3211 C   0  0  0  0  0  0  0  0  0  0  0  0
   -2.0382    5.1565   -2.1481 H   0  0  0  0  0  0  0  0  0  0  0  0
   -2.9263    4.2267   -0.4524 N   0  0  0  0  0  0  0  0  0  0  0  0
   -2.4261    3.2878    0.4424 C   0  0  0  0  0  0  0  0  0  0  0  0
   -2.9685    2.8989    1.2990 H   0  0  0  0  0  0  0  0  0  0  0  0
    1.0613   -0.2382    0.4534 C   0  0  0  0  0  0  0  0  0  0  0  0
    2.0058    0.2930    1.0275 O   0  0  0  0  0  0  0  0  0  0  0  0
    1.2159   -1.5458    0.0307 N   0  0  0  0  0  0  0  0  0  0  0  0
    0.3286   -2.0238   -0.1243 H   0  0  0  0  0  0  0  0  0  0  0  0
    2.3401   -2.3713    0.4566 C   0  0  0  0  0  0  0  0  0  0  0  0
    2.3443   -2.4791    1.5463 H   0  0  0  0  0  0  0  0  0  0  0  0
    2.2663   -3.3669    0.0088 H   0  0  0  0  0  0  0  0  0  0  0  0
    3.2885   -1.9229    0.1424 H   0  0  0  0  0  0  0  0  0  0  0  0
  1  2  1  0  0  0  0
  2  3  1  0  0  0  0
  2  4  1  0  0  0  0
  2  5  1  0  0  0  0
  5  6  2  0  0  0  0
  5  7  1  0  0  0  0
  7  8  1  0  0  0  0
  7  9  1  0  0  0  0
  9 10  1  0  0  0  0
  9 11  1  0  0  0  0
  9 22  1  0  0  0  0
 11 12  1  0  0  0  0
 11 13  1  0  0  0  0
 11 14  1  0  0  0  0
 14 15  1  0  0  0  0
 14 20  2  0  0  0  0
 15 16  1  0  0  0  0
 15 17  1  0  0  0  0
 17 18  1  0  0  0  0
 17 19  2  0  0  0  0
 19 20  1  0  0  0  0
 20 21  1  0  0  0  0
 22 23  2  0  0  0  0
 22 24  1  0  0  0  0
 24 25  1  0  0  0  0
 24 26  1  0  0  0  0
 26 27  1  0  0  0  0
 26 28  1  0  0  0  0
 26 29  1  0  0  0  0
M  END
$$$$

  -OEChem-01062216083D

 29 29  0     1  0  0  0  0  0999 V2000
   -3.6344   -2.3162    1.0654 H   0  0  0  0  0  0  0  0  0  0  0  0
   -3.4213   -1.4036    0.5011 C   0  0  0  0  0  0  0  0  0  0  0  0
   -3.9763   -0.5765    0.9506 H   0  0  0  0  0  0  0  0  0  0  0  0
   -3.7557   -1.5409   -0.5300 H   0  0  0  0  0  0  0  0  0  0  0  0
   -1.9339   -1.1063    0.5290 C   0  0  0  0  0  0  0  0  0  0  0  0
   -1.1830   -1.9038    1.0586 O   0  0  0  0  0  0  0  0  0  0  0  0
   -1.4747    0.0460   -0.0824 N   0  0  0  0  0  0  0  0  0  0  0  0
   -2.2058    0.6406   -0.4652 H   0  0  0  0  0  0  0  0  0  0  0  0
   -0.1196    0.6489   -0.0512 C   0  0  1  0  0  0  0  0  0  0  0  0
    0.1466    0.9149   -1.0782 H   0  0  0  0  0  0  0  0  0  0  0  0
   -0.2478    1.9498    0.7695 C   0  0  0  0  0  0  0  0  0  0  0  0
   -0.6273    1.7153    1.7700 H   0  0  0  0  0  0  0  0  0  0  0  0
    0.7310    2.4253    0.8940 H   0  0  0  0  0  0  0  0  0  0  0  0
   -1.1597    2.9283    0.0729 C   0  0  0  0  0  0  0  0  0  0  0  0
   -0.8821    3.6936   -1.0380 N   0  0  0  0  0  0  0  0  0  0  0  0
    0.0008    3.7254   -1.5446 H   0  0  0  0  0  0  0  0  0  0  0  0
   -1.9942    4.4634   -1.3237 C   0  0  0  0  0  0  0  0  0  0  0  0
   -2.0727    5.1668   -2.1478 H   0  0  0  0  0  0  0  0  0  0  0  0
   -2.9461    4.2180   -0.4551 N   0  0  0  0  0  0  0  0  0  0  0  0
   -2.4319    3.2828    0.4354 C   0  0  0  0  0  0  0  0  0  0  0  0
   -2.9680    2.8825    1.2909 H   0  0  0  0  0  0  0  0  0  0  0  0
    1.0698   -0.2166    0.4538 C   0  0  0  0  0  0  0  0  0  0  0  0
    1.8636    0.2188    1.2812 O   0  0  0  0  0  0  0  0  0  0  0  0
    1.3829   -1.3911   -0.2068 N   0  0  0  0  0  0  0  0  0  0  0  0
    0.5865   -1.8365   -0.6555 H   0  0  0  0  0  0  0  0  0  0  0  0
    2.4641   -2.2616    0.2390 C   0  0  0  0  0  0  0  0  0  0  0  0
    2.2752   -2.6124    1.2592 H   0  0  0  0  0  0  0  0  0  0  0  0
    2.5429   -3.1319   -0.4194 H   0  0  0  0  0  0  0  0  0  0  0  0
    3.4207   -1.7291    0.2203 H   0  0  0  0  0  0  0  0  0  0  0  0
  1  2  1  0  0  0  0
  2  3  1  0  0  0  0
  2  4  1  0  0  0  0
  2  5  1  0  0  0  0
  5  6  2  0  0  0  0
  5  7  1  0  0  0  0
  7  8  1  0  0  0  0
  7  9  1  0  0  0  0
  9 10  1  0  0  0  0
  9 11  1  0  0  0  0
  9 22  1  0  0  0  0
 11 12  1  0  0  0  0
 11 13  1  0  0  0  0
 11 14  1  0  0  0  0
 14 15  1  0  0  0  0
 14 20  2  0  0  0  0
 15 16  1  0  0  0  0
 15 17  1  0  0  0  0
 17 18  1  0  0  0  0
 17 19  2  0  0  0  0
 19 20  1  0  0  0  0
 20 21  1  0  0  0  0
 22 23  2  0  0  0  0
 22 24  1  0  0  0  0
 24 25  1  0  0  0  0
 24 26  1  0  0  0  0
 26 27  1  0  0  0  0
 26 28  1  0  0  0  0
 26 29  1  0  0  0  0
M  END
$$$$

  -OEChem-01062216083D

 29 29  0     1  0  0  0  0  0999 V2000
   -3.5725   -2.3281    1.1099 H   0  0  0  0  0  0  0  0  0  0  0  0
   -3.3809   -1.4184    0.5335 C   0  0  0  0  0  0  0  0  0  0  0  0
   -3.9191   -0.5894    0.9994 H   0  0  0  0  0  0  0  0  0  0  0  0
   -3.7532   -1.5609   -0.4837 H   0  0  0  0  0  0  0  0  0  0  0  0
   -1.8933   -1.1214    0.5047 C   0  0  0  0  0  0  0  0  0  0  0  0
   -1.1206   -1.9354    0.9755 O   0  0  0  0  0  0  0  0  0  0  0  0
   -1.4579    0.0386   -0.1107 N   0  0  0  0  0  0  0  0  0  0  0  0
   -2.2030    0.6410   -0.4515 H   0  0  0  0  0  0  0  0  0  0  0  0
   -0.1120    0.6574   -0.0646 C   0  0  1  0  0  0  0  0  0  0  0  0
    0.1652    0.9301   -1.0869 H   0  0  0  0  0  0  0  0  0  0  0  0
   -0.2495    1.9536    0.7604 C   0  0  0  0  0  0  0  0  0  0  0  0
   -0.6340    1.7131    1.7580 H   0  0  0  0  0  0  0  0  0  0  0  0
    0.7300    2.4259    0.8924 H   0  0  0  0  0  0  0  0  0  0  0  0
   -1.1628    2.9330    0.0667 C   0  0  0  0  0  0  0  0  0  0  0  0
   -0.8870    3.7071   -1.0390 N   0  0  0  0  0  0  0  0  0  0  0  0
   -0.0035    3.7472   -1.5439 H   0  0  0  0  0  0  0  0  0  0  0  0
   -2.0028    4.4725   -1.3224 C   0  0  0  0  0  0  0  0  0  0  0  0
   -2.0841    5.1795   -2.1432 H   0  0  0  0  0  0  0  0  0  0  0  0
   -2.9545    4.2182   -0.4563 N   0  0  0  0  0  0  0  0  0  0  0  0
   -2.4370    3.2805    0.4296 C   0  0  0  0  0  0  0  0  0  0  0  0
   -2.9727    2.8730    1.2818 H   0  0  0  0  0  0  0  0  0  0  0  0
    1.0665   -0.2089    0.4597 C   0  0  0  0  0  0  0  0  0  0  0  0
    1.6846    0.1046    1.4717 O   0  0  0  0  0  0  0  0  0  0  0  0
    1.5862   -1.1988   -0.3557 N   0  0  0  0  0  0  0  0  0  0  0  0
    0.9429   -1.5602   -1.0537 H   0  0  0  0  0  0  0  0  0  0  0  0
    2.6622   -2.0776    0.0871 C   0  0  0  0  0  0  0  0  0  0  0  0
    2.3542   -2.6408    0.9746 H   0  0  0  0  0  0  0  0  0  0  0  0
    2.9192   -2.7882   -0.7042 H   0  0  0  0  0  0  0  0  0  0  0  0
    3.5579   -1.4972    0.3316 H   0  0  0  0  0  0  0  0  0  0  0  0
  1  2  1  0  0  0  0
  2  3  1  0  0  0  0
  2  4  1  0  0  0  0
  2  5  1  0  0  0  0
  5  6  2  0  0  0  0
  5  7  1  0  0  0  0
  7  8  1  0  0  0  0
  7  9  1  0  0  0  0
  9 10  1  0  0  0  0
  9 11  1  0  0  0  0
  9 22  1  0  0  0  0
 11 12  1  0  0  0  0
 11 13  1  0  0  0  0
 11 14  1  0  0  0  0
 14 15  1  0  0  0  0
 14 20  2  0  0  0  0
 15 16  1  0  0  0  0
 15 17  1  0  0  0  0
 17 18  1  0  0  0  0
 17 19  2  0  0  0  0
 19 20  1  0  0  0  0
 20 21  1  0  0  0  0
 22 23  2  0  0  0  0
 22 24  1  0  0  0  0
 24 25  1  0  0  0  0
 24 26  1  0  0  0  0
 26 27  1  0  0  0  0
 26 28  1  0  0  0  0
 26 29  1  0  0  0  0
M  END
$$$$

  -OEChem-01062216083D

 29 29  0     1  0  0  0  0  0999 V2000
   -3.5609   -2.3252    1.1343 H   0  0  0  0  0  0  0  0  0  0  0  0
   -3.3765   -1.4168    0.5535 C   0  0  0  0  0  0  0  0  0  0  0  0
   -3.8932   -0.5830    1.0347 H   0  0  0  0  0  0  0  0  0  0  0  0
   -3.7779   -1.5546   -0.4531 H   0  0  0  0  0  0  0  0  0  0  0  0
   -1.8874   -1.1346    0.4843 C   0  0  0  0  0  0  0  0  0  0  0  0
   -1.1090   -1.9700    0.9057 O   0  0  0  0  0  0  0  0  0  0  0  0
   -1.4585    0.0267   -0.1333 N   0  0  0  0  0  0  0  0  0  0  0  0
   -2.2084    0.6398   -0.4424 H   0  0  0  0  0  0  0  0  0  0  0  0
   -0.1154    0.6483   -0.0764 C   0  0  1  0  0  0  0  0  0  0  0  0
    0.1662    0.9268   -1.0959 H   0  0  0  0  0  0  0  0  0  0  0  0
   -0.2537    1.9397    0.7544 C   0  0  0  0  0  0  0  0  0  0  0  0
   -0.6440    1.6952    1.7489 H   0  0  0  0  0  0  0  0  0  0  0  0
    0.7280    2.4051    0.8947 H   0  0  0  0  0  0  0  0  0  0  0  0
   -1.1632    2.9241    0.0636 C   0  0  0  0  0  0  0  0  0  0  0  0
   -0.8832    3.7038   -1.0367 N   0  0  0  0  0  0  0  0  0  0  0  0
    0.0009    3.7444   -1.5400 H   0  0  0  0  0  0  0  0  0  0  0  0
   -1.9964    4.4740   -1.3174 C   0  0  0  0  0  0  0  0  0  0  0  0
   -2.0744    5.1866   -2.1338 H   0  0  0  0  0  0  0  0  0  0  0  0
   -2.9504    4.2170   -0.4547 N   0  0  0  0  0  0  0  0  0  0  0  0
   -2.4372    3.2724    0.4263 C   0  0  0  0  0  0  0  0  0  0  0  0
   -2.9752    2.8622    1.2758 H   0  0  0  0  0  0  0  0  0  0  0  0
    1.0594   -0.2132    0.4607 C   0  0  0  0  0  0  0  0  0  0  0  0
    1.5058   -0.0356    1.5892 O   0  0  0  0  0  0  0  0  0  0  0  0
    1.7943   -0.9789   -0.4276 N   0  0  0  0  0  0  0  0  0  0  0  0
    1.3197   -1.2302   -1.2892 H   0  0  0  0  0  0  0  0  0  0  0  0
    2.9029   -1.8200    0.0089 C   0  0  0  0  0  0  0  0  0  0  0  0
    2.5559   -2.5603    0.7377 H   0  0  0  0  0  0  0  0  0  0  0  0
    3.3358   -2.3490   -0.8455 H   0  0  0  0  0  0  0  0  0  0  0  0
    3.6885   -1.2124    0.4706 H   0  0  0  0  0  0  0  0  0  0  0  0
  1  2  1  0  0  0  0
  2  3  1  0  0  0  0
  2  4  1  0  0  0  0
  2  5  1  0  0  0  0
  5  6  2  0  0  0  0
  5  7  1  0  0  0  0
  7  8  1  0  0  0  0
  7  9  1  0  0  0  0
  9 10  1  0  0  0  0
  9 11  1  0  0  0  0
  9 22  1  0  0  0  0
 11 12  1  0  0  0  0
 11 13  1  0  0  0  0
 11 14  1  0  0  0  0
 14 15  1  0  0  0  0
 14 20  2  0  0  0  0
 15 16  1  0  0  0  0
 15 17  1  0  0  0  0
 17 18  1  0  0  0  0
 17 19  2  0  0  0  0
 19 20  1  0  0  0  0
 20 21  1  0  0  0  0
 22 23  2  0  0  0  0
 22 24  1  0  0  0  0
 24 25  1  0  0  0  0
 24 26  1  0  0  0  0
 26 27  1  0  0  0  0
 26 28  1  0  0  0  0
 26 29  1  0  0  0  0
M  END
$$$$

  -OEChem-01062216083D

 29 29  0     1  0  0  0  0  0999 V2000
   -3.5662   -2.3171    1.1581 H   0  0  0  0  0  0  0  0  0  0  0  0
   -3.3865   -1.4083    0.5766 C   0  0  0  0  0  0  0  0  0  0  0  0
   -3.8690   -0.5683    1.0821 H   0  0  0  0  0  0  0  0  0  0  0  0
   -3.8271   -1.5315   -0.4156 H   0  0  0  0  0  0  0  0  0  0  0  0
   -1.8958   -1.1540    0.4544 C   0  0  0  0  0  0  0  0  0  0  0  0
   -1.1200   -2.0224    0.8081 O   0  0  0  0  0  0  0  0  0  0  0  0
   -1.4666    0.0088   -0.1601 N   0  0  0  0  0  0  0  0  0  0  0  0
   -2.2179    0.6366   -0.4334 H   0  0  0  0  0  0  0  0  0  0  0  0
   -0.1234    0.6280   -0.0887 C   0  0  1  0  0  0  0  0  0  0  0  0
    0.1619    0.9122   -1.1054 H   0  0  0  0  0  0  0  0  0  0  0  0
   -0.2592    1.9138    0.7494 C   0  0  0  0  0  0  0  0  0  0  0  0
   -0.6584    1.6645    1.7392 H   0  0  0  0  0  0  0  0  0  0  0  0
    0.7251    2.3698    0.9012 H   0  0  0  0  0  0  0  0  0  0  0  0
   -1.1596    2.9088    0.0617 C   0  0  0  0  0  0  0  0  0  0  0  0
   -0.8696    3.6954   -1.0314 N   0  0  0  0  0  0  0  0  0  0  0  0
    0.0173    3.7357   -1.5298 H   0  0  0  0  0  0  0  0  0  0  0  0
   -1.9774    4.4735   -1.3122 C   0  0  0  0  0  0  0  0  0  0  0  0
   -2.0470    5.1923   -2.1236 H   0  0  0  0  0  0  0  0  0  0  0  0
   -2.9370    4.2153   -0.4563 N   0  0  0  0  0  0  0  0  0  0  0  0
   -2.4339    3.2609    0.4201 C   0  0  0  0  0  0  0  0  0  0  0  0
   -2.9789    2.8458    1.2630 H   0  0  0  0  0  0  0  0  0  0  0  0
    1.0507   -0.2274    0.4576 C   0  0  0  0  0  0  0  0  0  0  0  0
    1.3381   -0.1997    1.6496 O   0  0  0  0  0  0  0  0  0  0  0  0
    1.9848   -0.7372   -0.4282 N   0  0  0  0  0  0  0  0  0  0  0  0
    1.6771   -0.8499   -1.3890 H   0  0  0  0  0  0  0  0  0  0  0  0
    3.1388   -1.5100    0.0170 C   0  0  0  0  0  0  0  0  0  0  0  0
    2.8137   -2.3950    0.5745 H   0  0  0  0  0  0  0  0  0  0  0  0
    3.7290   -1.8387   -0.8435 H   0  0  0  0  0  0  0  0  0  0  0  0
    3.7814   -0.9030    0.6633 H   0  0  0  0  0  0  0  0  0  0  0  0
  1  2  1  0  0  0  0
  2  3  1  0  0  0  0
  2  4  1  0  0  0  0
  2  5  1  0  0  0  0
  5  6  2  0  0  0  0
  5  7  1  0  0  0  0
  7  8  1  0  0  0  0
  7  9  1  0  0  0  0
  9 10  1  0  0  0  0
  9 11  1  0  0  0  0
  9 22  1  0  0  0  0
 11 12  1  0  0  0  0
 11 13  1  0  0  0  0
 11 14  1  0  0  0  0
 14 15  1  0  0  0  0
 14 20  2  0  0  0  0
 15 16  1  0  0  0  0
 15 17  1  0  0  0  0
 17 18  1  0  0  0  0
 17 19  2  0  0  0  0
 19 20  1  0  0  0  0
 20 21  1  0  0  0  0
 22 23  2  0  0  0  0
 22 24  1  0  0  0  0
 24 25  1  0  0  0  0
 24 26  1  0  0  0  0
 26 27  1  0  0  0  0
 26 28  1  0  0  0  0
 26 29  1  0  0  0  0
M  END
$$$$

  -OEChem-01062216083D

 29 29  0     1  0  0  0  0  0999 V2000
   -3.5684   -2.3240    1.1379 H   0  0  0  0  0  0  0  0  0  0  0  0
   -3.3890   -1.3818    0.6122 C   0  0  0  0  0  0  0  0  0  0  0  0
   -3.8002   -0.5646    1.2095 H   0  0  0  0  0  0  0  0  0  0  0  0
   -3.8997   -1.4136   -0.3531 H   0  0  0  0  0  0  0  0  0  0  0  0
   -1.9003   -1.1744    0.4057 C   0  0  0  0  0  0  0  0  0  0  0  0
   -1.1363   -2.0859    0.6642 O   0  0  0  0  0  0  0  0  0  0  0  0
   -1.4682   -0.0126   -0.2079 N   0  0  0  0  0  0  0  0  0  0  0  0
   -2.2188    0.6341   -0.4346 H   0  0  0  0  0  0  0  0  0  0  0  0
   -0.1246    0.6033   -0.1205 C   0  0  1  0  0  0  0  0  0  0  0  0
    0.1681    0.8933   -1.1333 H   0  0  0  0  0  0  0  0  0  0  0  0
   -0.2633    1.8792    0.7308 C   0  0  0  0  0  0  0  0  0  0  0  0
   -0.6690    1.6189    1.7152 H   0  0  0  0  0  0  0  0  0  0  0  0
    0.7217    2.3299    0.8944 H   0  0  0  0  0  0  0  0  0  0  0  0
   -1.1568    2.8860    0.0516 C   0  0  0  0  0  0  0  0  0  0  0  0
   -0.8632    3.6882   -1.0295 N   0  0  0  0  0  0  0  0  0  0  0  0
    0.0238    3.7333   -1.5273 H   0  0  0  0  0  0  0  0  0  0  0  0
   -1.9687    4.4734   -1.3000 C   0  0  0  0  0  0  0  0  0  0  0  0
   -2.0358    5.2045   -2.1007 H   0  0  0  0  0  0  0  0  0  0  0  0
   -2.9298    4.2061   -0.4487 N   0  0  0  0  0  0  0  0  0  0  0  0
   -2.4306    3.2369    0.4130 C   0  0  0  0  0  0  0  0  0  0  0  0
   -2.9779    2.8113    1.2490 H   0  0  0  0  0  0  0  0  0  0  0  0
    1.0471   -0.2455    0.4413 C   0  0  0  0  0  0  0  0  0  0  0  0
    1.1855   -0.3743    1.6529 O   0  0  0  0  0  0  0  0  0  0  0  0
    2.1499   -0.4917   -0.3598 N   0  0  0  0  0  0  0  0  0  0  0  0
    2.0014   -0.4502   -1.3630 H   0  0  0  0  0  0  0  0  0  0  0  0
    3.3356   -1.1849    0.1319 C   0  0  0  0  0  0  0  0  0  0  0  0
    3.0686   -2.1772    0.5107 H   0  0  0  0  0  0  0  0  0  0  0  0
    4.0653   -1.3059   -0.6742 H   0  0  0  0  0  0  0  0  0  0  0  0
    3.8065   -0.6146    0.9396 H   0  0  0  0  0  0  0  0  0  0  0  0
  1  2  1  0  0  0  0
  2  3  1  0  0  0  0
  2  4  1  0  0  0  0
  2  5  1  0  0  0  0
  5  6  2  0  0  0  0
  5  7  1  0  0  0  0
  7  8  1  0  0  0  0
  7  9  1  0  0  0  0
  9 10  1  0  0  0  0
  9 11  1  0  0  0  0
  9 22  1  0  0  0  0
 11 12  1  0  0  0  0
 11 13  1  0  0  0  0
 11 14  1  0  0  0  0
 14 15  1  0  0  0  0
 14 20  2  0  0  0  0
 15 16  1  0  0  0  0
 15 17  1  0  0  0  0
 17 18  1  0  0  0  0
 17 19  2  0  0  0  0
 19 20  1  0  0  0  0
 20 21  1  0  0  0  0
 22 23  2  0  0  0  0
 22 24  1  0  0  0  0
 24 25  1  0  0  0  0
 24 26  1  0  0  0  0
 26 27  1  0  0  0  0
 26 28  1  0  0  0  0
 26 29  1  0  0  0  0
M  END
$$$$

  -OEChem-01062216083D

 29 29  0     1  0  0  0  0  0999 V2000
   -3.5641   -2.3033    1.1652 H   0  0  0  0  0  0  0  0  0  0  0  0
   -3.3851   -1.3527    0.6546 C   0  0  0  0  0  0  0  0  0  0  0  0
   -3.7248   -0.5396    1.3006 H   0  0  0  0  0  0  0  0  0  0  0  0
   -3.9592   -1.3371   -0.2749 H   0  0  0  0  0  0  0  0  0  0  0  0
   -1.9065   -1.1932    0.3549 C   0  0  0  0  0  0  0  0  0  0  0  0
   -1.1678   -2.1500    0.4976 O   0  0  0  0  0  0  0  0  0  0  0  0
   -1.4696   -0.0315   -0.2544 N   0  0  0  0  0  0  0  0  0  0  0  0
   -2.2161    0.6351   -0.4305 H   0  0  0  0  0  0  0  0  0  0  0  0
   -0.1236    0.5766   -0.1507 C   0  0  1  0  0  0  0  0  0  0  0  0
    0.1764    0.8724   -1.1598 H   0  0  0  0  0  0  0  0  0  0  0  0
   -0.2651    1.8412    0.7167 C   0  0  0  0  0  0  0  0  0  0  0  0
   -0.6789    1.5689    1.6944 H   0  0  0  0  0  0  0  0  0  0  0  0
    0.7194    2.2872    0.8949 H   0  0  0  0  0  0  0  0  0  0  0  0
   -1.1510    2.8601    0.0448 C   0  0  0  0  0  0  0  0  0  0  0  0
   -0.8476    3.6763   -1.0230 N   0  0  0  0  0  0  0  0  0  0  0  0
    0.0409    3.7224   -1.5176 H   0  0  0  0  0  0  0  0  0  0  0  0
   -1.9490    4.4683   -1.2908 C   0  0  0  0  0  0  0  0  0  0  0  0
   -2.0093    5.2093   -2.0828 H   0  0  0  0  0  0  0  0  0  0  0  0
   -2.9160    4.1933   -0.4489 N   0  0  0  0  0  0  0  0  0  0  0  0
   -2.4261    3.2107    0.4028 C   0  0  0  0  0  0  0  0  0  0  0  0
   -2.9803    2.7757    1.2294 H   0  0  0  0  0  0  0  0  0  0  0  0
    1.0471   -0.2669    0.4207 C   0  0  0  0  0  0  0  0  0  0  0  0
    1.0622   -0.5600    1.6110 O   0  0  0  0  0  0  0  0  0  0  0  0
    2.2683   -0.2481   -0.2340 N   0  0  0  0  0  0  0  0  0  0  0  0
    2.2541   -0.0311   -1.2254 H   0  0  0  0  0  0  0  0  0  0  0  0
    3.4712   -0.8596    0.3217 C   0  0  0  0  0  0  0  0  0  0  0  0
    3.3011   -1.9224    0.5253 H   0  0  0  0  0  0  0  0  0  0  0  0
    4.3026   -0.7704   -0.3839 H   0  0  0  0  0  0  0  0  0  0  0  0
    3.7575   -0.3637    1.2553 H   0  0  0  0  0  0  0  0  0  0  0  0
  1  2  1  0  0  0  0
  2  3  1  0  0  0  0
  2  4  1  0  0  0  0
  2  5  1  0  0  0  0
  5  6  2  0  0  0  0
  5  7  1  0  0  0  0
  7  8  1  0  0  0  0
  7  9  1  0  0  0  0
  9 10  1  0  0  0  0
  9 11  1  0  0  0  0
  9 22  1  0  0  0  0
 11 12  1  0  0  0  0
 11 13  1  0  0  0  0
 11 14  1  0  0  0  0
 14 15  1  0  0  0  0
 14 20  2  0  0  0  0
 15 16  1  0  0  0  0
 15 17  1  0  0  0  0
 17 18  1  0  0  0  0
 17 19  2  0  0  0  0
 19 20  1  0  0  0  0
 20 21  1  0  0  0  0
 22 23  2  0  0  0  0
 22 24  1  0  0  0  0
 24 25  1  0  0  0  0
 24 26  1  0  0  0  0
 26 27  1  0  0  0  0
 26 28  1  0  0  0  0
 26 29  1  0  0  0  0
M  END
$$$$

  -OEChem-01062216083D

 29 29  0     1  0  0  0  0  0999 V2000
   -3.5402   -2.2733    1.2164 H   0  0  0  0  0  0  0  0  0  0  0  0
   -3.3639   -1.3225    0.7055 C   0  0  0  0  0  0  0  0  0  0  0  0
   -3.6280   -0.5074    1.3832 H   0  0  0  0  0  0  0  0  0  0  0  0
   -4.0005   -1.2735   -0.1810 H   0  0  0  0  0  0  0  0  0  0  0  0
   -1.9054   -1.2109    0.3038 C   0  0  0  0  0  0  0  0  0  0  0  0
   -1.2081   -2.2089    0.3180 O   0  0  0  0  0  0  0  0  0  0  0  0
   -1.4642   -0.0503   -0.3029 N   0  0  0  0  0  0  0  0  0  0  0  0
   -2.2057    0.6317   -0.4333 H   0  0  0  0  0  0  0  0  0  0  0  0
   -0.1164    0.5516   -0.1828 C   0  0  1  0  0  0  0  0  0  0  0  0
    0.1929    0.8525   -1.1875 H   0  0  0  0  0  0  0  0  0  0  0  0
   -0.2674    1.8054    0.6985 C   0  0  0  0  0  0  0  0  0  0  0  0
   -0.6898    1.5191    1.6687 H   0  0  0  0  0  0  0  0  0  0  0  0
    0.7137    2.2518    0.8921 H   0  0  0  0  0  0  0  0  0  0  0  0
   -1.1471    2.8330    0.0325 C   0  0  0  0  0  0  0  0  0  0  0  0
   -0.8354    3.6640   -1.0215 N   0  0  0  0  0  0  0  0  0  0  0  0
    0.0550    3.7134   -1.5123 H   0  0  0  0  0  0  0  0  0  0  0  0
   -1.9337    4.4619   -1.2849 C   0  0  0  0  0  0  0  0  0  0  0  0
   -1.9878    5.2139   -2.0670 H   0  0  0  0  0  0  0  0  0  0  0  0
   -2.9059    4.1780   -0.4519 N   0  0  0  0  0  0  0  0  0  0  0  0
   -2.4233    3.1822    0.3880 C   0  0  0  0  0  0  0  0  0  0  0  0
   -2.9830    2.7384    1.2060 H   0  0  0  0  0  0  0  0  0  0  0  0
    1.0546   -0.2833    0.4006 C   0  0  0  0  0  0  0  0  0  0  0  0
    0.9702   -0.7507    1.5301 O   0  0  0  0  0  0  0  0  0  0  0  0
    2.3383   -0.0157   -0.0495 N   0  0  0  0  0  0  0  0  0  0  0  0
    2.4272    0.3863   -0.9770 H   0  0  0  0  0  0  0  0  0  0  0  0
    3.5343   -0.5639    0.5828 C   0  0  0  0  0  0  0  0  0  0  0  0
    3.4817   -1.6573    0.6199 H   0  0  0  0  0  0  0  0  0  0  0  0
    4.4260   -0.2794    0.0160 H   0  0  0  0  0  0  0  0  0  0  0  0
    3.6383   -0.1817    1.6038 H   0  0  0  0  0  0  0  0  0  0  0  0
  1  2  1  0  0  0  0
  2  3  1  0  0  0  0
  2  4  1  0  0  0  0
  2  5  1  0  0  0  0
  5  6  2  0  0  0  0
  5  7  1  0  0  0  0
  7  8  1  0  0  0  0
  7  9  1  0  0  0  0
  9 10  1  0  0  0  0
  9 11  1  0  0  0  0
  9 22  1  0  0  0  0
 11 12  1  0  0  0  0
 11 13  1  0  0  0  0
 11 14  1  0  0  0  0
 14 15  1  0  0  0  0
 14 20  2  0  0  0  0
 15 16  1  0  0  0  0
 15 17  1  0  0  0  0
 17 18  1  0  0  0  0
 17 19  2  0  0  0  0
 19 20  1  0  0  0  0
 20 21  1  0  0  0  0
 22 23  2  0  0  0  0
 22 24  1  0  0  0  0
 24 25  1  0  0  0  0
 24 26  1  0  0  0  0
 26 27  1  0  0  0  0
 26 28  1  0  0  0  0
 26 29  1  0  0  0  0
M  END
$$$$

  -OEChem-01062216083D

 29 29  0     1  0  0  0  0  0999 V2000
   -3.3590   -2.5820    1.0989 H   0  0  0  0  0  0  0  0  0  0  0  0
   -3.1260   -1.8130    0.3568 C   0  0  0  0  0  0  0  0  0  0  0  0
   -4.0305   -1.2367    0.1489 H   0  0  0  0  0  0  0  0  0  0  0  0
   -2.7910   -2.3024   -0.5605 H   0  0  0  0  0  0  0  0  0  0  0  0
   -2.0357   -0.8988    0.8823 C   0  0  0  0  0  0  0  0  0  0  0  0
   -1.7437   -0.9305    2.0662 O   0  0  0  0  0  0  0  0  0  0  0  0
   -1.6029    0.1664    0.1166 N   0  0  0  0  0  0  0  0  0  0  0  0
   -2.1096    0.2520   -0.7583 H   0  0  0  0  0  0  0  0  0  0  0  0
   -0.2113    0.6778    0.0690 C   0  0  1  0  0  0  0  0  0  0  0  0
    0.0277    0.8623   -0.9821 H   0  0  0  0  0  0  0  0  0  0  0  0
   -0.2239    2.0211    0.8213 C   0  0  0  0  0  0  0  0  0  0  0  0
   -0.5987    1.8554    1.8385 H   0  0  0  0  0  0  0  0  0  0  0  0
    0.7876    2.4289    0.9101 H   0  0  0  0  0  0  0  0  0  0  0  0
   -1.0912    3.0323    0.1132 C   0  0  0  0  0  0  0  0  0  0  0  0
   -0.8188    3.7358   -1.0410 N   0  0  0  0  0  0  0  0  0  0  0  0
    0.0332    3.6892   -1.5949 H   0  0  0  0  0  0  0  0  0  0  0  0
   -1.8953    4.5615   -1.3089 C   0  0  0  0  0  0  0  0  0  0  0  0
   -1.9684    5.2386   -2.1553 H   0  0  0  0  0  0  0  0  0  0  0  0
   -2.8192    4.4110   -0.3917 N   0  0  0  0  0  0  0  0  0  0  0  0
   -2.3291    3.4686    0.5069 C   0  0  0  0  0  0  0  0  0  0  0  0
   -2.8547    3.1245    1.3928 H   0  0  0  0  0  0  0  0  0  0  0  0
    0.9740   -0.1712    0.6176 C   0  0  0  0  0  0  0  0  0  0  0  0
    0.8587   -1.3405    0.9548 O   0  0  0  0  0  0  0  0  0  0  0  0
    2.2587    0.2173    0.2663 N   0  0  0  0  0  0  0  0  0  0  0  0
    2.3821    1.1537   -0.1040 H   0  0  0  0  0  0  0  0  0  0  0  0
    3.4460   -0.5951    0.5158 C   0  0  0  0  0  0  0  0  0  0  0  0
    3.4088   -1.5185   -0.0717 H   0  0  0  0  0  0  0  0  0  0  0  0
    4.3487   -0.0435    0.2366 H   0  0  0  0  0  0  0  0  0  0  0  0
    3.5160   -0.8559    1.5774 H   0  0  0  0  0  0  0  0  0  0  0  0
  1  2  1  0  0  0  0
  2  3  1  0  0  0  0
  2  4  1  0  0  0  0
  2  5  1  0  0  0  0
  5  6  2  0  0  0  0
  5  7  1  0  0  0  0
  7  8  1  0  0  0  0
  7  9  1  0  0  0  0
  9 10  1  0  0  0  0
  9 11  1  0  0  0  0
  9 22  1  0  0  0  0
 11 12  1  0  0  0  0
 11 13  1  0  0  0  0
 11 14  1  0  0  0  0
 14 15  1  0  0  0  0
 14 20  2  0  0  0  0
 15 16  1  0  0  0  0
 15 17  1  0  0  0  0
 17 18  1  0  0  0  0
 17 19  2  0  0  0  0
 19 20  1  0  0  0  0
 20 21  1  0  0  0  0
 22 23  2  0  0  0  0
 22 24  1  0  0  0  0
 24 25  1  0  0  0  0
 24 26  1  0  0  0  0
 26 27  1  0  0  0  0
 26 28  1  0  0  0  0
 26 29  1  0  0  0  0
M  END
$$$$

  -OEChem-01062216083D

 29 29  0     1  0  0  0  0  0999 V2000
   -3.2586   -2.6087    1.1277 H   0  0  0  0  0  0  0  0  0  0  0  0
   -3.0978   -1.8077    0.4008 C   0  0  0  0  0  0  0  0  0  0  0  0
   -4.0050   -1.2028    0.3341 H   0  0  0  0  0  0  0  0  0  0  0  0
   -2.8904   -2.2559   -0.5738 H   0  0  0  0  0  0  0  0  0  0  0  0
   -1.9274   -0.9440    0.8298 C   0  0  0  0  0  0  0  0  0  0  0  0
   -1.4126   -1.1163    1.9241 O   0  0  0  0  0  0  0  0  0  0  0  0
   -1.5699    0.1570    0.0730 N   0  0  0  0  0  0  0  0  0  0  0  0
   -2.1140    0.2624   -0.7769 H   0  0  0  0  0  0  0  0  0  0  0  0
   -0.1970    0.7111    0.0268 C   0  0  1  0  0  0  0  0  0  0  0  0
   -0.0476    1.1559   -0.9609 H   0  0  0  0  0  0  0  0  0  0  0  0
   -0.1233    1.8298    1.0854 C   0  0  0  0  0  0  0  0  0  0  0  0
   -0.3850    1.4172    2.0665 H   0  0  0  0  0  0  0  0  0  0  0  0
    0.8909    2.2310    1.1618 H   0  0  0  0  0  0  0  0  0  0  0  0
   -1.0582    2.9612    0.7383 C   0  0  0  0  0  0  0  0  0  0  0  0
   -0.9036    3.9277   -0.2324 N   0  0  0  0  0  0  0  0  0  0  0  0
   -0.1175    4.0277   -0.8703 H   0  0  0  0  0  0  0  0  0  0  0  0
   -2.0000    4.7690   -0.1844 C   0  0  0  0  0  0  0  0  0  0  0  0
   -2.1586    5.6265   -0.8322 H   0  0  0  0  0  0  0  0  0  0  0  0
   -2.8250    4.3834    0.7583 N   0  0  0  0  0  0  0  0  0  0  0  0
   -2.2479    3.2626    1.3478 C   0  0  0  0  0  0  0  0  0  0  0  0
   -2.6811    2.7037    2.1722 H   0  0  0  0  0  0  0  0  0  0  0  0
    0.9831   -0.2840    0.2226 C   0  0  0  0  0  0  0  0  0  0  0  0
    0.8424   -1.4775   -0.0171 O   0  0  0  0  0  0  0  0  0  0  0  0
    2.2851    0.1926    0.1917 N   0  0  0  0  0  0  0  0  0  0  0  0
    2.4231    1.1885    0.3273 H   0  0  0  0  0  0  0  0  0  0  0  0
    3.4586   -0.6751    0.1661 C   0  0  0  0  0  0  0  0  0  0  0  0
    3.4819   -1.2625   -0.7580 H   0  0  0  0  0  0  0  0  0  0  0  0
    4.3731   -0.0766    0.2176 H   0  0  0  0  0  0  0  0  0  0  0  0
    3.4463   -1.3614    1.0197 H   0  0  0  0  0  0  0  0  0  0  0  0
  1  2  1  0  0  0  0
  2  3  1  0  0  0  0
  2  4  1  0  0  0  0
  2  5  1  0  0  0  0
  5  6  2  0  0  0  0
  5  7  1  0  0  0  0
  7  8  1  0  0  0  0
  7  9  1  0  0  0  0
  9 10  1  0  0  0  0
  9 11  1  0  0  0  0
  9 22  1  0  0  0  0
 11 12  1  0  0  0  0
 11 13  1  0  0  0  0
 11 14  1  0  0  0  0
 14 15  1  0  0  0  0
 14 20  2  0  0  0  0
 15 16  1  0  0  0  0
 15 17  1  0  0  0  0
 17 18  1  0  0  0  0
 17 19  2  0  0  0  0
 19 20  1  0  0  0  0
 20 21  1  0  0  0  0
 22 23  2  0  0  0  0
 22 24  1  0  0  0  0
 24 25  1  0  0  0  0
 24 26  1  0  0  0  0
 26 27  1  0  0  0  0
 26 28  1  0  0  0  0
 26 29  1  0  0  0  0
M  END
$$$$

  -OEChem-01062216083D

 29 29  0     1  0  0  0  0  0999 V2000
   -3.1955   -2.6241    1.1168 H   0  0  0  0  0  0  0  0  0  0  0  0
   -3.0740   -1.7961    0.4127 C   0  0  0  0  0  0  0  0  0  0  0  0
   -3.9880   -1.1977    0.4091 H   0  0  0  0  0  0  0  0  0  0  0  0
   -2.9085   -2.2072   -0.5859 H   0  0  0  0  0  0  0  0  0  0  0  0
   -1.8910   -0.9387    0.8188 C   0  0  0  0  0  0  0  0  0  0  0  0
   -1.3276   -1.1439    1.8833 O   0  0  0  0  0  0  0  0  0  0  0  0
   -1.5553    0.1736    0.0683 N   0  0  0  0  0  0  0  0  0  0  0  0
   -2.1158    0.2929   -0.7694 H   0  0  0  0  0  0  0  0  0  0  0  0
   -0.1893    0.7432    0.0188 C   0  0  1  0  0  0  0  0  0  0  0  0
   -0.0398    1.1907   -0.9678 H   0  0  0  0  0  0  0  0  0  0  0  0
   -0.1278    1.8617    1.0789 C   0  0  0  0  0  0  0  0  0  0  0  0
   -0.3800    1.4453    2.0610 H   0  0  0  0  0  0  0  0  0  0  0  0
    0.8792    2.2812    1.1484 H   0  0  0  0  0  0  0  0  0  0  0  0
   -1.0782    2.9796    0.7329 C   0  0  0  0  0  0  0  0  0  0  0  0
   -0.9369    3.9474   -0.2384 N   0  0  0  0  0  0  0  0  0  0  0  0
   -0.1524    4.0565   -0.8772 H   0  0  0  0  0  0  0  0  0  0  0  0
   -2.0455    4.7725   -0.1920 C   0  0  0  0  0  0  0  0  0  0  0  0
   -2.2165    5.6272   -0.8404 H   0  0  0  0  0  0  0  0  0  0  0  0
   -2.8656    4.3747    0.7501 N   0  0  0  0  0  0  0  0  0  0  0  0
   -2.2731    3.2626    1.3403 C   0  0  0  0  0  0  0  0  0  0  0  0
   -2.6994    2.6959    2.1629 H   0  0  0  0  0  0  0  0  0  0  0  0
    0.9770   -0.2700    0.2031 C   0  0  0  0  0  0  0  0  0  0  0  0
    0.8675   -1.4023   -0.2547 O   0  0  0  0  0  0  0  0  0  0  0  0
    2.2622    0.1666    0.4867 N   0  0  0  0  0  0  0  0  0  0  0  0
    2.3644    1.1031    0.8631 H   0  0  0  0  0  0  0  0  0  0  0  0
    3.4153   -0.7265    0.5291 C   0  0  0  0  0  0  0  0  0  0  0  0
    3.5931   -1.1704   -0.4562 H   0  0  0  0  0  0  0  0  0  0  0  0
    4.3121   -0.1737    0.8247 H   0  0  0  0  0  0  0  0  0  0  0  0
    3.2498   -1.5311    1.2536 H   0  0  0  0  0  0  0  0  0  0  0  0
  1  2  1  0  0  0  0
  2  3  1  0  0  0  0
  2  4  1  0  0  0  0
  2  5  1  0  0  0  0
  5  6  2  0  0  0  0
  5  7  1  0  0  0  0
  7  8  1  0  0  0  0
  7  9  1  0  0  0  0
  9 10  1  0  0  0  0
  9 11  1  0  0  0  0
  9 22  1  0  0  0  0
 11 12  1  0  0  0  0
 11 13  1  0  0  0  0
 11 14  1  0  0  0  0
 14 15  1  0  0  0  0
 14 20  2  0  0  0  0
 15 16  1  0  0  0  0
 15 17  1  0  0  0  0
 17 18  1  0  0  0  0
 17 19  2  0  0  0  0
 19 20  1  0  0  0  0
 20 21  1  0  0  0  0
 22 23  2  0  0  0  0
 22 24  1  0  0  0  0
 24 25  1  0  0  0  0
 24 26  1  0  0  0  0
 26 27  1  0  0  0  0
 26 28  1  0  0  0  0
 26 29  1  0  0  0  0
M  END
$$$$

  -OEChem-01062216083D

 29 29  0     1  0  0  0  0  0999 V2000
   -3.1469   -2.6515    1.0889 H   0  0  0  0  0  0  0  0  0  0  0  0
   -3.0581   -1.7941    0.4160 C   0  0  0  0  0  0  0  0  0  0  0  0
   -3.9717   -1.1983    0.4792 H   0  0  0  0  0  0  0  0  0  0  0  0
   -2.9384   -2.1622   -0.6058 H   0  0  0  0  0  0  0  0  0  0  0  0
   -1.8591   -0.9504    0.8042 C   0  0  0  0  0  0  0  0  0  0  0  0
   -1.2571   -1.1890    1.8404 O   0  0  0  0  0  0  0  0  0  0  0  0
   -1.5415    0.1747    0.0654 N   0  0  0  0  0  0  0  0  0  0  0  0
   -2.1174    0.3109   -0.7593 H   0  0  0  0  0  0  0  0  0  0  0  0
   -0.1852    0.7650    0.0173 C   0  0  1  0  0  0  0  0  0  0  0  0
   -0.0393    1.2134   -0.9694 H   0  0  0  0  0  0  0  0  0  0  0  0
   -0.1308    1.8883    1.0721 C   0  0  0  0  0  0  0  0  0  0  0  0
   -0.3734    1.4744    2.0576 H   0  0  0  0  0  0  0  0  0  0  0  0
    0.8721    2.3201    1.1300 H   0  0  0  0  0  0  0  0  0  0  0  0
   -1.0936    2.9950    0.7246 C   0  0  0  0  0  0  0  0  0  0  0  0
   -0.9632    3.9586   -0.2522 N   0  0  0  0  0  0  0  0  0  0  0  0
   -0.1812    4.0702   -0.8937 H   0  0  0  0  0  0  0  0  0  0  0  0
   -2.0757    4.7783   -0.2039 C   0  0  0  0  0  0  0  0  0  0  0  0
   -2.2534    5.6290   -0.8559 H   0  0  0  0  0  0  0  0  0  0  0  0
   -2.8883    4.3810    0.7450 N   0  0  0  0  0  0  0  0  0  0  0  0
   -2.2860    3.2757    1.3380 C   0  0  0  0  0  0  0  0  0  0  0  0
   -2.7033    2.7135    2.1682 H   0  0  0  0  0  0  0  0  0  0  0  0
    0.9776   -0.2528    0.1900 C   0  0  0  0  0  0  0  0  0  0  0  0
    0.9360   -1.3001   -0.4466 O   0  0  0  0  0  0  0  0  0  0  0  0
    2.1873    0.1011    0.7669 N   0  0  0  0  0  0  0  0  0  0  0  0
    2.1940    0.9326    1.3481 H   0  0  0  0  0  0  0  0  0  0  0  0
    3.3085   -0.8251    0.8779 C   0  0  0  0  0  0  0  0  0  0  0  0
    3.6508   -1.1340   -0.1154 H   0  0  0  0  0  0  0  0  0  0  0  0
    4.1446   -0.3465    1.3967 H   0  0  0  0  0  0  0  0  0  0  0  0
    3.0139   -1.7162    1.4424 H   0  0  0  0  0  0  0  0  0  0  0  0
  1  2  1  0  0  0  0
  2  3  1  0  0  0  0
  2  4  1  0  0  0  0
  2  5  1  0  0  0  0
  5  6  2  0  0  0  0
  5  7  1  0  0  0  0
  7  8  1  0  0  0  0
  7  9  1  0  0  0  0
  9 10  1  0  0  0  0
  9 11  1  0  0  0  0
  9 22  1  0  0  0  0
 11 12  1  0  0  0  0
 11 13  1  0  0  0  0
 11 14  1  0  0  0  0
 14 15  1  0  0  0  0
 14 20  2  0  0  0  0
 15 16  1  0  0  0  0
 15 17  1  0  0  0  0
 17 18  1  0  0  0  0
 17 19  2  0  0  0  0
 19 20  1  0  0  0  0
 20 21  1  0  0  0  0
 22 23  2  0  0  0  0
 22 24  1  0  0  0  0
 24 25  1  0  0  0  0
 24 26  1  0  0  0  0
 26 27  1  0  0  0  0
 26 28  1  0  0  0  0
 26 29  1  0  0  0  0
M  END
$$$$

  -OEChem-01062216083D

 29 29  0     1  0  0  0  0  0999 V2000
   -3.1524   -2.6404    1.0876 H   0  0  0  0  0  0  0  0  0  0  0  0
   -3.0604   -1.7794    0.4195 C   0  0  0  0  0  0  0  0  0  0  0  0
   -3.9612   -1.1674    0.5057 H   0  0  0  0  0  0  0  0  0  0  0  0
   -2.9683   -2.1417   -0.6073 H   0  0  0  0  0  0  0  0  0  0  0  0
   -1.8389   -0.9603    0.7900 C   0  0  0  0  0  0  0  0  0  0  0  0
   -1.2079   -1.2330    1.7999 O   0  0  0  0  0  0  0  0  0  0  0  0
   -1.5259    0.1726    0.0616 N   0  0  0  0  0  0  0  0  0  0  0  0
   -2.1180    0.3342   -0.7473 H   0  0  0  0  0  0  0  0  0  0  0  0
   -0.1766    0.7769    0.0173 C   0  0  1  0  0  0  0  0  0  0  0  0
   -0.0334    1.2271   -0.9693 H   0  0  0  0  0  0  0  0  0  0  0  0
   -0.1292    1.9017    1.0693 C   0  0  0  0  0  0  0  0  0  0  0  0
   -0.3696    1.4887    2.0556 H   0  0  0  0  0  0  0  0  0  0  0  0
    0.8734    2.3366    1.1222 H   0  0  0  0  0  0  0  0  0  0  0  0
   -1.0995    3.0013    0.7209 C   0  0  0  0  0  0  0  0  0  0  0  0
   -0.9750    3.9636   -0.2576 N   0  0  0  0  0  0  0  0  0  0  0  0
   -0.1931    4.0786   -0.8989 H   0  0  0  0  0  0  0  0  0  0  0  0
   -2.0944    4.7739   -0.2136 C   0  0  0  0  0  0  0  0  0  0  0  0
   -2.2785    5.6210   -0.8682 H   0  0  0  0  0  0  0  0  0  0  0  0
   -2.9057    4.3723    0.7347 N   0  0  0  0  0  0  0  0  0  0  0  0
   -2.2954    3.2734    1.3310 C   0  0  0  0  0  0  0  0  0  0  0  0
   -2.7108    2.7084    2.1600 H   0  0  0  0  0  0  0  0  0  0  0  0
    0.9881   -0.2373    0.1845 C   0  0  0  0  0  0  0  0  0  0  0  0
    1.0475   -1.1798   -0.5972 O   0  0  0  0  0  0  0  0  0  0  0  0
    2.0709   -0.0023    1.0168 N   0  0  0  0  0  0  0  0  0  0  0  0
    1.9355    0.6882    1.7482 H   0  0  0  0  0  0  0  0  0  0  0  0
    3.1536   -0.9658    1.1793 C   0  0  0  0  0  0  0  0  0  0  0  0
    3.6551   -1.1468    0.2228 H   0  0  0  0  0  0  0  0  0  0  0  0
    3.8946   -0.5858    1.8890 H   0  0  0  0  0  0  0  0  0  0  0  0
    2.7647   -1.9168    1.5583 H   0  0  0  0  0  0  0  0  0  0  0  0
  1  2  1  0  0  0  0
  2  3  1  0  0  0  0
  2  4  1  0  0  0  0
  2  5  1  0  0  0  0
  5  6  2  0  0  0  0
  5  7  1  0  0  0  0
  7  8  1  0  0  0  0
  7  9  1  0  0  0  0
  9 10  1  0  0  0  0
  9 11  1  0  0  0  0
  9 22  1  0  0  0  0
 11 12  1  0  0  0  0
 11 13  1  0  0  0  0
 11 14  1  0  0  0  0
 14 15  1  0  0  0  0
 14 20  2  0  0  0  0
 15 16  1  0  0  0  0
 15 17  1  0  0  0  0
 17 18  1  0  0  0  0
 17 19  2  0  0  0  0
 19 20  1  0  0  0  0
 20 21  1  0  0  0  0
 22 23  2  0  0  0  0
 22 24  1  0  0  0  0
 24 25  1  0  0  0  0
 24 26  1  0  0  0  0
 26 27  1  0  0  0  0
 26 28  1  0  0  0  0
 26 29  1  0  0  0  0
M  END
$$$$

  -OEChem-01062216083D

 29 29  0     1  0  0  0  0  0999 V2000
   -3.1779   -2.6230    1.0913 H   0  0  0  0  0  0  0  0  0  0  0  0
   -3.0751   -1.7648    0.4211 C   0  0  0  0  0  0  0  0  0  0  0  0
   -3.9624   -1.1343    0.5162 H   0  0  0  0  0  0  0  0  0  0  0  0
   -3.0017   -2.1294   -0.6064 H   0  0  0  0  0  0  0  0  0  0  0  0
   -1.8330   -0.9706    0.7771 C   0  0  0  0  0  0  0  0  0  0  0  0
   -1.1825   -1.2719    1.7663 O   0  0  0  0  0  0  0  0  0  0  0  0
   -1.5160    0.1650    0.0554 N   0  0  0  0  0  0  0  0  0  0  0  0
   -2.1209    0.3524   -0.7384 H   0  0  0  0  0  0  0  0  0  0  0  0
   -0.1712    0.7778    0.0180 C   0  0  1  0  0  0  0  0  0  0  0  0
   -0.0279    1.2295   -0.9682 H   0  0  0  0  0  0  0  0  0  0  0  0
   -0.1268    1.9024    1.0688 C   0  0  0  0  0  0  0  0  0  0  0  0
   -0.3701    1.4900    2.0544 H   0  0  0  0  0  0  0  0  0  0  0  0
    0.8780    2.3336    1.1233 H   0  0  0  0  0  0  0  0  0  0  0  0
   -1.0994    2.9990    0.7185 C   0  0  0  0  0  0  0  0  0  0  0  0
   -0.9750    3.9599   -0.2613 N   0  0  0  0  0  0  0  0  0  0  0  0
   -0.1910    4.0762   -0.9003 H   0  0  0  0  0  0  0  0  0  0  0  0
   -2.0961    4.7683   -0.2205 C   0  0  0  0  0  0  0  0  0  0  0  0
   -2.2807    5.6145   -0.8764 H   0  0  0  0  0  0  0  0  0  0  0  0
   -2.9086    4.3657    0.7266 N   0  0  0  0  0  0  0  0  0  0  0  0
   -2.2970    3.2695    1.3263 C   0  0  0  0  0  0  0  0  0  0  0  0
   -2.7126    2.7049    2.1558 H   0  0  0  0  0  0  0  0  0  0  0  0
    0.9986   -0.2275    0.1882 C   0  0  0  0  0  0  0  0  0  0  0  0
    1.1927   -1.0382   -0.7099 O   0  0  0  0  0  0  0  0  0  0  0  0
    1.9120   -0.1449    1.2266 N   0  0  0  0  0  0  0  0  0  0  0  0
    1.6056    0.3776    2.0417 H   0  0  0  0  0  0  0  0  0  0  0  0
    2.9602   -1.1406    1.4162 C   0  0  0  0  0  0  0  0  0  0  0  0
    3.6138   -1.1827    0.5385 H   0  0  0  0  0  0  0  0  0  0  0  0
    3.5710   -0.8856    2.2874 H   0  0  0  0  0  0  0  0  0  0  0  0
    2.5212   -2.1311    1.5768 H   0  0  0  0  0  0  0  0  0  0  0  0
  1  2  1  0  0  0  0
  2  3  1  0  0  0  0
  2  4  1  0  0  0  0
  2  5  1  0  0  0  0
  5  6  2  0  0  0  0
  5  7  1  0  0  0  0
  7  8  1  0  0  0  0
  7  9  1  0  0  0  0
  9 10  1  0  0  0  0
  9 11  1  0  0  0  0
  9 22  1  0  0  0  0
 11 12  1  0  0  0  0
 11 13  1  0  0  0  0
 11 14  1  0  0  0  0
 14 15  1  0  0  0  0
 14 20  2  0  0  0  0
 15 16  1  0  0  0  0
 15 17  1  0  0  0  0
 17 18  1  0  0  0  0
 17 19  2  0  0  0  0
 19 20  1  0  0  0  0
 20 21  1  0  0  0  0
 22 23  2  0  0  0  0
 22 24  1  0  0  0  0
 24 25  1  0  0  0  0
 24 26  1  0  0  0  0
 26 27  1  0  0  0  0
 26 28  1  0  0  0  0
 26 29  1  0  0  0  0
M  END
$$$$

  -OEChem-01062216083D

 29 29  0     1  0  0  0  0  0999 V2000
   -3.2398   -2.6036    1.0782 H   0  0  0  0  0  0  0  0  0  0  0  0
   -3.1279   -1.7339    0.4244 C   0  0  0  0  0  0  0  0  0  0  0  0
   -3.9912   -1.0778    0.5592 H   0  0  0  0  0  0  0  0  0  0  0  0
   -3.0960   -2.0767   -0.6127 H   0  0  0  0  0  0  0  0  0  0  0  0
   -1.8516   -0.9876    0.7624 C   0  0  0  0  0  0  0  0  0  0  0  0
   -1.1905   -1.3253    1.7322 O   0  0  0  0  0  0  0  0  0  0  0  0
   -1.5135    0.1468    0.0494 N   0  0  0  0  0  0  0  0  0  0  0  0
   -2.1327    0.3758   -0.7226 H   0  0  0  0  0  0  0  0  0  0  0  0
   -0.1688    0.7597    0.0238 C   0  0  1  0  0  0  0  0  0  0  0  0
   -0.0229    1.2125   -0.9619 H   0  0  0  0  0  0  0  0  0  0  0  0
   -0.1271    1.8840    1.0743 C   0  0  0  0  0  0  0  0  0  0  0  0
   -0.3795    1.4753    2.0589 H   0  0  0  0  0  0  0  0  0  0  0  0
    0.8815    2.3061    1.1359 H   0  0  0  0  0  0  0  0  0  0  0  0
   -1.0947    2.9829    0.7174 C   0  0  0  0  0  0  0  0  0  0  0  0
   -0.9602    3.9421   -0.2626 N   0  0  0  0  0  0  0  0  0  0  0  0
   -0.1697    4.0566   -0.8939 H   0  0  0  0  0  0  0  0  0  0  0  0
   -2.0792    4.7536   -0.2313 C   0  0  0  0  0  0  0  0  0  0  0  0
   -2.2557    5.6003   -0.8887 H   0  0  0  0  0  0  0  0  0  0  0  0
   -2.9009    4.3533    0.7091 N   0  0  0  0  0  0  0  0  0  0  0  0
   -2.2959    3.2575    1.3158 C   0  0  0  0  0  0  0  0  0  0  0  0
   -2.7193    2.6955    2.1432 H   0  0  0  0  0  0  0  0  0  0  0  0
    1.0094   -0.2320    0.2030 C   0  0  0  0  0  0  0  0  0  0  0  0
    1.3873   -0.8597   -0.7788 O   0  0  0  0  0  0  0  0  0  0  0  0
    1.7215   -0.3311    1.3865 N   0  0  0  0  0  0  0  0  0  0  0  0
    1.2114   -0.0339    2.2142 H   0  0  0  0  0  0  0  0  0  0  0  0
    2.7734   -1.3234    1.5713 C   0  0  0  0  0  0  0  0  0  0  0  0
    3.5662   -1.1873    0.8283 H   0  0  0  0  0  0  0  0  0  0  0  0
    3.2159   -1.2239    2.5670 H   0  0  0  0  0  0  0  0  0  0  0  0
    2.3659   -2.3349    1.4712 H   0  0  0  0  0  0  0  0  0  0  0  0
  1  2  1  0  0  0  0
  2  3  1  0  0  0  0
  2  4  1  0  0  0  0
  2  5  1  0  0  0  0
  5  6  2  0  0  0  0
  5  7  1  0  0  0  0
  7  8  1  0  0  0  0
  7  9  1  0  0  0  0
  9 10  1  0  0  0  0
  9 11  1  0  0  0  0
  9 22  1  0  0  0  0
 11 12  1  0  0  0  0
 11 13  1  0  0  0  0
 11 14  1  0  0  0  0
 14 15  1  0  0  0  0
 14 20  2  0  0  0  0
 15 16  1  0  0  0  0
 15 17  1  0  0  0  0
 17 18  1  0  0  0  0
 17 19  2  0  0  0  0
 19 20  1  0  0  0  0
 20 21  1  0  0  0  0
 22 23  2  0  0  0  0
 22 24  1  0  0  0  0
 24 25  1  0  0  0  0
 24 26  1  0  0  0  0
 26 27  1  0  0  0  0
 26 28  1  0  0  0  0
 26 29  1  0  0  0  0
M  END
$$$$

  -OEChem-01062216083D

 29 29  0     1  0  0  0  0  0999 V2000
   -3.3471   -2.5712    1.0573 H   0  0  0  0  0  0  0  0  0  0  0  0
   -3.2125   -1.6930    0.4195 C   0  0  0  0  0  0  0  0  0  0  0  0
   -4.0464   -1.0063    0.5842 H   0  0  0  0  0  0  0  0  0  0  0  0
   -3.2139   -2.0147   -0.6247 H   0  0  0  0  0  0  0  0  0  0  0  0
   -1.9016   -1.0048    0.7484 C   0  0  0  0  0  0  0  0  0  0  0  0
   -1.2457   -1.3808    1.7071 O   0  0  0  0  0  0  0  0  0  0  0  0
   -1.5267    0.1217    0.0417 N   0  0  0  0  0  0  0  0  0  0  0  0
   -2.1566    0.3970   -0.7063 H   0  0  0  0  0  0  0  0  0  0  0  0
   -0.1765    0.7249    0.0247 C   0  0  1  0  0  0  0  0  0  0  0  0
   -0.0278    1.1794   -0.9600 H   0  0  0  0  0  0  0  0  0  0  0  0
   -0.1296    1.8455    1.0777 C   0  0  0  0  0  0  0  0  0  0  0  0
   -0.3882    1.4378    2.0610 H   0  0  0  0  0  0  0  0  0  0  0  0
    0.8834    2.2563    1.1445 H   0  0  0  0  0  0  0  0  0  0  0  0
   -1.0865    2.9529    0.7186 C   0  0  0  0  0  0  0  0  0  0  0  0
   -0.9370    3.9114   -0.2597 N   0  0  0  0  0  0  0  0  0  0  0  0
   -0.1407    4.0190   -0.8851 H   0  0  0  0  0  0  0  0  0  0  0  0
   -2.0468    4.7353   -0.2325 C   0  0  0  0  0  0  0  0  0  0  0  0
   -2.2111    5.5844   -0.8897 H   0  0  0  0  0  0  0  0  0  0  0  0
   -2.8772    4.3431    0.7038 N   0  0  0  0  0  0  0  0  0  0  0  0
   -2.2863    3.2411    1.3132 C   0  0  0  0  0  0  0  0  0  0  0  0
   -2.7185    2.6847    2.1396 H   0  0  0  0  0  0  0  0  0  0  0  0
    1.0120   -0.2511    0.2159 C   0  0  0  0  0  0  0  0  0  0  0  0
    1.5996   -0.6501   -0.7818 O   0  0  0  0  0  0  0  0  0  0  0  0
    1.5163   -0.5562    1.4678 N   0  0  0  0  0  0  0  0  0  0  0  0
    0.8190   -0.5059    2.2101 H   0  0  0  0  0  0  0  0  0  0  0  0
    2.6076   -1.5054    1.6478 C   0  0  0  0  0  0  0  0  0  0  0  0
    3.4992   -1.1736    1.1057 H   0  0  0  0  0  0  0  0  0  0  0  0
    2.8627   -1.5902    2.7084 H   0  0  0  0  0  0  0  0  0  0  0  0
    2.3185   -2.4950    1.2788 H   0  0  0  0  0  0  0  0  0  0  0  0
  1  2  1  0  0  0  0
  2  3  1  0  0  0  0
  2  4  1  0  0  0  0
  2  5  1  0  0  0  0
  5  6  2  0  0  0  0
  5  7  1  0  0  0  0
  7  8  1  0  0  0  0
  7  9  1  0  0  0  0
  9 10  1  0  0  0  0
  9 11  1  0  0  0  0
  9 22  1  0  0  0  0
 11 12  1  0  0  0  0
 11 13  1  0  0  0  0
 11 14  1  0  0  0  0
 14 15  1  0  0  0  0
 14 20  2  0  0  0  0
 15 16  1  0  0  0  0
 15 17  1  0  0  0  0
 17 18  1  0  0  0  0
 17 19  2  0  0  0  0
 19 20  1  0  0  0  0
 20 21  1  0  0  0  0
 22 23  2  0  0  0  0
 22 24  1  0  0  0  0
 24 25  1  0  0  0  0
 24 26  1  0  0  0  0
 26 27  1  0  0  0  0
 26 28  1  0  0  0  0
 26 29  1  0  0  0  0
M  END
$$$$

  -OEChem-01062216083D

 29 29  0     1  0  0  0  0  0999 V2000
   -3.4957   -2.5259    0.9932 H   0  0  0  0  0  0  0  0  0  0  0  0
   -3.3309   -1.6190    0.4048 C   0  0  0  0  0  0  0  0  0  0  0  0
   -4.1174   -0.8980    0.6404 H   0  0  0  0  0  0  0  0  0  0  0  0
   -3.3856   -1.8752   -0.6559 H   0  0  0  0  0  0  0  0  0  0  0  0
   -1.9723   -1.0263    0.7264 C   0  0  0  0  0  0  0  0  0  0  0  0
   -1.3294   -1.4732    1.6617 O   0  0  0  0  0  0  0  0  0  0  0  0
   -1.5420    0.0894    0.0348 N   0  0  0  0  0  0  0  0  0  0  0  0
   -2.1875    0.4364   -0.6694 H   0  0  0  0  0  0  0  0  0  0  0  0
   -0.1841    0.6804    0.0252 C   0  0  1  0  0  0  0  0  0  0  0  0
   -0.0378    1.1386   -0.9583 H   0  0  0  0  0  0  0  0  0  0  0  0
   -0.1350    1.7951    1.0829 C   0  0  0  0  0  0  0  0  0  0  0  0
   -0.4002    1.3839    2.0632 H   0  0  0  0  0  0  0  0  0  0  0  0
    0.8803    2.1993    1.1574 H   0  0  0  0  0  0  0  0  0  0  0  0
   -1.0824    2.9094    0.7208 C   0  0  0  0  0  0  0  0  0  0  0  0
   -0.9177    3.8685   -0.2541 N   0  0  0  0  0  0  0  0  0  0  0  0
   -0.1157    3.9701   -0.8735 H   0  0  0  0  0  0  0  0  0  0  0  0
   -2.0221    4.6998   -0.2347 C   0  0  0  0  0  0  0  0  0  0  0  0
   -2.1752    5.5502   -0.8930 H   0  0  0  0  0  0  0  0  0  0  0  0
   -2.8630    4.3112    0.6940 N   0  0  0  0  0  0  0  0  0  0  0  0
   -2.2840    3.2052    1.3075 C   0  0  0  0  0  0  0  0  0  0  0  0
   -2.7261    2.6502    2.1296 H   0  0  0  0  0  0  0  0  0  0  0  0
    1.0275   -0.2655    0.2246 C   0  0  0  0  0  0  0  0  0  0  0  0
    1.7967   -0.4244   -0.7151 O   0  0  0  0  0  0  0  0  0  0  0  0
    1.3555   -0.7958    1.4586 N   0  0  0  0  0  0  0  0  0  0  0  0
    0.5510   -0.9118    2.0791 H   0  0  0  0  0  0  0  0  0  0  0  0
    2.4786   -1.7062    1.6429 C   0  0  0  0  0  0  0  0  0  0  0  0
    3.4143   -1.2312    1.3294 H   0  0  0  0  0  0  0  0  0  0  0  0
    2.5700   -1.9813    2.6981 H   0  0  0  0  0  0  0  0  0  0  0  0
    2.3319   -2.6190    1.0562 H   0  0  0  0  0  0  0  0  0  0  0  0
  1  2  1  0  0  0  0
  2  3  1  0  0  0  0
  2  4  1  0  0  0  0
  2  5  1  0  0  0  0
  5  6  2  0  0  0  0
  5  7  1  0  0  0  0
  7  8  1  0  0  0  0
  7  9  1  0  0  0  0
  9 10  1  0  0  0  0
  9 11  1  0  0  0  0
  9 22  1  0  0  0  0
 11 12  1  0  0  0  0
 11 13  1  0  0  0  0
 11 14  1  0  0  0  0
 14 15  1  0  0  0  0
 14 20  2  0  0  0  0
 15 16  1  0  0  0  0
 15 17  1  0  0  0  0
 17 18  1  0  0  0  0
 17 19  2  0  0  0  0
 19 20  1  0  0  0  0
 20 21  1  0  0  0  0
 22 23  2  0  0  0  0
 22 24  1  0  0  0  0
 24 25  1  0  0  0  0
 24 26  1  0  0  0  0
 26 27  1  0  0  0  0
 26 28  1  0  0  0  0
 26 29  1  0  0  0  0
M  END
$$$$

  -OEChem-01062216083D

 29 29  0     1  0  0  0  0  0999 V2000
   -3.6563   -2.4489    0.9700 H   0  0  0  0  0  0  0  0  0  0  0  0
   -3.4380   -1.5509    0.3848 C   0  0  0  0  0  0  0  0  0  0  0  0
   -4.1829   -0.7869    0.6208 H   0  0  0  0  0  0  0  0  0  0  0  0
   -3.5041   -1.8001   -0.6771 H   0  0  0  0  0  0  0  0  0  0  0  0
   -2.0488   -1.0373    0.7120 C   0  0  0  0  0  0  0  0  0  0  0  0
   -1.4330   -1.5391    1.6361 O   0  0  0  0  0  0  0  0  0  0  0  0
   -1.5652    0.0628    0.0304 N   0  0  0  0  0  0  0  0  0  0  0  0
   -2.2122    0.4591   -0.6457 H   0  0  0  0  0  0  0  0  0  0  0  0
   -0.1981    0.6386    0.0235 C   0  0  1  0  0  0  0  0  0  0  0  0
   -0.0535    1.0971   -0.9603 H   0  0  0  0  0  0  0  0  0  0  0  0
   -0.1487    1.7496    1.0846 C   0  0  0  0  0  0  0  0  0  0  0  0
   -0.4200    1.3351    2.0617 H   0  0  0  0  0  0  0  0  0  0  0  0
    0.8683    2.1481    1.1661 H   0  0  0  0  0  0  0  0  0  0  0  0
   -1.0857    2.8725    0.7214 C   0  0  0  0  0  0  0  0  0  0  0  0
   -0.9064    3.8334   -0.2491 N   0  0  0  0  0  0  0  0  0  0  0  0
   -0.0979    3.9319   -0.8607 H   0  0  0  0  0  0  0  0  0  0  0  0
   -2.0028    4.6750   -0.2331 C   0  0  0  0  0  0  0  0  0  0  0  0
   -2.1444    5.5290   -0.8894 H   0  0  0  0  0  0  0  0  0  0  0  0
   -2.8526    4.2915    0.6897 N   0  0  0  0  0  0  0  0  0  0  0  0
   -2.2868    3.1791    1.3036 C   0  0  0  0  0  0  0  0  0  0  0  0
   -2.7373    2.6274    2.1234 H   0  0  0  0  0  0  0  0  0  0  0  0
    1.0367   -0.2771    0.2319 C   0  0  0  0  0  0  0  0  0  0  0  0
    1.9305   -0.2274   -0.6040 O   0  0  0  0  0  0  0  0  0  0  0  0
    1.2383   -1.0365    1.3679 N   0  0  0  0  0  0  0  0  0  0  0  0
    0.3909   -1.2311    1.9077 H   0  0  0  0  0  0  0  0  0  0  0  0
    2.3762   -1.9308    1.5368 C   0  0  0  0  0  0  0  0  0  0  0  0
    3.3166   -1.3752    1.4587 H   0  0  0  0  0  0  0  0  0  0  0  0
    2.3382   -2.4044    2.5224 H   0  0  0  0  0  0  0  0  0  0  0  0
    2.3640   -2.7147    0.7725 H   0  0  0  0  0  0  0  0  0  0  0  0
  1  2  1  0  0  0  0
  2  3  1  0  0  0  0
  2  4  1  0  0  0  0
  2  5  1  0  0  0  0
  5  6  2  0  0  0  0
  5  7  1  0  0  0  0
  7  8  1  0  0  0  0
  7  9  1  0  0  0  0
  9 10  1  0  0  0  0
  9 11  1  0  0  0  0
  9 22  1  0  0  0  0
 11 12  1  0  0  0  0
 11 13  1  0  0  0  0
 11 14  1  0  0  0  0
 14 15  1  0  0  0  0
 14 20  2  0  0  0  0
 15 16  1  0  0  0  0
 15 17  1  0  0  0  0
 17 18  1  0  0  0  0
 17 19  2  0  0  0  0
 19 20  1  0  0  0  0
 20 21  1  0  0  0  0
 22 23  2  0  0  0  0
 22 24  1  0  0  0  0
 24 25  1  0  0  0  0
 24 26  1  0  0  0  0
 26 27  1  0  0  0  0
 26 28  1  0  0  0  0
 26 29  1  0  0  0  0
M  END
$$$$

  -OEChem-01062216083D

 29 29  0     1  0  0  0  0  0999 V2000
   -3.7952   -2.3762    0.9635 H   0  0  0  0  0  0  0  0  0  0  0  0
   -3.5364   -1.4903    0.3765 C   0  0  0  0  0  0  0  0  0  0  0  0
   -4.2477   -0.6940    0.6094 H   0  0  0  0  0  0  0  0  0  0  0  0
   -3.6121   -1.7388   -0.6849 H   0  0  0  0  0  0  0  0  0  0  0  0
   -2.1261   -1.0374    0.7053 C   0  0  0  0  0  0  0  0  0  0  0  0
   -1.5324   -1.5756    1.6226 O   0  0  0  0  0  0  0  0  0  0  0  0
   -1.6023    0.0484    0.0304 N   0  0  0  0  0  0  0  0  0  0  0  0
   -2.2460    0.4775   -0.6289 H   0  0  0  0  0  0  0  0  0  0  0  0
   -0.2234    0.5997    0.0169 C   0  0  1  0  0  0  0  0  0  0  0  0
   -0.0827    1.0583   -0.9672 H   0  0  0  0  0  0  0  0  0  0  0  0
   -0.1594    1.7074    1.0810 C   0  0  0  0  0  0  0  0  0  0  0  0
   -0.4341    1.2926    2.0571 H   0  0  0  0  0  0  0  0  0  0  0  0
    0.8624    2.0940    1.1636 H   0  0  0  0  0  0  0  0  0  0  0  0
   -1.0816    2.8443    0.7216 C   0  0  0  0  0  0  0  0  0  0  0  0
   -0.8884    3.8051   -0.2462 N   0  0  0  0  0  0  0  0  0  0  0  0
   -0.0767    3.8951   -0.8549 H   0  0  0  0  0  0  0  0  0  0  0  0
   -1.9720    4.6632   -0.2278 C   0  0  0  0  0  0  0  0  0  0  0  0
   -2.1013    5.5212   -0.8815 H   0  0  0  0  0  0  0  0  0  0  0  0
   -2.8270    4.2894    0.6941 N   0  0  0  0  0  0  0  0  0  0  0  0
   -2.2775    3.1674    1.3054 C   0  0  0  0  0  0  0  0  0  0  0  0
   -2.7359    2.6208    2.1242 H   0  0  0  0  0  0  0  0  0  0  0  0
    1.0228   -0.3048    0.2172 C   0  0  0  0  0  0  0  0  0  0  0  0
    1.9997   -0.0749   -0.4851 O   0  0  0  0  0  0  0  0  0  0  0  0
    1.1380   -1.2833    1.1837 N   0  0  0  0  0  0  0  0  0  0  0  0
    0.2793   -1.5252    1.6844 H   0  0  0  0  0  0  0  0  0  0  0  0
    2.3050   -2.1417    1.3397 C   0  0  0  0  0  0  0  0  0  0  0  0
    3.2018   -1.5411    1.5247 H   0  0  0  0  0  0  0  0  0  0  0  0
    2.1628   -2.8180    2.1880 H   0  0  0  0  0  0  0  0  0  0  0  0
    2.4619   -2.7431    0.4383 H   0  0  0  0  0  0  0  0  0  0  0  0
  1  2  1  0  0  0  0
  2  3  1  0  0  0  0
  2  4  1  0  0  0  0
  2  5  1  0  0  0  0
  5  6  2  0  0  0  0
  5  7  1  0  0  0  0
  7  8  1  0  0  0  0
  7  9  1  0  0  0  0
  9 10  1  0  0  0  0
  9 11  1  0  0  0  0
  9 22  1  0  0  0  0
 11 12  1  0  0  0  0
 11 13  1  0  0  0  0
 11 14  1  0  0  0  0
 14 15  1  0  0  0  0
 14 20  2  0  0  0  0
 15 16  1  0  0  0  0
 15 17  1  0  0  0  0
 17 18  1  0  0  0  0
 17 19  2  0  0  0  0
 19 20  1  0  0  0  0
 20 21  1  0  0  0  0
 22 23  2  0  0  0  0
 22 24  1  0  0  0  0
 24 25  1  0  0  0  0
 24 26  1  0  0  0  0
 26 27  1  0  0  0  0
 26 28  1  0  0  0  0
 26 29  1  0  0  0  0
M  END
$$$$

  -OEChem-01062216083D

 29 29  0     1  0  0  0  0  0999 V2000
   -3.1981   -2.6561    1.1710 H   0  0  0  0  0  0  0  0  0  0  0  0
   -3.0286   -1.8118    0.4964 C   0  0  0  0  0  0  0  0  0  0  0  0
   -3.8904   -1.1418    0.5478 H   0  0  0  0  0  0  0  0  0  0  0  0
   -2.9299   -2.1915   -0.5232 H   0  0  0  0  0  0  0  0  0  0  0  0
   -1.7694   -1.0672    0.8979 C   0  0  0  0  0  0  0  0  0  0  0  0
   -1.2293   -1.3403    1.9532 O   0  0  0  0  0  0  0  0  0  0  0  0
   -1.3727    0.0284    0.1604 N   0  0  0  0  0  0  0  0  0  0  0  0
   -2.0103    0.2773   -0.5902 H   0  0  0  0  0  0  0  0  0  0  0  0
   -0.0602    0.7200    0.1325 C   0  0  1  0  0  0  0  0  0  0  0  0
    0.0420    1.1451   -0.8707 H   0  0  0  0  0  0  0  0  0  0  0  0
   -0.1785    1.8776    1.1444 C   0  0  0  0  0  0  0  0  0  0  0  0
   -0.4353    1.4728    2.1299 H   0  0  0  0  0  0  0  0  0  0  0  0
    0.7779    2.4015    1.2470 H   0  0  0  0  0  0  0  0  0  0  0  0
   -1.2222    2.8719    0.7010 C   0  0  0  0  0  0  0  0  0  0  0  0
   -1.1179    3.8070   -0.3045 N   0  0  0  0  0  0  0  0  0  0  0  0
   -0.2979    3.9827   -0.8823 H   0  0  0  0  0  0  0  0  0  0  0  0
   -2.3049    4.5128   -0.3642 C   0  0  0  0  0  0  0  0  0  0  0  0
   -2.5184    5.3184   -1.0610 H   0  0  0  0  0  0  0  0  0  0  0  0
   -3.1412    4.0675    0.5429 N   0  0  0  0  0  0  0  0  0  0  0  0
   -2.4736    3.0555    1.2259 C   0  0  0  0  0  0  0  0  0  0  0  0
   -2.8898    2.4854    2.0511 H   0  0  0  0  0  0  0  0  0  0  0  0
    1.3082    0.0128    0.3865 C   0  0  0  0  0  0  0  0  0  0  0  0
    2.3178    0.6437    0.1088 O   0  0  0  0  0  0  0  0  0  0  0  0
    1.6207   -1.0806    1.1596 N   0  0  0  0  0  0  0  0  0  0  0  0
    2.5905   -1.0252    1.4588 H   0  0  0  0  0  0  0  0  0  0  0  0
    1.2132   -2.4159    0.7393 C   0  0  0  0  0  0  0  0  0  0  0  0
    2.0780   -2.9637    0.3525 H   0  0  0  0  0  0  0  0  0  0  0  0
    0.8035   -2.9713    1.5889 H   0  0  0  0  0  0  0  0  0  0  0  0
    0.4586   -2.3777   -0.0520 H   0  0  0  0  0  0  0  0  0  0  0  0
  1  2  1  0  0  0  0
  2  3  1  0  0  0  0
  2  4  1  0  0  0  0
  2  5  1  0  0  0  0
  5  6  2  0  0  0  0
  5  7  1  0  0  0  0
  7  8  1  0  0  0  0
  7  9  1  0  0  0  0
  9 10  1  0  0  0  0
  9 11  1  0  0  0  0
  9 22  1  0  0  0  0
 11 12  1  0  0  0  0
 11 13  1  0  0  0  0
 11 14  1  0  0  0  0
 14 15  1  0  0  0  0
 14 20  2  0  0  0  0
 15 16  1  0  0  0  0
 15 17  1  0  0  0  0
 17 18  1  0  0  0  0
 17 19  2  0  0  0  0
 19 20  1  0  0  0  0
 20 21  1  0  0  0  0
 22 23  2  0  0  0  0
 22 24  1  0  0  0  0
 24 25  1  0  0  0  0
 24 26  1  0  0  0  0
 26 27  1  0  0  0  0
 26 28  1  0  0  0  0
 26 29  1  0  0  0  0
M  END
$$$$

  -OEChem-01062216083D

 29 29  0     1  0  0  0  0  0999 V2000
   -3.5970   -2.5398    1.0644 H   0  0  0  0  0  0  0  0  0  0  0  0
   -3.4423   -1.6484    0.4497 C   0  0  0  0  0  0  0  0  0  0  0  0
   -4.1960   -0.9026    0.7139 H   0  0  0  0  0  0  0  0  0  0  0  0
   -3.5616   -1.9226   -0.6011 H   0  0  0  0  0  0  0  0  0  0  0  0
   -2.0529   -1.0864    0.6839 C   0  0  0  0  0  0  0  0  0  0  0  0
   -1.3889   -1.5201    1.6050 O   0  0  0  0  0  0  0  0  0  0  0  0
   -1.6645    0.0405   -0.0095 N   0  0  0  0  0  0  0  0  0  0  0  0
   -2.3893    0.4078   -0.6187 H   0  0  0  0  0  0  0  0  0  0  0  0
   -0.3023    0.5567   -0.2912 C   0  0  1  0  0  0  0  0  0  0  0  0
   -0.3687    1.1017   -1.2382 H   0  0  0  0  0  0  0  0  0  0  0  0
    0.0292    1.5621    0.8250 C   0  0  0  0  0  0  0  0  0  0  0  0
   -0.0451    1.0643    1.7981 H   0  0  0  0  0  0  0  0  0  0  0  0
    1.0576    1.9235    0.7177 H   0  0  0  0  0  0  0  0  0  0  0  0
   -0.9054    2.7439    0.7773 C   0  0  0  0  0  0  0  0  0  0  0  0
   -0.8931    3.7889   -0.1196 N   0  0  0  0  0  0  0  0  0  0  0  0
   -0.2306    3.9236   -0.8810 H   0  0  0  0  0  0  0  0  0  0  0  0
   -1.9168    4.6566    0.2122 C   0  0  0  0  0  0  0  0  0  0  0  0
   -2.1533    5.5752   -0.3173 H   0  0  0  0  0  0  0  0  0  0  0  0
   -2.5654    4.2101    1.2611 N   0  0  0  0  0  0  0  0  0  0  0  0
   -1.9377    3.0250    1.6326 C   0  0  0  0  0  0  0  0  0  0  0  0
   -2.2292    2.4074    2.4771 H   0  0  0  0  0  0  0  0  0  0  0  0
    0.9379   -0.3710   -0.4528 C   0  0  0  0  0  0  0  0  0  0  0  0
    1.7809   -0.0259   -1.2673 O   0  0  0  0  0  0  0  0  0  0  0  0
    1.0940   -1.6929   -0.1101 N   0  0  0  0  0  0  0  0  0  0  0  0
    1.7295   -2.1350   -0.7691 H   0  0  0  0  0  0  0  0  0  0  0  0
    1.4185   -2.0109    1.2763 C   0  0  0  0  0  0  0  0  0  0  0  0
    1.1374   -1.1982    1.9544 H   0  0  0  0  0  0  0  0  0  0  0  0
    0.8936   -2.9196    1.5879 H   0  0  0  0  0  0  0  0  0  0  0  0
    2.4951   -2.1783    1.3794 H   0  0  0  0  0  0  0  0  0  0  0  0
  1  2  1  0  0  0  0
  2  3  1  0  0  0  0
  2  4  1  0  0  0  0
  2  5  1  0  0  0  0
  5  6  2  0  0  0  0
  5  7  1  0  0  0  0
  7  8  1  0  0  0  0
  7  9  1  0  0  0  0
  9 10  1  0  0  0  0
  9 11  1  0  0  0  0
  9 22  1  0  0  0  0
 11 12  1  0  0  0  0
 11 13  1  0  0  0  0
 11 14  1  0  0  0  0
 14 15  1  0  0  0  0
 14 20  2  0  0  0  0
 15 16  1  0  0  0  0
 15 17  1  0  0  0  0
 17 18  1  0  0  0  0
 17 19  2  0  0  0  0
 19 20  1  0  0  0  0
 20 21  1  0  0  0  0
 22 23  2  0  0  0  0
 22 24  1  0  0  0  0
 24 25  1  0  0  0  0
 24 26  1  0  0  0  0
 26 27  1  0  0  0  0
 26 28  1  0  0  0  0
 26 29  1  0  0  0  0
M  END
$$$$

  -OEChem-01062216083D

 29 29  0     1  0  0  0  0  0999 V2000
   -3.8775   -2.2610    1.0365 H   0  0  0  0  0  0  0  0  0  0  0  0
   -3.6087   -1.3823    0.4434 C   0  0  0  0  0  0  0  0  0  0  0  0
   -4.2366   -0.5436    0.7543 H   0  0  0  0  0  0  0  0  0  0  0  0
   -3.7974   -1.5992   -0.6108 H   0  0  0  0  0  0  0  0  0  0  0  0
   -2.1458   -1.0375    0.6500 C   0  0  0  0  0  0  0  0  0  0  0  0
   -1.4945   -1.6777    1.4558 O   0  0  0  0  0  0  0  0  0  0  0  0
   -1.6187    0.0538   -0.0129 N   0  0  0  0  0  0  0  0  0  0  0  0
   -2.2951    0.5747   -0.5649 H   0  0  0  0  0  0  0  0  0  0  0  0
   -0.2283    0.5765   -0.0557 C   0  0  1  0  0  0  0  0  0  0  0  0
   -0.1012    1.0563   -1.0311 H   0  0  0  0  0  0  0  0  0  0  0  0
   -0.1489    1.6571    1.0413 C   0  0  0  0  0  0  0  0  0  0  0  0
   -0.4137    1.2151    2.0083 H   0  0  0  0  0  0  0  0  0  0  0  0
    0.8709    2.0470    1.1295 H   0  0  0  0  0  0  0  0  0  0  0  0
   -1.0726    2.8044    0.7201 C   0  0  0  0  0  0  0  0  0  0  0  0
   -0.8851    3.7884   -0.2248 N   0  0  0  0  0  0  0  0  0  0  0  0
   -0.0721    3.8983   -0.8286 H   0  0  0  0  0  0  0  0  0  0  0  0
   -1.9706    4.6431   -0.1815 C   0  0  0  0  0  0  0  0  0  0  0  0
   -2.1038    5.5166   -0.8135 H   0  0  0  0  0  0  0  0  0  0  0  0
   -2.8221    4.2441    0.7333 N   0  0  0  0  0  0  0  0  0  0  0  0
   -2.2659    3.1110    1.3173 C   0  0  0  0  0  0  0  0  0  0  0  0
   -2.7198    2.5433    2.1240 H   0  0  0  0  0  0  0  0  0  0  0  0
    1.0147   -0.3495    0.0813 C   0  0  0  0  0  0  0  0  0  0  0  0
    2.1173    0.1580   -0.0898 O   0  0  0  0  0  0  0  0  0  0  0  0
    0.9618   -1.7190    0.2530 N   0  0  0  0  0  0  0  0  0  0  0  0
    0.0749   -2.0750    0.6137 H   0  0  0  0  0  0  0  0  0  0  0  0
    2.1483   -2.5485    0.4230 C   0  0  0  0  0  0  0  0  0  0  0  0
    2.7076   -2.2399    1.3122 H   0  0  0  0  0  0  0  0  0  0  0  0
    1.8599   -3.5974    0.5402 H   0  0  0  0  0  0  0  0  0  0  0  0
    2.8020   -2.4669   -0.4517 H   0  0  0  0  0  0  0  0  0  0  0  0
  1  2  1  0  0  0  0
  2  3  1  0  0  0  0
  2  4  1  0  0  0  0
  2  5  1  0  0  0  0
  5  6  2  0  0  0  0
  5  7  1  0  0  0  0
  7  8  1  0  0  0  0
  7  9  1  0  0  0  0
  9 10  1  0  0  0  0
  9 11  1  0  0  0  0
  9 22  1  0  0  0  0
 11 12  1  0  0  0  0
 11 13  1  0  0  0  0
 11 14  1  0  0  0  0
 14 15  1  0  0  0  0
 14 20  2  0  0  0  0
 15 16  1  0  0  0  0
 15 17  1  0  0  0  0
 17 18  1  0  0  0  0
 17 19  2  0  0  0  0
 19 20  1  0  0  0  0
 20 21  1  0  0  0  0
 22 23  2  0  0  0  0
 22 24  1  0  0  0  0
 24 25  1  0  0  0  0
 24 26  1  0  0  0  0
 26 27  1  0  0  0  0
 26 28  1  0  0  0  0
 26 29  1  0  0  0  0
M  END
$$$$

  -OEChem-01062216083D

 29 29  0     1  0  0  0  0  0999 V2000
   -3.8048   -2.2690    1.0654 H   0  0  0  0  0  0  0  0  0  0  0  0
   -3.5585   -1.3775    0.4813 C   0  0  0  0  0  0  0  0  0  0  0  0
   -4.1622   -0.5420    0.8444 H   0  0  0  0  0  0  0  0  0  0  0  0
   -3.8019   -1.5661   -0.5670 H   0  0  0  0  0  0  0  0  0  0  0  0
   -2.0836   -1.0507    0.6209 C   0  0  0  0  0  0  0  0  0  0  0  0
   -1.3885   -1.7433    1.3418 O   0  0  0  0  0  0  0  0  0  0  0  0
   -1.5791    0.0566   -0.0333 N   0  0  0  0  0  0  0  0  0  0  0  0
   -2.2763    0.6106   -0.5242 H   0  0  0  0  0  0  0  0  0  0  0  0
   -0.1958    0.5984   -0.0647 C   0  0  1  0  0  0  0  0  0  0  0  0
   -0.0621    1.0832   -1.0364 H   0  0  0  0  0  0  0  0  0  0  0  0
   -0.1425    1.6763    1.0388 C   0  0  0  0  0  0  0  0  0  0  0  0
   -0.4061    1.2259    2.0021 H   0  0  0  0  0  0  0  0  0  0  0  0
    0.8682    2.0865    1.1372 H   0  0  0  0  0  0  0  0  0  0  0  0
   -1.0824    2.8101    0.7140 C   0  0  0  0  0  0  0  0  0  0  0  0
   -0.9054    3.8018   -0.2249 N   0  0  0  0  0  0  0  0  0  0  0  0
   -0.0915    3.9270   -0.8244 H   0  0  0  0  0  0  0  0  0  0  0  0
   -2.0043    4.6393   -0.1828 C   0  0  0  0  0  0  0  0  0  0  0  0
   -2.1480    5.5136   -0.8115 H   0  0  0  0  0  0  0  0  0  0  0  0
   -2.8538    4.2230    0.7261 N   0  0  0  0  0  0  0  0  0  0  0  0
   -2.2824    3.0968    1.3084 C   0  0  0  0  0  0  0  0  0  0  0  0
   -2.7306    2.5198    2.1119 H   0  0  0  0  0  0  0  0  0  0  0  0
    1.0406   -0.3380    0.0724 C   0  0  0  0  0  0  0  0  0  0  0  0
    2.1538    0.1727    0.1229 O   0  0  0  0  0  0  0  0  0  0  0  0
    0.9707   -1.7112   -0.0702 N   0  0  0  0  0  0  0  0  0  0  0  0
    0.0623   -2.1067    0.1762 H   0  0  0  0  0  0  0  0  0  0  0  0
    2.1347   -2.5790    0.0630 C   0  0  0  0  0  0  0  0  0  0  0  0
    2.5741   -2.4806    1.0611 H   0  0  0  0  0  0  0  0  0  0  0  0
    1.8441   -3.6231   -0.0875 H   0  0  0  0  0  0  0  0  0  0  0  0
    2.8931   -2.3230   -0.6841 H   0  0  0  0  0  0  0  0  0  0  0  0
  1  2  1  0  0  0  0
  2  3  1  0  0  0  0
  2  4  1  0  0  0  0
  2  5  1  0  0  0  0
  5  6  2  0  0  0  0
  5  7  1  0  0  0  0
  7  8  1  0  0  0  0
  7  9  1  0  0  0  0
  9 10  1  0  0  0  0
  9 11  1  0  0  0  0
  9 22  1  0  0  0  0
 11 12  1  0  0  0  0
 11 13  1  0  0  0  0
 11 14  1  0  0  0  0
 14 15  1  0  0  0  0
 14 20  2  0  0  0  0
 15 16  1  0  0  0  0
 15 17  1  0  0  0  0
 17 18  1  0  0  0  0
 17 19  2  0  0  0  0
 19 20  1  0  0  0  0
 20 21  1  0  0  0  0
 22 23  2  0  0  0  0
 22 24  1  0  0  0  0
 24 25  1  0  0  0  0
 24 26  1  0  0  0  0
 26 27  1  0  0  0  0
 26 28  1  0  0  0  0
 26 29  1  0  0  0  0
M  END
$$$$

  -OEChem-01062216083D

 29 29  0     1  0  0  0  0  0999 V2000
   -3.7221   -2.2734    1.1112 H   0  0  0  0  0  0  0  0  0  0  0  0
   -3.4977   -1.3782    0.5240 C   0  0  0  0  0  0  0  0  0  0  0  0
   -4.0673   -0.5397    0.9324 H   0  0  0  0  0  0  0  0  0  0  0  0
   -3.8054   -1.5501   -0.5103 H   0  0  0  0  0  0  0  0  0  0  0  0
   -2.0127   -1.0728    0.5805 C   0  0  0  0  0  0  0  0  0  0  0  0
   -1.2750   -1.8187    1.1978 O   0  0  0  0  0  0  0  0  0  0  0  0
   -1.5360    0.0545   -0.0608 N   0  0  0  0  0  0  0  0  0  0  0  0
   -2.2548    0.6438   -0.4737 H   0  0  0  0  0  0  0  0  0  0  0  0
   -0.1628    0.6194   -0.0683 C   0  0  1  0  0  0  0  0  0  0  0  0
   -0.0171    1.1108   -1.0346 H   0  0  0  0  0  0  0  0  0  0  0  0
   -0.1414    1.6936    1.0406 C   0  0  0  0  0  0  0  0  0  0  0  0
   -0.4094    1.2347    1.9986 H   0  0  0  0  0  0  0  0  0  0  0  0
    0.8601    2.1217    1.1534 H   0  0  0  0  0  0  0  0  0  0  0  0
   -1.0941    2.8139    0.7076 C   0  0  0  0  0  0  0  0  0  0  0  0
   -0.9208    3.8128   -0.2244 N   0  0  0  0  0  0  0  0  0  0  0  0
   -0.1005    3.9550   -0.8113 H   0  0  0  0  0  0  0  0  0  0  0  0
   -2.0312    4.6353   -0.1903 C   0  0  0  0  0  0  0  0  0  0  0  0
   -2.1795    5.5115   -0.8153 H   0  0  0  0  0  0  0  0  0  0  0  0
   -2.8852    4.2014    0.7063 N   0  0  0  0  0  0  0  0  0  0  0  0
   -2.3043    3.0809    1.2898 C   0  0  0  0  0  0  0  0  0  0  0  0
   -2.7523    2.4944    2.0864 H   0  0  0  0  0  0  0  0  0  0  0  0
    1.0640   -0.3272    0.0765 C   0  0  0  0  0  0  0  0  0  0  0  0
    2.1548    0.1428    0.3808 O   0  0  0  0  0  0  0  0  0  0  0  0
    1.0266   -1.6317   -0.3810 N   0  0  0  0  0  0  0  0  0  0  0  0
    0.1015   -2.0549   -0.3165 H   0  0  0  0  0  0  0  0  0  0  0  0
    2.1723   -2.5269   -0.2721 C   0  0  0  0  0  0  0  0  0  0  0  0
    2.4560   -2.6595    0.7772 H   0  0  0  0  0  0  0  0  0  0  0  0
    1.9257   -3.5067   -0.6921 H   0  0  0  0  0  0  0  0  0  0  0  0
    3.0294   -2.1235   -0.8215 H   0  0  0  0  0  0  0  0  0  0  0  0
  1  2  1  0  0  0  0
  2  3  1  0  0  0  0
  2  4  1  0  0  0  0
  2  5  1  0  0  0  0
  5  6  2  0  0  0  0
  5  7  1  0  0  0  0
  7  8  1  0  0  0  0
  7  9  1  0  0  0  0
  9 10  1  0  0  0  0
  9 11  1  0  0  0  0
  9 22  1  0  0  0  0
 11 12  1  0  0  0  0
 11 13  1  0  0  0  0
 11 14  1  0  0  0  0
 14 15  1  0  0  0  0
 14 20  2  0  0  0  0
 15 16  1  0  0  0  0
 15 17  1  0  0  0  0
 17 18  1  0  0  0  0
 17 19  2  0  0  0  0
 19 20  1  0  0  0  0
 20 21  1  0  0  0  0
 22 23  2  0  0  0  0
 22 24  1  0  0  0  0
 24 25  1  0  0  0  0
 24 26  1  0  0  0  0
 26 27  1  0  0  0  0
 26 28  1  0  0  0  0
 26 29  1  0  0  0  0
M  END
$$$$

  -OEChem-01062216083D

 29 29  0     1  0  0  0  0  0999 V2000
   -3.6064   -2.3110    1.1378 H   0  0  0  0  0  0  0  0  0  0  0  0
   -3.4144   -1.4082    0.5509 C   0  0  0  0  0  0  0  0  0  0  0  0
   -3.9789   -0.5804    0.9871 H   0  0  0  0  0  0  0  0  0  0  0  0
   -3.7578   -1.5745   -0.4729 H   0  0  0  0  0  0  0  0  0  0  0  0
   -1.9319   -1.0859    0.5564 C   0  0  0  0  0  0  0  0  0  0  0  0
   -1.1613   -1.8386    1.1223 O   0  0  0  0  0  0  0  0  0  0  0  0
   -1.4928    0.0585   -0.0823 N   0  0  0  0  0  0  0  0  0  0  0  0
   -2.2324    0.6562   -0.4430 H   0  0  0  0  0  0  0  0  0  0  0  0
   -0.1322    0.6494   -0.0758 C   0  0  1  0  0  0  0  0  0  0  0  0
    0.0203    1.1452   -1.0388 H   0  0  0  0  0  0  0  0  0  0  0  0
   -0.1315    1.7218    1.0350 C   0  0  0  0  0  0  0  0  0  0  0  0
   -0.3941    1.2571    1.9918 H   0  0  0  0  0  0  0  0  0  0  0  0
    0.8639    2.1635    1.1487 H   0  0  0  0  0  0  0  0  0  0  0  0
   -1.0998    2.8289    0.7015 C   0  0  0  0  0  0  0  0  0  0  0  0
   -0.9419    3.8342   -0.2266 N   0  0  0  0  0  0  0  0  0  0  0  0
   -0.1226    3.9942   -0.8100 H   0  0  0  0  0  0  0  0  0  0  0  0
   -2.0659    4.6384   -0.1902 C   0  0  0  0  0  0  0  0  0  0  0  0
   -2.2284    5.5141   -0.8124 H   0  0  0  0  0  0  0  0  0  0  0  0
   -2.9128    4.1883    0.7047 N   0  0  0  0  0  0  0  0  0  0  0  0
   -2.3138    3.0759    1.2851 C   0  0  0  0  0  0  0  0  0  0  0  0
   -2.7528    2.4813    2.0808 H   0  0  0  0  0  0  0  0  0  0  0  0
    1.0824   -0.3102    0.0750 C   0  0  0  0  0  0  0  0  0  0  0  0
    2.0998    0.0556    0.6532 O   0  0  0  0  0  0  0  0  0  0  0  0
    1.1316   -1.4813   -0.6604 N   0  0  0  0  0  0  0  0  0  0  0  0
    0.2192   -1.8599   -0.8998 H   0  0  0  0  0  0  0  0  0  0  0  0
    2.2361   -2.4258   -0.5407 C   0  0  0  0  0  0  0  0  0  0  0  0
    2.3093   -2.7993    0.4861 H   0  0  0  0  0  0  0  0  0  0  0  0
    2.0788   -3.2765   -1.2102 H   0  0  0  0  0  0  0  0  0  0  0  0
    3.1836   -1.9478   -0.8105 H   0  0  0  0  0  0  0  0  0  0  0  0
  1  2  1  0  0  0  0
  2  3  1  0  0  0  0
  2  4  1  0  0  0  0
  2  5  1  0  0  0  0
  5  6  2  0  0  0  0
  5  7  1  0  0  0  0
  7  8  1  0  0  0  0
  7  9  1  0  0  0  0
  9 10  1  0  0  0  0
  9 11  1  0  0  0  0
  9 22  1  0  0  0  0
 11 12  1  0  0  0  0
 11 13  1  0  0  0  0
 11 14  1  0  0  0  0
 14 15  1  0  0  0  0
 14 20  2  0  0  0  0
 15 16  1  0  0  0  0
 15 17  1  0  0  0  0
 17 18  1  0  0  0  0
 17 19  2  0  0  0  0
 19 20  1  0  0  0  0
 20 21  1  0  0  0  0
 22 23  2  0  0  0  0
 22 24  1  0  0  0  0
 24 25  1  0  0  0  0
 24 26  1  0  0  0  0
 26 27  1  0  0  0  0
 26 28  1  0  0  0  0
 26 29  1  0  0  0  0
M  END
$$$$

  -OEChem-01062216083D

 29 29  0     1  0  0  0  0  0999 V2000
   -3.5339   -2.3362    1.1538 H   0  0  0  0  0  0  0  0  0  0  0  0
   -3.3612   -1.4296    0.5665 C   0  0  0  0  0  0  0  0  0  0  0  0
   -3.9239   -0.6081    1.0168 H   0  0  0  0  0  0  0  0  0  0  0  0
   -3.7225   -1.5958   -0.4512 H   0  0  0  0  0  0  0  0  0  0  0  0
   -1.8816   -1.0946    0.5454 C   0  0  0  0  0  0  0  0  0  0  0  0
   -1.0952   -1.8490    1.0867 O   0  0  0  0  0  0  0  0  0  0  0  0
   -1.4652    0.0587   -0.0945 N   0  0  0  0  0  0  0  0  0  0  0  0
   -2.2169    0.6565   -0.4285 H   0  0  0  0  0  0  0  0  0  0  0  0
   -0.1140    0.6674   -0.0758 C   0  0  1  0  0  0  0  0  0  0  0  0
    0.0457    1.1666   -1.0358 H   0  0  0  0  0  0  0  0  0  0  0  0
   -0.1269    1.7380    1.0351 C   0  0  0  0  0  0  0  0  0  0  0  0
   -0.3881    1.2706    1.9911 H   0  0  0  0  0  0  0  0  0  0  0  0
    0.8668    2.1839    1.1501 H   0  0  0  0  0  0  0  0  0  0  0  0
   -1.1038    2.8371    0.7000 C   0  0  0  0  0  0  0  0  0  0  0  0
   -0.9519    3.8454   -0.2263 N   0  0  0  0  0  0  0  0  0  0  0  0
   -0.1305    4.0168   -0.8033 H   0  0  0  0  0  0  0  0  0  0  0  0
   -2.0842    4.6380   -0.1943 C   0  0  0  0  0  0  0  0  0  0  0  0
   -2.2518    5.5136   -0.8151 H   0  0  0  0  0  0  0  0  0  0  0  0
   -2.9315    4.1768    0.6945 N   0  0  0  0  0  0  0  0  0  0  0  0
   -2.3242    3.0695    1.2763 C   0  0  0  0  0  0  0  0  0  0  0  0
   -2.7620    2.4677    2.0671 H   0  0  0  0  0  0  0  0  0  0  0  0
    1.0916   -0.2987    0.0870 C   0  0  0  0  0  0  0  0  0  0  0  0
    1.9906   -0.0687    0.8886 O   0  0  0  0  0  0  0  0  0  0  0  0
    1.2885   -1.2884   -0.8601 N   0  0  0  0  0  0  0  0  0  0  0  0
    0.4586   -1.5616   -1.3774 H   0  0  0  0  0  0  0  0  0  0  0  0
    2.3733   -2.2573   -0.7568 C   0  0  0  0  0  0  0  0  0  0  0  0
    2.2811   -2.8363    0.1683 H   0  0  0  0  0  0  0  0  0  0  0  0
    2.3444   -2.9488   -1.6041 H   0  0  0  0  0  0  0  0  0  0  0  0
    3.3440   -1.7504   -0.7601 H   0  0  0  0  0  0  0  0  0  0  0  0
  1  2  1  0  0  0  0
  2  3  1  0  0  0  0
  2  4  1  0  0  0  0
  2  5  1  0  0  0  0
  5  6  2  0  0  0  0
  5  7  1  0  0  0  0
  7  8  1  0  0  0  0
  7  9  1  0  0  0  0
  9 10  1  0  0  0  0
  9 11  1  0  0  0  0
  9 22  1  0  0  0  0
 11 12  1  0  0  0  0
 11 13  1  0  0  0  0
 11 14  1  0  0  0  0
 14 15  1  0  0  0  0
 14 20  2  0  0  0  0
 15 16  1  0  0  0  0
 15 17  1  0  0  0  0
 17 18  1  0  0  0  0
 17 19  2  0  0  0  0
 19 20  1  0  0  0  0
 20 21  1  0  0  0  0
 22 23  2  0  0  0  0
 22 24  1  0  0  0  0
 24 25  1  0  0  0  0
 24 26  1  0  0  0  0
 26 27  1  0  0  0  0
 26 28  1  0  0  0  0
 26 29  1  0  0  0  0
M  END
$$$$

  -OEChem-01062216083D

 29 29  0     1  0  0  0  0  0999 V2000
   -3.5345   -2.3275    1.1732 H   0  0  0  0  0  0  0  0  0  0  0  0
   -3.3617   -1.4235    0.5822 C   0  0  0  0  0  0  0  0  0  0  0  0
   -3.9070   -0.5953    1.0413 H   0  0  0  0  0  0  0  0  0  0  0  0
   -3.7417   -1.5861   -0.4290 H   0  0  0  0  0  0  0  0  0  0  0  0
   -1.8790   -1.1052    0.5353 C   0  0  0  0  0  0  0  0  0  0  0  0
   -1.0914   -1.8782    1.0475 O   0  0  0  0  0  0  0  0  0  0  0  0
   -1.4636    0.0482   -0.1051 N   0  0  0  0  0  0  0  0  0  0  0  0
   -2.2173    0.6535   -0.4203 H   0  0  0  0  0  0  0  0  0  0  0  0
   -0.1144    0.6588   -0.0770 C   0  0  1  0  0  0  0  0  0  0  0  0
    0.0502    1.1608   -1.0348 H   0  0  0  0  0  0  0  0  0  0  0  0
   -0.1307    1.7286    1.0339 C   0  0  0  0  0  0  0  0  0  0  0  0
   -0.3977    1.2614    1.9885 H   0  0  0  0  0  0  0  0  0  0  0  0
    0.8652    2.1685    1.1531 H   0  0  0  0  0  0  0  0  0  0  0  0
   -1.1050    2.8292    0.6966 C   0  0  0  0  0  0  0  0  0  0  0  0
   -0.9500    3.8386   -0.2277 N   0  0  0  0  0  0  0  0  0  0  0  0
   -0.1280    4.0096   -0.8037 H   0  0  0  0  0  0  0  0  0  0  0  0
   -2.0811    4.6328   -0.1960 C   0  0  0  0  0  0  0  0  0  0  0  0
   -2.2465    5.5104   -0.8148 H   0  0  0  0  0  0  0  0  0  0  0  0
   -2.9307    4.1709    0.6902 N   0  0  0  0  0  0  0  0  0  0  0  0
   -2.3262    3.0616    1.2711 C   0  0  0  0  0  0  0  0  0  0  0  0
   -2.7662    2.4584    2.0599 H   0  0  0  0  0  0  0  0  0  0  0  0
    1.0896   -0.3062    0.0981 C   0  0  0  0  0  0  0  0  0  0  0  0
    1.8510   -0.2121    1.0548 O   0  0  0  0  0  0  0  0  0  0  0  0
    1.4813   -1.0818   -0.9792 N   0  0  0  0  0  0  0  0  0  0  0  0
    0.7733   -1.2438   -1.6886 H   0  0  0  0  0  0  0  0  0  0  0  0
    2.6024   -2.0117   -0.9042 C   0  0  0  0  0  0  0  0  0  0  0  0
    2.4254   -2.7618   -0.1260 H   0  0  0  0  0  0  0  0  0  0  0  0
    2.7314   -2.5265   -1.8609 H   0  0  0  0  0  0  0  0  0  0  0  0
    3.5304   -1.4778   -0.6739 H   0  0  0  0  0  0  0  0  0  0  0  0
  1  2  1  0  0  0  0
  2  3  1  0  0  0  0
  2  4  1  0  0  0  0
  2  5  1  0  0  0  0
  5  6  2  0  0  0  0
  5  7  1  0  0  0  0
  7  8  1  0  0  0  0
  7  9  1  0  0  0  0
  9 10  1  0  0  0  0
  9 11  1  0  0  0  0
  9 22  1  0  0  0  0
 11 12  1  0  0  0  0
 11 13  1  0  0  0  0
 11 14  1  0  0  0  0
 14 15  1  0  0  0  0
 14 20  2  0  0  0  0
 15 16  1  0  0  0  0
 15 17  1  0  0  0  0
 17 18  1  0  0  0  0
 17 19  2  0  0  0  0
 19 20  1  0  0  0  0
 20 21  1  0  0  0  0
 22 23  2  0  0  0  0
 22 24  1  0  0  0  0
 24 25  1  0  0  0  0
 24 26  1  0  0  0  0
 26 27  1  0  0  0  0
 26 28  1  0  0  0  0
 26 29  1  0  0  0  0
M  END
$$$$

  -OEChem-01062216083D

 29 29  0     1  0  0  0  0  0999 V2000
   -3.5538   -2.3235    1.1793 H   0  0  0  0  0  0  0  0  0  0  0  0
   -3.3765   -1.4208    0.5872 C   0  0  0  0  0  0  0  0  0  0  0  0
   -3.9136   -0.5886    1.0484 H   0  0  0  0  0  0  0  0  0  0  0  0
   -3.7617   -1.5810   -0.4225 H   0  0  0  0  0  0  0  0  0  0  0  0
   -1.8913   -1.1150    0.5332 C   0  0  0  0  0  0  0  0  0  0  0  0
   -1.1083   -1.9047    1.0251 O   0  0  0  0  0  0  0  0  0  0  0  0
   -1.4705    0.0358   -0.1088 N   0  0  0  0  0  0  0  0  0  0  0  0
   -2.2230    0.6460   -0.4166 H   0  0  0  0  0  0  0  0  0  0  0  0
   -0.1204    0.6434   -0.0798 C   0  0  1  0  0  0  0  0  0  0  0  0
    0.0418    1.1469   -1.0369 H   0  0  0  0  0  0  0  0  0  0  0  0
   -0.1293    1.7133    1.0298 C   0  0  0  0  0  0  0  0  0  0  0  0
   -0.3984    1.2478    1.9848 H   0  0  0  0  0  0  0  0  0  0  0  0
    0.8711    2.1437    1.1482 H   0  0  0  0  0  0  0  0  0  0  0  0
   -1.0989    2.8187    0.6944 C   0  0  0  0  0  0  0  0  0  0  0  0
   -0.9430    3.8281   -0.2301 N   0  0  0  0  0  0  0  0  0  0  0  0
   -0.1217    3.9979   -0.8074 H   0  0  0  0  0  0  0  0  0  0  0  0
   -2.0718    4.6257   -0.1955 C   0  0  0  0  0  0  0  0  0  0  0  0
   -2.2362    5.5038   -0.8138 H   0  0  0  0  0  0  0  0  0  0  0  0
   -2.9207    4.1663    0.6922 N   0  0  0  0  0  0  0  0  0  0  0  0
   -2.3180    3.0554    1.2719 C   0  0  0  0  0  0  0  0  0  0  0  0
   -2.7577    2.4546    2.0626 H   0  0  0  0  0  0  0  0  0  0  0  0
    1.0874   -0.3158    0.1005 C   0  0  0  0  0  0  0  0  0  0  0  0
    1.7090   -0.3657    1.1562 O   0  0  0  0  0  0  0  0  0  0  0  0
    1.6824   -0.8533   -1.0281 N   0  0  0  0  0  0  0  0  0  0  0  0
    1.1120   -0.8815   -1.8672 H   0  0  0  0  0  0  0  0  0  0  0  0
    2.8489   -1.7259   -0.9583 C   0  0  0  0  0  0  0  0  0  0  0  0
    2.6278   -2.6115   -0.3531 H   0  0  0  0  0  0  0  0  0  0  0  0
    3.1367   -2.0535   -1.9617 H   0  0  0  0  0  0  0  0  0  0  0  0
    3.6982   -1.1978   -0.5123 H   0  0  0  0  0  0  0  0  0  0  0  0
  1  2  1  0  0  0  0
  2  3  1  0  0  0  0
  2  4  1  0  0  0  0
  2  5  1  0  0  0  0
  5  6  2  0  0  0  0
  5  7  1  0  0  0  0
  7  8  1  0  0  0  0
  7  9  1  0  0  0  0
  9 10  1  0  0  0  0
  9 11  1  0  0  0  0
  9 22  1  0  0  0  0
 11 12  1  0  0  0  0
 11 13  1  0  0  0  0
 11 14  1  0  0  0  0
 14 15  1  0  0  0  0
 14 20  2  0  0  0  0
 15 16  1  0  0  0  0
 15 17  1  0  0  0  0
 17 18  1  0  0  0  0
 17 19  2  0  0  0  0
 19 20  1  0  0  0  0
 20 21  1  0  0  0  0
 22 23  2  0  0  0  0
 22 24  1  0  0  0  0
 24 25  1  0  0  0  0
 24 26  1  0  0  0  0
 26 27  1  0  0  0  0
 26 28  1  0  0  0  0
 26 29  1  0  0  0  0
M  END
$$$$

  -OEChem-01062216083D

 29 29  0     1  0  0  0  0  0999 V2000
   -3.5934   -2.2947    1.1965 H   0  0  0  0  0  0  0  0  0  0  0  0
   -3.4062   -1.3931    0.6061 C   0  0  0  0  0  0  0  0  0  0  0  0
   -3.9051   -0.5488    1.0882 H   0  0  0  0  0  0  0  0  0  0  0  0
   -3.8237   -1.5340   -0.3937 H   0  0  0  0  0  0  0  0  0  0  0  0
   -1.9146   -1.1307    0.5135 C   0  0  0  0  0  0  0  0  0  0  0  0
   -1.1432   -1.9558    0.9626 O   0  0  0  0  0  0  0  0  0  0  0  0
   -1.4805    0.0161   -0.1264 N   0  0  0  0  0  0  0  0  0  0  0  0
   -2.2288    0.6427   -0.4098 H   0  0  0  0  0  0  0  0  0  0  0  0
   -0.1268    0.6156   -0.0933 C   0  0  1  0  0  0  0  0  0  0  0  0
    0.0337    1.1228   -1.0488 H   0  0  0  0  0  0  0  0  0  0  0  0
   -0.1311    1.6805    1.0205 C   0  0  0  0  0  0  0  0  0  0  0  0
   -0.4073    1.2123    1.9723 H   0  0  0  0  0  0  0  0  0  0  0  0
    0.8725    2.1016    1.1444 H   0  0  0  0  0  0  0  0  0  0  0  0
   -1.0937    2.7930    0.6886 C   0  0  0  0  0  0  0  0  0  0  0  0
   -0.9322    3.8060   -0.2311 N   0  0  0  0  0  0  0  0  0  0  0  0
   -0.1117    3.9718   -0.8106 H   0  0  0  0  0  0  0  0  0  0  0  0
   -2.0567    4.6093   -0.1928 C   0  0  0  0  0  0  0  0  0  0  0  0
   -2.2171    5.4898   -0.8085 H   0  0  0  0  0  0  0  0  0  0  0  0
   -2.9070    4.1519    0.6948 N   0  0  0  0  0  0  0  0  0  0  0  0
   -2.3107    3.0347    1.2688 C   0  0  0  0  0  0  0  0  0  0  0  0
   -2.7532    2.4328    2.0571 H   0  0  0  0  0  0  0  0  0  0  0  0
    1.0883   -0.3338    0.0923 C   0  0  0  0  0  0  0  0  0  0  0  0
    1.5714   -0.5321    1.2015 O   0  0  0  0  0  0  0  0  0  0  0  0
    1.8817   -0.6187   -1.0070 N   0  0  0  0  0  0  0  0  0  0  0  0
    1.4555   -0.4989   -1.9203 H   0  0  0  0  0  0  0  0  0  0  0  0
    3.1048   -1.4080   -0.9130 C   0  0  0  0  0  0  0  0  0  0  0  0
    2.8908   -2.3962   -0.4920 H   0  0  0  0  0  0  0  0  0  0  0  0
    3.5467   -1.5417   -1.9048 H   0  0  0  0  0  0  0  0  0  0  0  0
    3.8382   -0.9046   -0.2744 H   0  0  0  0  0  0  0  0  0  0  0  0
  1  2  1  0  0  0  0
  2  3  1  0  0  0  0
  2  4  1  0  0  0  0
  2  5  1  0  0  0  0
  5  6  2  0  0  0  0
  5  7  1  0  0  0  0
  7  8  1  0  0  0  0
  7  9  1  0  0  0  0
  9 10  1  0  0  0  0
  9 11  1  0  0  0  0
  9 22  1  0  0  0  0
 11 12  1  0  0  0  0
 11 13  1  0  0  0  0
 11 14  1  0  0  0  0
 14 15  1  0  0  0  0
 14 20  2  0  0  0  0
 15 16  1  0  0  0  0
 15 17  1  0  0  0  0
 17 18  1  0  0  0  0
 17 19  2  0  0  0  0
 19 20  1  0  0  0  0
 20 21  1  0  0  0  0
 22 23  2  0  0  0  0
 22 24  1  0  0  0  0
 24 25  1  0  0  0  0
 24 26  1  0  0  0  0
 26 27  1  0  0  0  0
 26 28  1  0  0  0  0
 26 29  1  0  0  0  0
M  END
$$$$

  -OEChem-01062216083D

 29 29  0     1  0  0  0  0  0999 V2000
   -3.6381   -2.2568    1.2130 H   0  0  0  0  0  0  0  0  0  0  0  0
   -3.4353   -1.3560    0.6264 C   0  0  0  0  0  0  0  0  0  0  0  0
   -3.8880   -0.4997    1.1323 H   0  0  0  0  0  0  0  0  0  0  0  0
   -3.8877   -1.4695   -0.3617 H   0  0  0  0  0  0  0  0  0  0  0  0
   -1.9387   -1.1467    0.4908 C   0  0  0  0  0  0  0  0  0  0  0  0
   -1.1868   -2.0142    0.8887 O   0  0  0  0  0  0  0  0  0  0  0  0
   -1.4873   -0.0078   -0.1503 N   0  0  0  0  0  0  0  0  0  0  0  0
   -2.2298    0.6352   -0.4111 H   0  0  0  0  0  0  0  0  0  0  0  0
   -0.1296    0.5831   -0.1169 C   0  0  1  0  0  0  0  0  0  0  0  0
    0.0277    1.0915   -1.0720 H   0  0  0  0  0  0  0  0  0  0  0  0
   -0.1286    1.6418    1.0021 C   0  0  0  0  0  0  0  0  0  0  0  0
   -0.4066    1.1696    1.9515 H   0  0  0  0  0  0  0  0  0  0  0  0
    0.8775    2.0560    1.1280 H   0  0  0  0  0  0  0  0  0  0  0  0
   -1.0852    2.7622    0.6793 C   0  0  0  0  0  0  0  0  0  0  0  0
   -0.9223    3.7820   -0.2328 N   0  0  0  0  0  0  0  0  0  0  0  0
   -0.1040    3.9487   -0.8149 H   0  0  0  0  0  0  0  0  0  0  0  0
   -2.0429    4.5906   -0.1837 C   0  0  0  0  0  0  0  0  0  0  0  0
   -2.2015    5.4773   -0.7911 H   0  0  0  0  0  0  0  0  0  0  0  0
   -2.8921    4.1299    0.7029 N   0  0  0  0  0  0  0  0  0  0  0  0
   -2.2993    3.0051    1.2652 C   0  0  0  0  0  0  0  0  0  0  0  0
   -2.7421    2.3983    2.0497 H   0  0  0  0  0  0  0  0  0  0  0  0
    1.0949   -0.3531    0.0767 C   0  0  0  0  0  0  0  0  0  0  0  0
    1.4502   -0.6997    1.1971 O   0  0  0  0  0  0  0  0  0  0  0  0
    2.0601   -0.3891   -0.9173 N   0  0  0  0  0  0  0  0  0  0  0  0
    1.7697   -0.1158   -1.8505 H   0  0  0  0  0  0  0  0  0  0  0  0
    3.3309   -1.0900   -0.7657 C   0  0  0  0  0  0  0  0  0  0  0  0
    3.1607   -2.1453   -0.5268 H   0  0  0  0  0  0  0  0  0  0  0  0
    3.9073   -1.0338   -1.6940 H   0  0  0  0  0  0  0  0  0  0  0  0
    3.9246   -0.6388    0.0363 H   0  0  0  0  0  0  0  0  0  0  0  0
  1  2  1  0  0  0  0
  2  3  1  0  0  0  0
  2  4  1  0  0  0  0
  2  5  1  0  0  0  0
  5  6  2  0  0  0  0
  5  7  1  0  0  0  0
  7  8  1  0  0  0  0
  7  9  1  0  0  0  0
  9 10  1  0  0  0  0
  9 11  1  0  0  0  0
  9 22  1  0  0  0  0
 11 12  1  0  0  0  0
 11 13  1  0  0  0  0
 11 14  1  0  0  0  0
 14 15  1  0  0  0  0
 14 20  2  0  0  0  0
 15 16  1  0  0  0  0
 15 17  1  0  0  0  0
 17 18  1  0  0  0  0
 17 19  2  0  0  0  0
 19 20  1  0  0  0  0
 20 21  1  0  0  0  0
 22 23  2  0  0  0  0
 22 24  1  0  0  0  0
 24 25  1  0  0  0  0
 24 26  1  0  0  0  0
 26 27  1  0  0  0  0
 26 28  1  0  0  0  0
 26 29  1  0  0  0  0
M  END
$$$$

  -OEChem-01062216083D

 29 29  0     1  0  0  0  0  0999 V2000
   -3.6812   -2.2367    1.2038 H   0  0  0  0  0  0  0  0  0  0  0  0
   -3.4608   -1.3225    0.6453 C   0  0  0  0  0  0  0  0  0  0  0  0
   -3.8707   -0.4708    1.1934 H   0  0  0  0  0  0  0  0  0  0  0  0
   -3.9404   -1.3840   -0.3344 H   0  0  0  0  0  0  0  0  0  0  0  0
   -1.9612   -1.1609    0.4794 C   0  0  0  0  0  0  0  0  0  0  0  0
   -1.2356   -2.0656    0.8390 O   0  0  0  0  0  0  0  0  0  0  0  0
   -1.4894   -0.0318   -0.1651 N   0  0  0  0  0  0  0  0  0  0  0  0
   -2.2248    0.6234   -0.4154 H   0  0  0  0  0  0  0  0  0  0  0  0
   -0.1269    0.5515   -0.1367 C   0  0  1  0  0  0  0  0  0  0  0  0
    0.0239    1.0572   -1.0942 H   0  0  0  0  0  0  0  0  0  0  0  0
   -0.1203    1.6066    0.9849 C   0  0  0  0  0  0  0  0  0  0  0  0
   -0.3974    1.1315    1.9331 H   0  0  0  0  0  0  0  0  0  0  0  0
    0.8871    2.0178    1.1106 H   0  0  0  0  0  0  0  0  0  0  0  0
   -1.0732    2.7320    0.6688 C   0  0  0  0  0  0  0  0  0  0  0  0
   -0.9107    3.7555   -0.2392 N   0  0  0  0  0  0  0  0  0  0  0  0
   -0.0936    3.9241   -0.8223 H   0  0  0  0  0  0  0  0  0  0  0  0
   -2.0296    4.5661   -0.1836 C   0  0  0  0  0  0  0  0  0  0  0  0
   -2.1878    5.4555   -0.7868 H   0  0  0  0  0  0  0  0  0  0  0  0
   -2.8771    4.1035    0.7037 N   0  0  0  0  0  0  0  0  0  0  0  0
   -2.2853    2.9748    1.2589 C   0  0  0  0  0  0  0  0  0  0  0  0
   -2.7274    2.3657    2.0419 H   0  0  0  0  0  0  0  0  0  0  0  0
    1.1129   -0.3634    0.0632 C   0  0  0  0  0  0  0  0  0  0  0  0
    1.3559   -0.8705    1.1507 O   0  0  0  0  0  0  0  0  0  0  0  0
    2.2092   -0.1614   -0.7616 N   0  0  0  0  0  0  0  0  0  0  0  0
    2.0386    0.2819   -1.6581 H   0  0  0  0  0  0  0  0  0  0  0  0
    3.5035   -0.7991   -0.5402 C   0  0  0  0  0  0  0  0  0  0  0  0
    3.3931   -1.8882   -0.5054 H   0  0  0  0  0  0  0  0  0  0  0  0
    4.1936   -0.5476   -1.3511 H   0  0  0  0  0  0  0  0  0  0  0  0
    3.9429   -0.4599    0.4039 H   0  0  0  0  0  0  0  0  0  0  0  0
  1  2  1  0  0  0  0
  2  3  1  0  0  0  0
  2  4  1  0  0  0  0
  2  5  1  0  0  0  0
  5  6  2  0  0  0  0
  5  7  1  0  0  0  0
  7  8  1  0  0  0  0
  7  9  1  0  0  0  0
  9 10  1  0  0  0  0
  9 11  1  0  0  0  0
  9 22  1  0  0  0  0
 11 12  1  0  0  0  0
 11 13  1  0  0  0  0
 11 14  1  0  0  0  0
 14 15  1  0  0  0  0
 14 20  2  0  0  0  0
 15 16  1  0  0  0  0
 15 17  1  0  0  0  0
 17 18  1  0  0  0  0
 17 19  2  0  0  0  0
 19 20  1  0  0  0  0
 20 21  1  0  0  0  0
 22 23  2  0  0  0  0
 22 24  1  0  0  0  0
 24 25  1  0  0  0  0
 24 26  1  0  0  0  0
 26 27  1  0  0  0  0
 26 28  1  0  0  0  0
 26 29  1  0  0  0  0
M  END
$$$$

  -OEChem-01062216083D

 29 29  0     1  0  0  0  0  0999 V2000
   -3.3051   -2.6187    1.1103 H   0  0  0  0  0  0  0  0  0  0  0  0
   -3.1123   -1.8306    0.3768 C   0  0  0  0  0  0  0  0  0  0  0  0
   -4.0214   -1.2390    0.2461 H   0  0  0  0  0  0  0  0  0  0  0  0
   -2.8446   -2.2962   -0.5744 H   0  0  0  0  0  0  0  0  0  0  0  0
   -1.9786   -0.9436    0.8550 C   0  0  0  0  0  0  0  0  0  0  0  0
   -1.5819   -1.0435    2.0040 O   0  0  0  0  0  0  0  0  0  0  0  0
   -1.5868    0.1389    0.0897 N   0  0  0  0  0  0  0  0  0  0  0  0
   -2.1272    0.2395   -0.7629 H   0  0  0  0  0  0  0  0  0  0  0  0
   -0.2071    0.6779    0.0245 C   0  0  1  0  0  0  0  0  0  0  0  0
   -0.0861    1.1191   -0.9686 H   0  0  0  0  0  0  0  0  0  0  0  0
   -0.0985    1.7978    1.0745 C   0  0  0  0  0  0  0  0  0  0  0  0
   -0.3494    1.3924    2.0616 H   0  0  0  0  0  0  0  0  0  0  0  0
    0.9277    2.1740    1.1295 H   0  0  0  0  0  0  0  0  0  0  0  0
   -1.0202    2.9443    0.7409 C   0  0  0  0  0  0  0  0  0  0  0  0
   -0.8688    3.9071   -0.2340 N   0  0  0  0  0  0  0  0  0  0  0  0
   -0.0823    4.0080   -0.8707 H   0  0  0  0  0  0  0  0  0  0  0  0
   -1.9540    4.7615   -0.1706 C   0  0  0  0  0  0  0  0  0  0  0  0
   -2.1095    5.6228   -0.8141 H   0  0  0  0  0  0  0  0  0  0  0  0
   -2.7723    4.3837    0.7805 N   0  0  0  0  0  0  0  0  0  0  0  0
   -2.2002    3.2567    1.3637 C   0  0  0  0  0  0  0  0  0  0  0  0
   -2.6309    2.7003    2.1910 H   0  0  0  0  0  0  0  0  0  0  0  0
    1.0095   -0.2739    0.2159 C   0  0  0  0  0  0  0  0  0  0  0  0
    0.9241   -1.4200    0.6299 O   0  0  0  0  0  0  0  0  0  0  0  0
    2.1892    0.0524   -0.4355 N   0  0  0  0  0  0  0  0  0  0  0  0
    2.2602    0.9759   -0.8498 H   0  0  0  0  0  0  0  0  0  0  0  0
    3.3525   -0.8281   -0.4895 C   0  0  0  0  0  0  0  0  0  0  0  0
    3.1110   -1.7512   -1.0274 H   0  0  0  0  0  0  0  0  0  0  0  0
    4.1789   -0.3326   -1.0081 H   0  0  0  0  0  0  0  0  0  0  0  0
    3.6850   -1.0870    0.5214 H   0  0  0  0  0  0  0  0  0  0  0  0
  1  2  1  0  0  0  0
  2  3  1  0  0  0  0
  2  4  1  0  0  0  0
  2  5  1  0  0  0  0
  5  6  2  0  0  0  0
  5  7  1  0  0  0  0
  7  8  1  0  0  0  0
  7  9  1  0  0  0  0
  9 10  1  0  0  0  0
  9 11  1  0  0  0  0
  9 22  1  0  0  0  0
 11 12  1  0  0  0  0
 11 13  1  0  0  0  0
 11 14  1  0  0  0  0
 14 15  1  0  0  0  0
 14 20  2  0  0  0  0
 15 16  1  0  0  0  0
 15 17  1  0  0  0  0
 17 18  1  0  0  0  0
 17 19  2  0  0  0  0
 19 20  1  0  0  0  0
 20 21  1  0  0  0  0
 22 23  2  0  0  0  0
 22 24  1  0  0  0  0
 24 25  1  0  0  0  0
 24 26  1  0  0  0  0
 26 27  1  0  0  0  0
 26 28  1  0  0  0  0
 26 29  1  0  0  0  0
M  END
$$$$

  -OEChem-01062216083D

 29 29  0     1  0  0  0  0  0999 V2000
   -3.2690   -2.6305    1.1126 H   0  0  0  0  0  0  0  0  0  0  0  0
   -3.1091   -1.8241    0.3914 C   0  0  0  0  0  0  0  0  0  0  0  0
   -4.0244   -1.2329    0.3125 H   0  0  0  0  0  0  0  0  0  0  0  0
   -2.8792   -2.2651   -0.5813 H   0  0  0  0  0  0  0  0  0  0  0  0
   -1.9590   -0.9449    0.8437 C   0  0  0  0  0  0  0  0  0  0  0  0
   -1.5021   -1.0764    1.9683 O   0  0  0  0  0  0  0  0  0  0  0  0
   -1.5830    0.1449    0.0804 N   0  0  0  0  0  0  0  0  0  0  0  0
   -2.1192    0.2417   -0.7753 H   0  0  0  0  0  0  0  0  0  0  0  0
   -0.2049    0.6875    0.0305 C   0  0  1  0  0  0  0  0  0  0  0  0
   -0.0648    1.1277   -0.9606 H   0  0  0  0  0  0  0  0  0  0  0  0
   -0.1123    1.8081    1.0831 C   0  0  0  0  0  0  0  0  0  0  0  0
   -0.3738    1.4023    2.0671 H   0  0  0  0  0  0  0  0  0  0  0  0
    0.9099    2.1916    1.1518 H   0  0  0  0  0  0  0  0  0  0  0  0
   -1.0342    2.9507    0.7387 C   0  0  0  0  0  0  0  0  0  0  0  0
   -0.8759    3.9145   -0.2343 N   0  0  0  0  0  0  0  0  0  0  0  0
   -0.0888    4.0115   -0.8713 H   0  0  0  0  0  0  0  0  0  0  0  0
   -1.9637    4.7666   -0.1806 C   0  0  0  0  0  0  0  0  0  0  0  0
   -2.1160    5.6267   -0.8265 H   0  0  0  0  0  0  0  0  0  0  0  0
   -2.7886    4.3883    0.7648 N   0  0  0  0  0  0  0  0  0  0  0  0
   -2.2196    3.2618    1.3517 C   0  0  0  0  0  0  0  0  0  0  0  0
   -2.6554    2.7046    2.1759 H   0  0  0  0  0  0  0  0  0  0  0  0
    0.9935   -0.2849    0.2313 C   0  0  0  0  0  0  0  0  0  0  0  0
    0.8527   -1.5000    0.2737 O   0  0  0  0  0  0  0  0  0  0  0  0
    2.2586    0.1608   -0.1212 N   0  0  0  0  0  0  0  0  0  0  0  0
    2.3889    1.1602   -0.2390 H   0  0  0  0  0  0  0  0  0  0  0  0
    3.4311   -0.7066   -0.1808 C   0  0  0  0  0  0  0  0  0  0  0  0
    3.3113   -1.4606   -0.9660 H   0  0  0  0  0  0  0  0  0  0  0  0
    4.3268   -0.1180   -0.4007 H   0  0  0  0  0  0  0  0  0  0  0  0
    3.5794   -1.2164    0.7772 H   0  0  0  0  0  0  0  0  0  0  0  0
  1  2  1  0  0  0  0
  2  3  1  0  0  0  0
  2  4  1  0  0  0  0
  2  5  1  0  0  0  0
  5  6  2  0  0  0  0
  5  7  1  0  0  0  0
  7  8  1  0  0  0  0
  7  9  1  0  0  0  0
  9 10  1  0  0  0  0
  9 11  1  0  0  0  0
  9 22  1  0  0  0  0
 11 12  1  0  0  0  0
 11 13  1  0  0  0  0
 11 14  1  0  0  0  0
 14 15  1  0  0  0  0
 14 20  2  0  0  0  0
 15 16  1  0  0  0  0
 15 17  1  0  0  0  0
 17 18  1  0  0  0  0
 17 19  2  0  0  0  0
 19 20  1  0  0  0  0
 20 21  1  0  0  0  0
 22 23  2  0  0  0  0
 22 24  1  0  0  0  0
 24 25  1  0  0  0  0
 24 26  1  0  0  0  0
 26 27  1  0  0  0  0
 26 28  1  0  0  0  0
 26 29  1  0  0  0  0
M  END
$$$$

  -OEChem-01062216083D

 29 29  0     1  0  0  0  0  0999 V2000
   -3.1923   -2.6762    1.0449 H   0  0  0  0  0  0  0  0  0  0  0  0
   -3.0967   -1.8045    0.3916 C   0  0  0  0  0  0  0  0  0  0  0  0
   -3.9913   -1.1858    0.4937 H   0  0  0  0  0  0  0  0  0  0  0  0
   -3.0123   -2.1489   -0.6418 H   0  0  0  0  0  0  0  0  0  0  0  0
   -1.8656   -1.0037    0.7699 C   0  0  0  0  0  0  0  0  0  0  0  0
   -1.2259   -1.3122    1.7637 O   0  0  0  0  0  0  0  0  0  0  0  0
   -1.5412    0.1316    0.0478 N   0  0  0  0  0  0  0  0  0  0  0  0
   -2.1195    0.2867   -0.7714 H   0  0  0  0  0  0  0  0  0  0  0  0
   -0.1858    0.7252    0.0200 C   0  0  1  0  0  0  0  0  0  0  0  0
   -0.1366    1.3982   -0.8404 H   0  0  0  0  0  0  0  0  0  0  0  0
    0.0286    1.5689    1.2943 C   0  0  0  0  0  0  0  0  0  0  0  0
   -0.1109    0.9462    2.1841 H   0  0  0  0  0  0  0  0  0  0  0  0
    1.0491    1.9591    1.3321 H   0  0  0  0  0  0  0  0  0  0  0  0
   -0.9271    2.7338    1.3275 C   0  0  0  0  0  0  0  0  0  0  0  0
   -0.8809    3.9013    0.5960 N   0  0  0  0  0  0  0  0  0  0  0  0
   -0.1771    4.1605   -0.0913 H   0  0  0  0  0  0  0  0  0  0  0  0
   -1.9567    4.6868    0.9671 C   0  0  0  0  0  0  0  0  0  0  0  0
   -2.1849    5.6673    0.5588 H   0  0  0  0  0  0  0  0  0  0  0  0
   -2.6661    4.0780    1.8858 N   0  0  0  0  0  0  0  0  0  0  0  0
   -2.0333    2.8620    2.1257 C   0  0  0  0  0  0  0  0  0  0  0  0
   -2.3702    2.1182    2.8420 H   0  0  0  0  0  0  0  0  0  0  0  0
    0.9745   -0.2898   -0.1745 C   0  0  0  0  0  0  0  0  0  0  0  0
    0.7587   -1.4035   -0.6388 O   0  0  0  0  0  0  0  0  0  0  0  0
    2.2851    0.1606   -0.2113 N   0  0  0  0  0  0  0  0  0  0  0  0
    2.4715    1.0934    0.1417 H   0  0  0  0  0  0  0  0  0  0  0  0
    3.4171   -0.6998   -0.5384 C   0  0  0  0  0  0  0  0  0  0  0  0
    3.3290   -1.0764   -1.5630 H   0  0  0  0  0  0  0  0  0  0  0  0
    4.3541   -0.1409   -0.4560 H   0  0  0  0  0  0  0  0  0  0  0  0
    3.4612   -1.5521    0.1481 H   0  0  0  0  0  0  0  0  0  0  0  0
  1  2  1  0  0  0  0
  2  3  1  0  0  0  0
  2  4  1  0  0  0  0
  2  5  1  0  0  0  0
  5  6  2  0  0  0  0
  5  7  1  0  0  0  0
  7  8  1  0  0  0  0
  7  9  1  0  0  0  0
  9 10  1  0  0  0  0
  9 11  1  0  0  0  0
  9 22  1  0  0  0  0
 11 12  1  0  0  0  0
 11 13  1  0  0  0  0
 11 14  1  0  0  0  0
 14 15  1  0  0  0  0
 14 20  2  0  0  0  0
 15 16  1  0  0  0  0
 15 17  1  0  0  0  0
 17 18  1  0  0  0  0
 17 19  2  0  0  0  0
 19 20  1  0  0  0  0
 20 21  1  0  0  0  0
 22 23  2  0  0  0  0
 22 24  1  0  0  0  0
 24 25  1  0  0  0  0
 24 26  1  0  0  0  0
 26 27  1  0  0  0  0
 26 28  1  0  0  0  0
 26 29  1  0  0  0  0
M  END
$$$$

  -OEChem-01062216083D

 29 29  0     1  0  0  0  0  0999 V2000
   -3.1578   -2.6717    1.0459 H   0  0  0  0  0  0  0  0  0  0  0  0
   -3.0727   -1.7951    0.3977 C   0  0  0  0  0  0  0  0  0  0  0  0
   -3.9619   -1.1733    0.5249 H   0  0  0  0  0  0  0  0  0  0  0  0
   -3.0134   -2.1310   -0.6403 H   0  0  0  0  0  0  0  0  0  0  0  0
   -1.8298   -1.0024    0.7538 C   0  0  0  0  0  0  0  0  0  0  0  0
   -1.1512   -1.3383    1.7128 O   0  0  0  0  0  0  0  0  0  0  0  0
   -1.5237    0.1445    0.0429 N   0  0  0  0  0  0  0  0  0  0  0  0
   -2.1155    0.3143   -0.7640 H   0  0  0  0  0  0  0  0  0  0  0  0
   -0.1762    0.7542    0.0189 C   0  0  1  0  0  0  0  0  0  0  0  0
   -0.1270    1.4310   -0.8386 H   0  0  0  0  0  0  0  0  0  0  0  0
    0.0223    1.5964    1.2973 C   0  0  0  0  0  0  0  0  0  0  0  0
   -0.1105    0.9686    2.1847 H   0  0  0  0  0  0  0  0  0  0  0  0
    1.0346    2.0065    1.3378 H   0  0  0  0  0  0  0  0  0  0  0  0
   -0.9496    2.7476    1.3296 C   0  0  0  0  0  0  0  0  0  0  0  0
   -0.9131    3.9162    0.5996 N   0  0  0  0  0  0  0  0  0  0  0  0
   -0.2094    4.1827   -0.0851 H   0  0  0  0  0  0  0  0  0  0  0  0
   -1.9986    4.6896    0.9673 C   0  0  0  0  0  0  0  0  0  0  0  0
   -2.2349    5.6682    0.5594 H   0  0  0  0  0  0  0  0  0  0  0  0
   -2.7050    4.0720    1.8827 N   0  0  0  0  0  0  0  0  0  0  0  0
   -2.0599    2.8629    2.1237 C   0  0  0  0  0  0  0  0  0  0  0  0
   -2.3906    2.1147    2.8382 H   0  0  0  0  0  0  0  0  0  0  0  0
    0.9745   -0.2690   -0.1891 C   0  0  0  0  0  0  0  0  0  0  0  0
    0.7733   -1.2795   -0.8541 O   0  0  0  0  0  0  0  0  0  0  0  0
    2.2926    0.0726    0.0694 N   0  0  0  0  0  0  0  0  0  0  0  0
    2.4578    0.8960    0.6386 H   0  0  0  0  0  0  0  0  0  0  0  0
    3.4119   -0.8255   -0.1919 C   0  0  0  0  0  0  0  0  0  0  0  0
    3.4821   -1.0511   -1.2613 H   0  0  0  0  0  0  0  0  0  0  0  0
    4.3509   -0.3615    0.1246 H   0  0  0  0  0  0  0  0  0  0  0  0
    3.2863   -1.7641    0.3586 H   0  0  0  0  0  0  0  0  0  0  0  0
  1  2  1  0  0  0  0
  2  3  1  0  0  0  0
  2  4  1  0  0  0  0
  2  5  1  0  0  0  0
  5  6  2  0  0  0  0
  5  7  1  0  0  0  0
  7  8  1  0  0  0  0
  7  9  1  0  0  0  0
  9 10  1  0  0  0  0
  9 11  1  0  0  0  0
  9 22  1  0  0  0  0
 11 12  1  0  0  0  0
 11 13  1  0  0  0  0
 11 14  1  0  0  0  0
 14 15  1  0  0  0  0
 14 20  2  0  0  0  0
 15 16  1  0  0  0  0
 15 17  1  0  0  0  0
 17 18  1  0  0  0  0
 17 19  2  0  0  0  0
 19 20  1  0  0  0  0
 20 21  1  0  0  0  0
 22 23  2  0  0  0  0
 22 24  1  0  0  0  0
 24 25  1  0  0  0  0
 24 26  1  0  0  0  0
 26 27  1  0  0  0  0
 26 28  1  0  0  0  0
 26 29  1  0  0  0  0
M  END
$$$$

  -OEChem-01062216083D

 29 29  0     1  0  0  0  0  0999 V2000
   -3.1226   -2.6822    1.0276 H   0  0  0  0  0  0  0  0  0  0  0  0
   -3.0563   -1.7872    0.4030 C   0  0  0  0  0  0  0  0  0  0  0  0
   -3.9394   -1.1682    0.5774 H   0  0  0  0  0  0  0  0  0  0  0  0
   -3.0322   -2.0924   -0.6458 H   0  0  0  0  0  0  0  0  0  0  0  0
   -1.8011   -1.0062    0.7416 C   0  0  0  0  0  0  0  0  0  0  0  0
   -1.0961   -1.3625    1.6739 O   0  0  0  0  0  0  0  0  0  0  0  0
   -1.5064    0.1488    0.0402 N   0  0  0  0  0  0  0  0  0  0  0  0
   -2.1090    0.3335   -0.7554 H   0  0  0  0  0  0  0  0  0  0  0  0
   -0.1670    0.7735    0.0228 C   0  0  1  0  0  0  0  0  0  0  0  0
   -0.1197    1.4513   -0.8341 H   0  0  0  0  0  0  0  0  0  0  0  0
    0.0187    1.6185    1.3009 C   0  0  0  0  0  0  0  0  0  0  0  0
   -0.1102    0.9892    2.1880 H   0  0  0  0  0  0  0  0  0  0  0  0
    1.0267    2.0406    1.3400 H   0  0  0  0  0  0  0  0  0  0  0  0
   -0.9649    2.7595    1.3298 C   0  0  0  0  0  0  0  0  0  0  0  0
   -0.9340    3.9264    0.5973 N   0  0  0  0  0  0  0  0  0  0  0  0
   -0.2281    4.1967   -0.0842 H   0  0  0  0  0  0  0  0  0  0  0  0
   -2.0277    4.6920    0.9570 C   0  0  0  0  0  0  0  0  0  0  0  0
   -2.2695    5.6676    0.5450 H   0  0  0  0  0  0  0  0  0  0  0  0
   -2.7341    4.0708    1.8701 N   0  0  0  0  0  0  0  0  0  0  0  0
   -2.0803    2.8678    2.1178 C   0  0  0  0  0  0  0  0  0  0  0  0
   -2.4095    2.1193    2.8326 H   0  0  0  0  0  0  0  0  0  0  0  0
    0.9813   -0.2497   -0.1910 C   0  0  0  0  0  0  0  0  0  0  0  0
    0.8341   -1.1356   -1.0260 O   0  0  0  0  0  0  0  0  0  0  0  0
    2.2478   -0.0560    0.3372 N   0  0  0  0  0  0  0  0  0  0  0  0
    2.3321    0.6151    1.0937 H   0  0  0  0  0  0  0  0  0  0  0  0
    3.3421   -0.9970    0.1264 C   0  0  0  0  0  0  0  0  0  0  0  0
    3.5740   -1.0838   -0.9404 H   0  0  0  0  0  0  0  0  0  0  0  0
    4.2415   -0.6546    0.6471 H   0  0  0  0  0  0  0  0  0  0  0  0
    3.0741   -1.9870    0.5106 H   0  0  0  0  0  0  0  0  0  0  0  0
  1  2  1  0  0  0  0
  2  3  1  0  0  0  0
  2  4  1  0  0  0  0
  2  5  1  0  0  0  0
  5  6  2  0  0  0  0
  5  7  1  0  0  0  0
  7  8  1  0  0  0  0
  7  9  1  0  0  0  0
  9 10  1  0  0  0  0
  9 11  1  0  0  0  0
  9 22  1  0  0  0  0
 11 12  1  0  0  0  0
 11 13  1  0  0  0  0
 11 14  1  0  0  0  0
 14 15  1  0  0  0  0
 14 20  2  0  0  0  0
 15 16  1  0  0  0  0
 15 17  1  0  0  0  0
 17 18  1  0  0  0  0
 17 19  2  0  0  0  0
 19 20  1  0  0  0  0
 20 21  1  0  0  0  0
 22 23  2  0  0  0  0
 22 24  1  0  0  0  0
 24 25  1  0  0  0  0
 24 26  1  0  0  0  0
 26 27  1  0  0  0  0
 26 28  1  0  0  0  0
 26 29  1  0  0  0  0
M  END
$$$$

  -OEChem-01062216083D

 29 29  0     1  0  0  0  0  0999 V2000
   -3.1076   -2.6845    1.0213 H   0  0  0  0  0  0  0  0  0  0  0  0
   -3.0503   -1.7816    0.4069 C   0  0  0  0  0  0  0  0  0  0  0  0
   -3.9276   -1.1617    0.6066 H   0  0  0  0  0  0  0  0  0  0  0  0
   -3.0484   -2.0735   -0.6461 H   0  0  0  0  0  0  0  0  0  0  0  0
   -1.7857   -1.0099    0.7311 C   0  0  0  0  0  0  0  0  0  0  0  0
   -1.0631   -1.3828    1.6433 O   0  0  0  0  0  0  0  0  0  0  0  0
   -1.4941    0.1488    0.0355 N   0  0  0  0  0  0  0  0  0  0  0  0
   -2.1066    0.3507   -0.7489 H   0  0  0  0  0  0  0  0  0  0  0  0
   -0.1599    0.7830    0.0264 C   0  0  1  0  0  0  0  0  0  0  0  0
   -0.1110    1.4615   -0.8303 H   0  0  0  0  0  0  0  0  0  0  0  0
    0.0179    1.6302    1.3029 C   0  0  0  0  0  0  0  0  0  0  0  0
   -0.1123    1.0018    2.1904 H   0  0  0  0  0  0  0  0  0  0  0  0
    1.0257    2.0538    1.3411 H   0  0  0  0  0  0  0  0  0  0  0  0
   -0.9718    2.7657    1.3273 C   0  0  0  0  0  0  0  0  0  0  0  0
   -0.9431    3.9307    0.5920 N   0  0  0  0  0  0  0  0  0  0  0  0
   -0.2369    4.2005   -0.0894 H   0  0  0  0  0  0  0  0  0  0  0  0
   -2.0401    4.6938    0.9466 C   0  0  0  0  0  0  0  0  0  0  0  0
   -2.2854    5.6666    0.5297 H   0  0  0  0  0  0  0  0  0  0  0  0
   -2.7457    4.0732    1.8610 N   0  0  0  0  0  0  0  0  0  0  0  0
   -2.0878    2.8735    2.1144 C   0  0  0  0  0  0  0  0  0  0  0  0
   -2.4143    2.1270    2.8326 H   0  0  0  0  0  0  0  0  0  0  0  0
    0.9891   -0.2379   -0.1846 C   0  0  0  0  0  0  0  0  0  0  0  0
    0.9351   -0.9805   -1.1584 O   0  0  0  0  0  0  0  0  0  0  0  0
    2.1477   -0.2217    0.5749 N   0  0  0  0  0  0  0  0  0  0  0  0
    2.0999    0.2751    1.4589 H   0  0  0  0  0  0  0  0  0  0  0  0
    3.2134   -1.2008    0.3976 C   0  0  0  0  0  0  0  0  0  0  0  0
    3.6154   -1.1515   -0.6198 H   0  0  0  0  0  0  0  0  0  0  0  0
    4.0290   -1.0022    1.0991 H   0  0  0  0  0  0  0  0  0  0  0  0
    2.8372   -2.2132    0.5793 H   0  0  0  0  0  0  0  0  0  0  0  0
  1  2  1  0  0  0  0
  2  3  1  0  0  0  0
  2  4  1  0  0  0  0
  2  5  1  0  0  0  0
  5  6  2  0  0  0  0
  5  7  1  0  0  0  0
  7  8  1  0  0  0  0
  7  9  1  0  0  0  0
  9 10  1  0  0  0  0
  9 11  1  0  0  0  0
  9 22  1  0  0  0  0
 11 12  1  0  0  0  0
 11 13  1  0  0  0  0
 11 14  1  0  0  0  0
 14 15  1  0  0  0  0
 14 20  2  0  0  0  0
 15 16  1  0  0  0  0
 15 17  1  0  0  0  0
 17 18  1  0  0  0  0
 17 19  2  0  0  0  0
 19 20  1  0  0  0  0
 20 21  1  0  0  0  0
 22 23  2  0  0  0  0
 22 24  1  0  0  0  0
 24 25  1  0  0  0  0
 24 26  1  0  0  0  0
 26 27  1  0  0  0  0
 26 28  1  0  0  0  0
 26 29  1  0  0  0  0
M  END
$$$$

  -OEChem-01062216083D

 29 29  0     1  0  0  0  0  0999 V2000
   -3.1270   -2.6768    1.0203 H   0  0  0  0  0  0  0  0  0  0  0  0
   -3.0689   -1.7658    0.4181 C   0  0  0  0  0  0  0  0  0  0  0  0
   -3.9300   -1.1342    0.6490 H   0  0  0  0  0  0  0  0  0  0  0  0
   -3.0987   -2.0415   -0.6387 H   0  0  0  0  0  0  0  0  0  0  0  0
   -1.7835   -1.0205    0.7221 C   0  0  0  0  0  0  0  0  0  0  0  0
   -1.0470   -1.4160    1.6135 O   0  0  0  0  0  0  0  0  0  0  0  0
   -1.4845    0.1390    0.0315 N   0  0  0  0  0  0  0  0  0  0  0  0
   -2.1129    0.3737   -0.7309 H   0  0  0  0  0  0  0  0  0  0  0  0
   -0.1530    0.7769    0.0312 C   0  0  1  0  0  0  0  0  0  0  0  0
   -0.1026    1.4546   -0.8263 H   0  0  0  0  0  0  0  0  0  0  0  0
    0.0186    1.6268    1.3055 C   0  0  0  0  0  0  0  0  0  0  0  0
   -0.1200    1.0005    2.1934 H   0  0  0  0  0  0  0  0  0  0  0  0
    1.0293    2.0452    1.3471 H   0  0  0  0  0  0  0  0  0  0  0  0
   -0.9717    2.7620    1.3235 C   0  0  0  0  0  0  0  0  0  0  0  0
   -0.9391    3.9250    0.5852 N   0  0  0  0  0  0  0  0  0  0  0  0
   -0.2271    4.1943   -0.0905 H   0  0  0  0  0  0  0  0  0  0  0  0
   -2.0374    4.6895    0.9324 C   0  0  0  0  0  0  0  0  0  0  0  0
   -2.2783    5.6627    0.5140 H   0  0  0  0  0  0  0  0  0  0  0  0
   -2.7495    4.0701    1.8426 N   0  0  0  0  0  0  0  0  0  0  0  0
   -2.0929    2.8714    2.1026 C   0  0  0  0  0  0  0  0  0  0  0  0
   -2.4241    2.1262    2.8196 H   0  0  0  0  0  0  0  0  0  0  0  0
    1.0018   -0.2358   -0.1727 C   0  0  0  0  0  0  0  0  0  0  0  0
    1.0859   -0.8078   -1.2530 O   0  0  0  0  0  0  0  0  0  0  0  0
    2.0044   -0.4166    0.7653 N   0  0  0  0  0  0  0  0  0  0  0  0
    1.7757   -0.1247    1.7113 H   0  0  0  0  0  0  0  0  0  0  0  0
    3.0516   -1.4173    0.6004 C   0  0  0  0  0  0  0  0  0  0  0  0
    3.6209   -1.2303   -0.3162 H   0  0  0  0  0  0  0  0  0  0  0  0
    3.7436   -1.3830    1.4472 H   0  0  0  0  0  0  0  0  0  0  0  0
    2.6162   -2.4207    0.5469 H   0  0  0  0  0  0  0  0  0  0  0  0
  1  2  1  0  0  0  0
  2  3  1  0  0  0  0
  2  4  1  0  0  0  0
  2  5  1  0  0  0  0
  5  6  2  0  0  0  0
  5  7  1  0  0  0  0
  7  8  1  0  0  0  0
  7  9  1  0  0  0  0
  9 10  1  0  0  0  0
  9 11  1  0  0  0  0
  9 22  1  0  0  0  0
 11 12  1  0  0  0  0
 11 13  1  0  0  0  0
 11 14  1  0  0  0  0
 14 15  1  0  0  0  0
 14 20  2  0  0  0  0
 15 16  1  0  0  0  0
 15 17  1  0  0  0  0
 17 18  1  0  0  0  0
 17 19  2  0  0  0  0
 19 20  1  0  0  0  0
 20 21  1  0  0  0  0
 22 23  2  0  0  0  0
 22 24  1  0  0  0  0
 24 25  1  0  0  0  0
 24 26  1  0  0  0  0
 26 27  1  0  0  0  0
 26 28  1  0  0  0  0
 26 29  1  0  0  0  0
M  END
$$$$

  -OEChem-01062216083D

 29 29  0     1  0  0  0  0  0999 V2000
   -3.1869   -2.6493    1.0309 H   0  0  0  0  0  0  0  0  0  0  0  0
   -3.1137   -1.7373    0.4319 C   0  0  0  0  0  0  0  0  0  0  0  0
   -3.9507   -1.0814    0.6833 H   0  0  0  0  0  0  0  0  0  0  0  0
   -3.1740   -2.0061   -0.6254 H   0  0  0  0  0  0  0  0  0  0  0  0
   -1.8010   -1.0316    0.7129 C   0  0  0  0  0  0  0  0  0  0  0  0
   -1.0608   -1.4497    1.5911 O   0  0  0  0  0  0  0  0  0  0  0  0
   -1.4833    0.1234    0.0240 N   0  0  0  0  0  0  0  0  0  0  0  0
   -2.1281    0.3973   -0.7115 H   0  0  0  0  0  0  0  0  0  0  0  0
   -0.1505    0.7579    0.0310 C   0  0  1  0  0  0  0  0  0  0  0  0
   -0.0969    1.4358   -0.8264 H   0  0  0  0  0  0  0  0  0  0  0  0
    0.0201    1.6068    1.3054 C   0  0  0  0  0  0  0  0  0  0  0  0
   -0.1262    0.9822    2.1930 H   0  0  0  0  0  0  0  0  0  0  0  0
    1.0349    2.0153    1.3510 H   0  0  0  0  0  0  0  0  0  0  0  0
   -0.9662    2.7458    1.3195 C   0  0  0  0  0  0  0  0  0  0  0  0
   -0.9252    3.9078    0.5803 N   0  0  0  0  0  0  0  0  0  0  0  0
   -0.2083    4.1732   -0.0919 H   0  0  0  0  0  0  0  0  0  0  0  0
   -2.0224    4.6769    0.9209 C   0  0  0  0  0  0  0  0  0  0  0  0
   -2.2581    5.6502    0.4998 H   0  0  0  0  0  0  0  0  0  0  0  0
   -2.7415    4.0613    1.8284 N   0  0  0  0  0  0  0  0  0  0  0  0
   -2.0900    2.8612    2.0940 C   0  0  0  0  0  0  0  0  0  0  0  0
   -2.4277    2.1189    2.8111 H   0  0  0  0  0  0  0  0  0  0  0  0
    1.0116   -0.2474   -0.1595 C   0  0  0  0  0  0  0  0  0  0  0  0
    1.2782   -0.6181   -1.2960 O   0  0  0  0  0  0  0  0  0  0  0  0
    1.8223   -0.6398    0.8914 N   0  0  0  0  0  0  0  0  0  0  0  0
    1.3864   -0.5681    1.8084 H   0  0  0  0  0  0  0  0  0  0  0  0
    2.8763   -1.6332    0.7268 C   0  0  0  0  0  0  0  0  0  0  0  0
    3.5997   -1.3049   -0.0270 H   0  0  0  0  0  0  0  0  0  0  0  0
    3.4081   -1.7789    1.6718 H   0  0  0  0  0  0  0  0  0  0  0  0
    2.4517   -2.5929    0.4140 H   0  0  0  0  0  0  0  0  0  0  0  0
  1  2  1  0  0  0  0
  2  3  1  0  0  0  0
  2  4  1  0  0  0  0
  2  5  1  0  0  0  0
  5  6  2  0  0  0  0
  5  7  1  0  0  0  0
  7  8  1  0  0  0  0
  7  9  1  0  0  0  0
  9 10  1  0  0  0  0
  9 11  1  0  0  0  0
  9 22  1  0  0  0  0
 11 12  1  0  0  0  0
 11 13  1  0  0  0  0
 11 14  1  0  0  0  0
 14 15  1  0  0  0  0
 14 20  2  0  0  0  0
 15 16  1  0  0  0  0
 15 17  1  0  0  0  0
 17 18  1  0  0  0  0
 17 19  2  0  0  0  0
 19 20  1  0  0  0  0
 20 21  1  0  0  0  0
 22 23  2  0  0  0  0
 22 24  1  0  0  0  0
 24 25  1  0  0  0  0
 24 26  1  0  0  0  0
 26 27  1  0  0  0  0
 26 28  1  0  0  0  0
 26 29  1  0  0  0  0
M  END
$$$$

  -OEChem-01062216083D

 29 29  0     1  0  0  0  0  0999 V2000
   -3.2922   -2.6073    1.0358 H   0  0  0  0  0  0  0  0  0  0  0  0
   -3.1909   -1.6951    0.4412 C   0  0  0  0  0  0  0  0  0  0  0  0
   -3.9977   -1.0083    0.7088 H   0  0  0  0  0  0  0  0  0  0  0  0
   -3.2772   -1.9544   -0.6167 H   0  0  0  0  0  0  0  0  0  0  0  0
   -1.8473   -1.0441    0.7075 C   0  0  0  0  0  0  0  0  0  0  0  0
   -1.1150   -1.4958    1.5752 O   0  0  0  0  0  0  0  0  0  0  0  0
   -1.4954    0.1016    0.0197 N   0  0  0  0  0  0  0  0  0  0  0  0
   -2.1560    0.4226   -0.6824 H   0  0  0  0  0  0  0  0  0  0  0  0
   -0.1562    0.7256    0.0259 C   0  0  1  0  0  0  0  0  0  0  0  0
   -0.1032    1.4054   -0.8304 H   0  0  0  0  0  0  0  0  0  0  0  0
    0.0203    1.5700    1.3012 C   0  0  0  0  0  0  0  0  0  0  0  0
   -0.1295    0.9450    2.1877 H   0  0  0  0  0  0  0  0  0  0  0  0
    1.0392    1.9683    1.3476 H   0  0  0  0  0  0  0  0  0  0  0  0
   -0.9581    2.7155    1.3159 C   0  0  0  0  0  0  0  0  0  0  0  0
   -0.9056    3.8768    0.5768 N   0  0  0  0  0  0  0  0  0  0  0  0
   -0.1832    4.1363   -0.0920 H   0  0  0  0  0  0  0  0  0  0  0  0
   -1.9964    4.6558    0.9151 C   0  0  0  0  0  0  0  0  0  0  0  0
   -2.2223    5.6315    0.4937 H   0  0  0  0  0  0  0  0  0  0  0  0
   -2.7232    4.0457    1.8204 N   0  0  0  0  0  0  0  0  0  0  0  0
   -2.0823    2.8404    2.0884 C   0  0  0  0  0  0  0  0  0  0  0  0
   -2.4281    2.1012    2.8050 H   0  0  0  0  0  0  0  0  0  0  0  0
    1.0195   -0.2653   -0.1522 C   0  0  0  0  0  0  0  0  0  0  0  0
    1.4868   -0.4213   -1.2734 O   0  0  0  0  0  0  0  0  0  0  0  0
    1.6300   -0.8724    0.9301 N   0  0  0  0  0  0  0  0  0  0  0  0
    1.0178   -0.9798    1.7402 H   0  0  0  0  0  0  0  0  0  0  0  0
    2.7079   -1.8404    0.7718 C   0  0  0  0  0  0  0  0  0  0  0  0
    3.5512   -1.3922    0.2360 H   0  0  0  0  0  0  0  0  0  0  0  0
    3.0625   -2.1725    1.7521 H   0  0  0  0  0  0  0  0  0  0  0  0
    2.3593   -2.7145    0.2119 H   0  0  0  0  0  0  0  0  0  0  0  0
  1  2  1  0  0  0  0
  2  3  1  0  0  0  0
  2  4  1  0  0  0  0
  2  5  1  0  0  0  0
  5  6  2  0  0  0  0
  5  7  1  0  0  0  0
  7  8  1  0  0  0  0
  7  9  1  0  0  0  0
  9 10  1  0  0  0  0
  9 11  1  0  0  0  0
  9 22  1  0  0  0  0
 11 12  1  0  0  0  0
 11 13  1  0  0  0  0
 11 14  1  0  0  0  0
 14 15  1  0  0  0  0
 14 20  2  0  0  0  0
 15 16  1  0  0  0  0
 15 17  1  0  0  0  0
 17 18  1  0  0  0  0
 17 19  2  0  0  0  0
 19 20  1  0  0  0  0
 20 21  1  0  0  0  0
 22 23  2  0  0  0  0
 22 24  1  0  0  0  0
 24 25  1  0  0  0  0
 24 26  1  0  0  0  0
 26 27  1  0  0  0  0
 26 28  1  0  0  0  0
 26 29  1  0  0  0  0
M  END
$$$$

  -OEChem-01062216083D

 29 29  0     1  0  0  0  0  0999 V2000
   -3.4258   -2.5440    1.0375 H   0  0  0  0  0  0  0  0  0  0  0  0
   -3.2838   -1.6359    0.4448 C   0  0  0  0  0  0  0  0  0  0  0  0
   -4.0538   -0.9111    0.7204 H   0  0  0  0  0  0  0  0  0  0  0  0
   -3.3906   -1.8874   -0.6132 H   0  0  0  0  0  0  0  0  0  0  0  0
   -1.9078   -1.0525    0.7033 C   0  0  0  0  0  0  0  0  0  0  0  0
   -1.1997   -1.5402    1.5702 O   0  0  0  0  0  0  0  0  0  0  0  0
   -1.5109    0.0776    0.0146 N   0  0  0  0  0  0  0  0  0  0  0  0
   -2.1823    0.4443   -0.6542 H   0  0  0  0  0  0  0  0  0  0  0  0
   -0.1638    0.6899    0.0139 C   0  0  1  0  0  0  0  0  0  0  0  0
   -0.1147    1.3697   -0.8426 H   0  0  0  0  0  0  0  0  0  0  0  0
    0.0183    1.5283    1.2913 C   0  0  0  0  0  0  0  0  0  0  0  0
   -0.1335    0.8996    2.1753 H   0  0  0  0  0  0  0  0  0  0  0  0
    1.0398    1.9203    1.3389 H   0  0  0  0  0  0  0  0  0  0  0  0
   -0.9529    2.6801    1.3108 C   0  0  0  0  0  0  0  0  0  0  0  0
   -0.8930    3.8436    0.5758 N   0  0  0  0  0  0  0  0  0  0  0  0
   -0.1670    4.1019   -0.0897 H   0  0  0  0  0  0  0  0  0  0  0  0
   -1.9796    4.6275    0.9161 C   0  0  0  0  0  0  0  0  0  0  0  0
   -2.1988    5.6062    0.4991 H   0  0  0  0  0  0  0  0  0  0  0  0
   -2.7122    4.0174    1.8168 N   0  0  0  0  0  0  0  0  0  0  0  0
   -2.0774    2.8081    2.0819 C   0  0  0  0  0  0  0  0  0  0  0  0
   -2.4282    2.0675    2.7945 H   0  0  0  0  0  0  0  0  0  0  0  0
    1.0337   -0.2782   -0.1486 C   0  0  0  0  0  0  0  0  0  0  0  0
    1.6749   -0.2424   -1.1911 O   0  0  0  0  0  0  0  0  0  0  0  0
    1.4658   -1.0936    0.8802 N   0  0  0  0  0  0  0  0  0  0  0  0
    0.7528   -1.2900    1.5874 H   0  0  0  0  0  0  0  0  0  0  0  0
    2.5505   -2.0537    0.7235 C   0  0  0  0  0  0  0  0  0  0  0  0
    3.4719   -1.5464    0.4193 H   0  0  0  0  0  0  0  0  0  0  0  0
    2.7381   -2.5665    1.6718 H   0  0  0  0  0  0  0  0  0  0  0  0
    2.2932   -2.8025   -0.0327 H   0  0  0  0  0  0  0  0  0  0  0  0
  1  2  1  0  0  0  0
  2  3  1  0  0  0  0
  2  4  1  0  0  0  0
  2  5  1  0  0  0  0
  5  6  2  0  0  0  0
  5  7  1  0  0  0  0
  7  8  1  0  0  0  0
  7  9  1  0  0  0  0
  9 10  1  0  0  0  0
  9 11  1  0  0  0  0
  9 22  1  0  0  0  0
 11 12  1  0  0  0  0
 11 13  1  0  0  0  0
 11 14  1  0  0  0  0
 14 15  1  0  0  0  0
 14 20  2  0  0  0  0
 15 16  1  0  0  0  0
 15 17  1  0  0  0  0
 17 18  1  0  0  0  0
 17 19  2  0  0  0  0
 19 20  1  0  0  0  0
 20 21  1  0  0  0  0
 22 23  2  0  0  0  0
 22 24  1  0  0  0  0
 24 25  1  0  0  0  0
 24 26  1  0  0  0  0
 26 27  1  0  0  0  0
 26 28  1  0  0  0  0
 26 29  1  0  0  0  0
M  END
$$$$

  -OEChem-01062216083D

 29 29  0     1  0  0  0  0  0999 V2000
   -3.5588   -2.4793    1.0390 H   0  0  0  0  0  0  0  0  0  0  0  0
   -3.3774   -1.5800    0.4436 C   0  0  0  0  0  0  0  0  0  0  0  0
   -4.1182   -0.8232    0.7138 H   0  0  0  0  0  0  0  0  0  0  0  0
   -3.4910   -1.8310   -0.6136 H   0  0  0  0  0  0  0  0  0  0  0  0
   -1.9794   -1.0526    0.7044 C   0  0  0  0  0  0  0  0  0  0  0  0
   -1.2993   -1.5674    1.5766 O   0  0  0  0  0  0  0  0  0  0  0  0
   -1.5393    0.0598    0.0131 N   0  0  0  0  0  0  0  0  0  0  0  0
   -2.2108    0.4571   -0.6379 H   0  0  0  0  0  0  0  0  0  0  0  0
   -0.1817    0.6544    0.0013 C   0  0  1  0  0  0  0  0  0  0  0  0
   -0.1348    1.3337   -0.8559 H   0  0  0  0  0  0  0  0  0  0  0  0
    0.0100    1.4873    1.2801 C   0  0  0  0  0  0  0  0  0  0  0  0
   -0.1439    0.8556    2.1616 H   0  0  0  0  0  0  0  0  0  0  0  0
    1.0348    1.8713    1.3273 H   0  0  0  0  0  0  0  0  0  0  0  0
   -0.9494    2.6486    1.3051 C   0  0  0  0  0  0  0  0  0  0  0  0
   -0.8795    3.8138    0.5741 N   0  0  0  0  0  0  0  0  0  0  0  0
   -0.1492    4.0689   -0.0882 H   0  0  0  0  0  0  0  0  0  0  0  0
   -1.9581    4.6068    0.9189 C   0  0  0  0  0  0  0  0  0  0  0  0
   -2.1684    5.5896    0.5066 H   0  0  0  0  0  0  0  0  0  0  0  0
   -2.6953    4.0000    1.8183 N   0  0  0  0  0  0  0  0  0  0  0  0
   -2.0712    2.7842    2.0788 C   0  0  0  0  0  0  0  0  0  0  0  0
   -2.4272    2.0440    2.7894 H   0  0  0  0  0  0  0  0  0  0  0  0
    1.0315   -0.2977   -0.1513 C   0  0  0  0  0  0  0  0  0  0  0  0
    1.8112   -0.0948   -1.0734 O   0  0  0  0  0  0  0  0  0  0  0  0
    1.3148   -1.3099    0.7445 N   0  0  0  0  0  0  0  0  0  0  0  0
    0.5595   -1.5500    1.3923 H   0  0  0  0  0  0  0  0  0  0  0  0
    2.4161   -2.2492    0.5800 C   0  0  0  0  0  0  0  0  0  0  0  0
    3.3713   -1.7162    0.5282 H   0  0  0  0  0  0  0  0  0  0  0  0
    2.4526   -2.9375    1.4298 H   0  0  0  0  0  0  0  0  0  0  0  0
    2.2870   -2.8337   -0.3366 H   0  0  0  0  0  0  0  0  0  0  0  0
  1  2  1  0  0  0  0
  2  3  1  0  0  0  0
  2  4  1  0  0  0  0
  2  5  1  0  0  0  0
  5  6  2  0  0  0  0
  5  7  1  0  0  0  0
  7  8  1  0  0  0  0
  7  9  1  0  0  0  0
  9 10  1  0  0  0  0
  9 11  1  0  0  0  0
  9 22  1  0  0  0  0
 11 12  1  0  0  0  0
 11 13  1  0  0  0  0
 11 14  1  0  0  0  0
 14 15  1  0  0  0  0
 14 20  2  0  0  0  0
 15 16  1  0  0  0  0
 15 17  1  0  0  0  0
 17 18  1  0  0  0  0
 17 19  2  0  0  0  0
 19 20  1  0  0  0  0
 20 21  1  0  0  0  0
 22 23  2  0  0  0  0
 22 24  1  0  0  0  0
 24 25  1  0  0  0  0
 24 26  1  0  0  0  0
 26 27  1  0  0  0  0
 26 28  1  0  0  0  0
 26 29  1  0  0  0  0
M  END
$$$$

  -OEChem-01062216083D

 29 29  0     1  0  0  0  0  0999 V2000
   -3.6732   -2.4202    1.0616 H   0  0  0  0  0  0  0  0  0  0  0  0
   -3.4657   -1.5309    0.4597 C   0  0  0  0  0  0  0  0  0  0  0  0
   -4.1764   -0.7472    0.7330 H   0  0  0  0  0  0  0  0  0  0  0  0
   -3.5982   -1.7828   -0.5953 H   0  0  0  0  0  0  0  0  0  0  0  0
   -2.0476   -1.0517    0.7040 C   0  0  0  0  0  0  0  0  0  0  0  0
   -1.3747   -1.5928    1.5654 O   0  0  0  0  0  0  0  0  0  0  0  0
   -1.5828    0.0494    0.0107 N   0  0  0  0  0  0  0  0  0  0  0  0
   -2.2589    0.4760   -0.6165 H   0  0  0  0  0  0  0  0  0  0  0  0
   -0.2140    0.6206   -0.0215 C   0  0  1  0  0  0  0  0  0  0  0  0
   -0.1729    1.3014   -0.8780 H   0  0  0  0  0  0  0  0  0  0  0  0
    0.0036    1.4450    1.2586 C   0  0  0  0  0  0  0  0  0  0  0  0
   -0.1484    0.8107    2.1386 H   0  0  0  0  0  0  0  0  0  0  0  0
    1.0338    1.8156    1.2959 H   0  0  0  0  0  0  0  0  0  0  0  0
   -0.9388    2.6199    1.2984 C   0  0  0  0  0  0  0  0  0  0  0  0
   -0.8587    3.7865    0.5705 N   0  0  0  0  0  0  0  0  0  0  0  0
   -0.1296    4.0339   -0.0960 H   0  0  0  0  0  0  0  0  0  0  0  0
   -1.9229    4.5934    0.9275 C   0  0  0  0  0  0  0  0  0  0  0  0
   -2.1238    5.5795    0.5186 H   0  0  0  0  0  0  0  0  0  0  0  0
   -2.6602    3.9945    1.8321 N   0  0  0  0  0  0  0  0  0  0  0  0
   -2.0505    2.7697    2.0839 C   0  0  0  0  0  0  0  0  0  0  0  0
   -2.4099    2.0330    2.7963 H   0  0  0  0  0  0  0  0  0  0  0  0
    1.0018   -0.3273   -0.1890 C   0  0  0  0  0  0  0  0  0  0  0  0
    1.8965    0.0236   -0.9477 O   0  0  0  0  0  0  0  0  0  0  0  0
    1.1594   -1.5118    0.5023 N   0  0  0  0  0  0  0  0  0  0  0  0
    0.3928   -1.7838    1.1229 H   0  0  0  0  0  0  0  0  0  0  0  0
    2.3066   -2.3984    0.3622 C   0  0  0  0  0  0  0  0  0  0  0  0
    3.2325   -1.8707    0.6135 H   0  0  0  0  0  0  0  0  0  0  0  0
    2.2031   -3.2546    1.0357 H   0  0  0  0  0  0  0  0  0  0  0  0
    2.3793   -2.7714   -0.6647 H   0  0  0  0  0  0  0  0  0  0  0  0
  1  2  1  0  0  0  0
  2  3  1  0  0  0  0
  2  4  1  0  0  0  0
  2  5  1  0  0  0  0
  5  6  2  0  0  0  0
  5  7  1  0  0  0  0
  7  8  1  0  0  0  0
  7  9  1  0  0  0  0
  9 10  1  0  0  0  0
  9 11  1  0  0  0  0
  9 22  1  0  0  0  0
 11 12  1  0  0  0  0
 11 13  1  0  0  0  0
 11 14  1  0  0  0  0
 14 15  1  0  0  0  0
 14 20  2  0  0  0  0
 15 16  1  0  0  0  0
 15 17  1  0  0  0  0
 17 18  1  0  0  0  0
 17 19  2  0  0  0  0
 19 20  1  0  0  0  0
 20 21  1  0  0  0  0
 22 23  2  0  0  0  0
 22 24  1  0  0  0  0
 24 25  1  0  0  0  0
 24 26  1  0  0  0  0
 26 27  1  0  0  0  0
 26 28  1  0  0  0  0
 26 29  1  0  0  0  0
M  END
$$$$

  -OEChem-01062216083D

 29 29  0     1  0  0  0  0  0999 V2000
   -3.7350   -2.3952    0.9825 H   0  0  0  0  0  0  0  0  0  0  0  0
   -3.5151   -1.4937    0.4035 C   0  0  0  0  0  0  0  0  0  0  0  0
   -4.2028   -0.7020    0.7109 H   0  0  0  0  0  0  0  0  0  0  0  0
   -3.6702   -1.7113   -0.6560 H   0  0  0  0  0  0  0  0  0  0  0  0
   -2.0820   -1.0562    0.6405 C   0  0  0  0  0  0  0  0  0  0  0  0
   -1.4096   -1.6436    1.4711 O   0  0  0  0  0  0  0  0  0  0  0  0
   -1.5973    0.0532   -0.0255 N   0  0  0  0  0  0  0  0  0  0  0  0
   -2.2728    0.5227   -0.6222 H   0  0  0  0  0  0  0  0  0  0  0  0
   -0.2217    0.6102   -0.0345 C   0  0  1  0  0  0  0  0  0  0  0  0
   -0.1673    1.3071   -0.8769 H   0  0  0  0  0  0  0  0  0  0  0  0
   -0.0185    1.4080    1.2654 C   0  0  0  0  0  0  0  0  0  0  0  0
   -0.1898    0.7571    2.1299 H   0  0  0  0  0  0  0  0  0  0  0  0
    1.0133    1.7708    1.3286 H   0  0  0  0  0  0  0  0  0  0  0  0
   -0.9537    2.5888    1.3115 C   0  0  0  0  0  0  0  0  0  0  0  0
   -0.8505    3.7669    0.6057 N   0  0  0  0  0  0  0  0  0  0  0  0
   -0.1066    4.0194   -0.0426 H   0  0  0  0  0  0  0  0  0  0  0  0
   -1.9131    4.5775    0.9580 C   0  0  0  0  0  0  0  0  0  0  0  0
   -2.0961    5.5734    0.5646 H   0  0  0  0  0  0  0  0  0  0  0  0
   -2.6730    3.9689    1.8370 N   0  0  0  0  0  0  0  0  0  0  0  0
   -2.0789    2.7343    2.0784 C   0  0  0  0  0  0  0  0  0  0  0  0
   -2.4585    1.9879    2.7700 H   0  0  0  0  0  0  0  0  0  0  0  0
    0.9983   -0.3327   -0.2099 C   0  0  0  0  0  0  0  0  0  0  0  0
    1.9950    0.1300   -0.7512 O   0  0  0  0  0  0  0  0  0  0  0  0
    1.0373   -1.6479    0.2083 N   0  0  0  0  0  0  0  0  0  0  0  0
    0.2474   -1.9630    0.7762 H   0  0  0  0  0  0  0  0  0  0  0  0
    2.2199   -2.4947    0.1208 C   0  0  0  0  0  0  0  0  0  0  0  0
    3.0401   -2.0693    0.7085 H   0  0  0  0  0  0  0  0  0  0  0  0
    1.9969   -3.4935    0.5083 H   0  0  0  0  0  0  0  0  0  0  0  0
    2.5454   -2.5935   -0.9199 H   0  0  0  0  0  0  0  0  0  0  0  0
  1  2  1  0  0  0  0
  2  3  1  0  0  0  0
  2  4  1  0  0  0  0
  2  5  1  0  0  0  0
  5  6  2  0  0  0  0
  5  7  1  0  0  0  0
  7  8  1  0  0  0  0
  7  9  1  0  0  0  0
  9 10  1  0  0  0  0
  9 11  1  0  0  0  0
  9 22  1  0  0  0  0
 11 12  1  0  0  0  0
 11 13  1  0  0  0  0
 11 14  1  0  0  0  0
 14 15  1  0  0  0  0
 14 20  2  0  0  0  0
 15 16  1  0  0  0  0
 15 17  1  0  0  0  0
 17 18  1  0  0  0  0
 17 19  2  0  0  0  0
 19 20  1  0  0  0  0
 20 21  1  0  0  0  0
 22 23  2  0  0  0  0
 22 24  1  0  0  0  0
 24 25  1  0  0  0  0
 24 26  1  0  0  0  0
 26 27  1  0  0  0  0
 26 28  1  0  0  0  0
 26 29  1  0  0  0  0
M  END
$$$$

  -OEChem-01062216083D

 29 29  0     1  0  0  0  0  0999 V2000
   -3.7519   -2.3278    1.1293 H   0  0  0  0  0  0  0  0  0  0  0  0
   -3.5392   -1.4422    0.5235 C   0  0  0  0  0  0  0  0  0  0  0  0
   -4.1740   -0.6216    0.8667 H   0  0  0  0  0  0  0  0  0  0  0  0
   -3.7749   -1.6655   -0.5198 H   0  0  0  0  0  0  0  0  0  0  0  0
   -2.0781   -1.0565    0.6550 C   0  0  0  0  0  0  0  0  0  0  0  0
   -1.3595   -1.6877    1.4111 O   0  0  0  0  0  0  0  0  0  0  0  0
   -1.6090    0.0479   -0.0296 N   0  0  0  0  0  0  0  0  0  0  0  0
   -2.3136    0.5571   -0.5559 H   0  0  0  0  0  0  0  0  0  0  0  0
   -0.2323    0.6010   -0.0771 C   0  0  1  0  0  0  0  0  0  0  0  0
   -0.1949    1.2943   -0.9231 H   0  0  0  0  0  0  0  0  0  0  0  0
   -0.0035    1.4000    1.2194 C   0  0  0  0  0  0  0  0  0  0  0  0
   -0.1556    0.7485    2.0869 H   0  0  0  0  0  0  0  0  0  0  0  0
    1.0281    1.7658    1.2636 H   0  0  0  0  0  0  0  0  0  0  0  0
   -0.9380    2.5800    1.2852 C   0  0  0  0  0  0  0  0  0  0  0  0
   -0.8502    3.7583    0.5779 N   0  0  0  0  0  0  0  0  0  0  0  0
   -0.1164    4.0142   -0.0804 H   0  0  0  0  0  0  0  0  0  0  0  0
   -1.9065    4.5676    0.9523 C   0  0  0  0  0  0  0  0  0  0  0  0
   -2.0993    5.5631    0.5624 H   0  0  0  0  0  0  0  0  0  0  0  0
   -2.6471    3.9580    1.8473 N   0  0  0  0  0  0  0  0  0  0  0  0
   -2.0455    2.7249    2.0773 C   0  0  0  0  0  0  0  0  0  0  0  0
   -2.4081    1.9790    2.7784 H   0  0  0  0  0  0  0  0  0  0  0  0
    0.9827   -0.3441   -0.2785 C   0  0  0  0  0  0  0  0  0  0  0  0
    2.0362    0.1608   -0.6479 O   0  0  0  0  0  0  0  0  0  0  0  0
    0.9346   -1.7163   -0.1287 N   0  0  0  0  0  0  0  0  0  0  0  0
    0.1248   -2.0688    0.3854 H   0  0  0  0  0  0  0  0  0  0  0  0
    2.1080   -2.5740   -0.2348 C   0  0  0  0  0  0  0  0  0  0  0  0
    2.8496   -2.3047    0.5241 H   0  0  0  0  0  0  0  0  0  0  0  0
    1.8234   -3.6201   -0.0870 H   0  0  0  0  0  0  0  0  0  0  0  0
    2.5648   -2.4781   -1.2253 H   0  0  0  0  0  0  0  0  0  0  0  0
  1  2  1  0  0  0  0
  2  3  1  0  0  0  0
  2  4  1  0  0  0  0
  2  5  1  0  0  0  0
  5  6  2  0  0  0  0
  5  7  1  0  0  0  0
  7  8  1  0  0  0  0
  7  9  1  0  0  0  0
  9 10  1  0  0  0  0
  9 11  1  0  0  0  0
  9 22  1  0  0  0  0
 11 12  1  0  0  0  0
 11 13  1  0  0  0  0
 11 14  1  0  0  0  0
 14 15  1  0  0  0  0
 14 20  2  0  0  0  0
 15 16  1  0  0  0  0
 15 17  1  0  0  0  0
 17 18  1  0  0  0  0
 17 19  2  0  0  0  0
 19 20  1  0  0  0  0
 20 21  1  0  0  0  0
 22 23  2  0  0  0  0
 22 24  1  0  0  0  0
 24 25  1  0  0  0  0
 24 26  1  0  0  0  0
 26 27  1  0  0  0  0
 26 28  1  0  0  0  0
 26 29  1  0  0  0  0
M  END
$$$$

  -OEChem-01062216083D

 29 29  0     1  0  0  0  0  0999 V2000
   -3.7136   -2.3131    1.1584 H   0  0  0  0  0  0  0  0  0  0  0  0
   -3.5146   -1.4203    0.5587 C   0  0  0  0  0  0  0  0  0  0  0  0
   -4.1158   -0.5950    0.9480 H   0  0  0  0  0  0  0  0  0  0  0  0
   -3.8067   -1.6194   -0.4752 H   0  0  0  0  0  0  0  0  0  0  0  0
   -2.0417   -1.0636    0.6232 C   0  0  0  0  0  0  0  0  0  0  0  0
   -1.2883   -1.7489    1.2924 O   0  0  0  0  0  0  0  0  0  0  0  0
   -1.5862    0.0525   -0.0514 N   0  0  0  0  0  0  0  0  0  0  0  0
   -2.3091    0.6095   -0.4990 H   0  0  0  0  0  0  0  0  0  0  0  0
   -0.2121    0.6130   -0.0871 C   0  0  1  0  0  0  0  0  0  0  0  0
   -0.1692    1.3108   -0.9287 H   0  0  0  0  0  0  0  0  0  0  0  0
   -0.0039    1.4049    1.2187 C   0  0  0  0  0  0  0  0  0  0  0  0
   -0.1603    0.7446    2.0788 H   0  0  0  0  0  0  0  0  0  0  0  0
    1.0229    1.7809    1.2797 H   0  0  0  0  0  0  0  0  0  0  0  0
   -0.9492    2.5774    1.2819 C   0  0  0  0  0  0  0  0  0  0  0  0
   -0.8633    3.7616    0.5840 N   0  0  0  0  0  0  0  0  0  0  0  0
   -0.1224    4.0294   -0.0616 H   0  0  0  0  0  0  0  0  0  0  0  0
   -1.9304    4.5597    0.9519 C   0  0  0  0  0  0  0  0  0  0  0  0
   -2.1272    5.5565    0.5670 H   0  0  0  0  0  0  0  0  0  0  0  0
   -2.6761    3.9372    1.8336 N   0  0  0  0  0  0  0  0  0  0  0  0
   -2.0661    2.7084    2.0629 C   0  0  0  0  0  0  0  0  0  0  0  0
   -2.4304    1.9556    2.7554 H   0  0  0  0  0  0  0  0  0  0  0  0
    1.0003   -0.3353   -0.2935 C   0  0  0  0  0  0  0  0  0  0  0  0
    2.1044    0.1710   -0.4558 O   0  0  0  0  0  0  0  0  0  0  0  0
    0.8790   -1.7031   -0.4488 N   0  0  0  0  0  0  0  0  0  0  0  0
    0.0297   -2.0967   -0.0405 H   0  0  0  0  0  0  0  0  0  0  0  0
    2.0299   -2.5857   -0.5942 C   0  0  0  0  0  0  0  0  0  0  0  0
    2.6776   -2.5187    0.2862 H   0  0  0  0  0  0  0  0  0  0  0  0
    1.6972   -3.6223   -0.7036 H   0  0  0  0  0  0  0  0  0  0  0  0
    2.6116   -2.3159   -1.4819 H   0  0  0  0  0  0  0  0  0  0  0  0
  1  2  1  0  0  0  0
  2  3  1  0  0  0  0
  2  4  1  0  0  0  0
  2  5  1  0  0  0  0
  5  6  2  0  0  0  0
  5  7  1  0  0  0  0
  7  8  1  0  0  0  0
  7  9  1  0  0  0  0
  9 10  1  0  0  0  0
  9 11  1  0  0  0  0
  9 22  1  0  0  0  0
 11 12  1  0  0  0  0
 11 13  1  0  0  0  0
 11 14  1  0  0  0  0
 14 15  1  0  0  0  0
 14 20  2  0  0  0  0
 15 16  1  0  0  0  0
 15 17  1  0  0  0  0
 17 18  1  0  0  0  0
 17 19  2  0  0  0  0
 19 20  1  0  0  0  0
 20 21  1  0  0  0  0
 22 23  2  0  0  0  0
 22 24  1  0  0  0  0
 24 25  1  0  0  0  0
 24 26  1  0  0  0  0
 26 27  1  0  0  0  0
 26 28  1  0  0  0  0
 26 29  1  0  0  0  0
M  END
$$$$

  -OEChem-01062216083D

 29 29  0     1  0  0  0  0  0999 V2000
   -3.6507   -2.2951    1.2004 H   0  0  0  0  0  0  0  0  0  0  0  0
   -3.4689   -1.3990    0.6002 C   0  0  0  0  0  0  0  0  0  0  0  0
   -4.0289   -0.5669    1.0344 H   0  0  0  0  0  0  0  0  0  0  0  0
   -3.8258   -1.5784   -0.4168 H   0  0  0  0  0  0  0  0  0  0  0  0
   -1.9874   -1.0735    0.5813 C   0  0  0  0  0  0  0  0  0  0  0  0
   -1.2032   -1.8093    1.1536 O   0  0  0  0  0  0  0  0  0  0  0  0
   -1.5504    0.0569   -0.0815 N   0  0  0  0  0  0  0  0  0  0  0  0
   -2.2885    0.6539   -0.4454 H   0  0  0  0  0  0  0  0  0  0  0  0
   -0.1815    0.6297   -0.0939 C   0  0  1  0  0  0  0  0  0  0  0  0
   -0.1270    1.3327   -0.9302 H   0  0  0  0  0  0  0  0  0  0  0  0
   -0.0046    1.4131    1.2235 C   0  0  0  0  0  0  0  0  0  0  0  0
   -0.1673    0.7434    2.0752 H   0  0  0  0  0  0  0  0  0  0  0  0
    1.0151    1.8037    1.3078 H   0  0  0  0  0  0  0  0  0  0  0  0
   -0.9649    2.5737    1.2781 C   0  0  0  0  0  0  0  0  0  0  0  0
   -0.8812    3.7642    0.5909 N   0  0  0  0  0  0  0  0  0  0  0  0
   -0.1311    4.0469   -0.0376 H   0  0  0  0  0  0  0  0  0  0  0  0
   -1.9640    4.5465    0.9463 C   0  0  0  0  0  0  0  0  0  0  0  0
   -2.1658    5.5438    0.5657 H   0  0  0  0  0  0  0  0  0  0  0  0
   -2.7174    3.9081    1.8099 N   0  0  0  0  0  0  0  0  0  0  0  0
   -2.0954    2.6861    2.0424 C   0  0  0  0  0  0  0  0  0  0  0  0
   -2.4610    1.9247    2.7250 H   0  0  0  0  0  0  0  0  0  0  0  0
    1.0259   -0.3264   -0.2962 C   0  0  0  0  0  0  0  0  0  0  0  0
    2.1600    0.1343   -0.2331 O   0  0  0  0  0  0  0  0  0  0  0  0
    0.8681   -1.6192   -0.7600 N   0  0  0  0  0  0  0  0  0  0  0  0
   -0.0282   -2.0354   -0.5087 H   0  0  0  0  0  0  0  0  0  0  0  0
    1.9951   -2.5245   -0.9487 C   0  0  0  0  0  0  0  0  0  0  0  0
    2.5193   -2.6869   -0.0011 H   0  0  0  0  0  0  0  0  0  0  0  0
    1.6426   -3.4909   -1.3212 H   0  0  0  0  0  0  0  0  0  0  0  0
    2.7018   -2.1129   -1.6769 H   0  0  0  0  0  0  0  0  0  0  0  0
  1  2  1  0  0  0  0
  2  3  1  0  0  0  0
  2  4  1  0  0  0  0
  2  5  1  0  0  0  0
  5  6  2  0  0  0  0
  5  7  1  0  0  0  0
  7  8  1  0  0  0  0
  7  9  1  0  0  0  0
  9 10  1  0  0  0  0
  9 11  1  0  0  0  0
  9 22  1  0  0  0  0
 11 12  1  0  0  0  0
 11 13  1  0  0  0  0
 11 14  1  0  0  0  0
 14 15  1  0  0  0  0
 14 20  2  0  0  0  0
 15 16  1  0  0  0  0
 15 17  1  0  0  0  0
 17 18  1  0  0  0  0
 17 19  2  0  0  0  0
 19 20  1  0  0  0  0
 20 21  1  0  0  0  0
 22 23  2  0  0  0  0
 22 24  1  0  0  0  0
 24 25  1  0  0  0  0
 24 26  1  0  0  0  0
 26 27  1  0  0  0  0
 26 28  1  0  0  0  0
 26 29  1  0  0  0  0
M  END
$$$$

  -OEChem-01062216083D

 29 29  0     1  0  0  0  0  0999 V2000
   -3.5471   -2.3248    1.2069 H   0  0  0  0  0  0  0  0  0  0  0  0
   -3.3917   -1.4190    0.6140 C   0  0  0  0  0  0  0  0  0  0  0  0
   -3.9468   -0.5984    1.0755 H   0  0  0  0  0  0  0  0  0  0  0  0
   -3.7752   -1.5881   -0.3949 H   0  0  0  0  0  0  0  0  0  0  0  0
   -1.9149   -1.0787    0.5573 C   0  0  0  0  0  0  0  0  0  0  0  0
   -1.1067   -1.8176    1.0893 O   0  0  0  0  0  0  0  0  0  0  0  0
   -1.5083    0.0672   -0.0991 N   0  0  0  0  0  0  0  0  0  0  0  0
   -2.2611    0.6731   -0.4152 H   0  0  0  0  0  0  0  0  0  0  0  0
   -0.1488    0.6588   -0.0956 C   0  0  1  0  0  0  0  0  0  0  0  0
   -0.0884    1.3658   -0.9281 H   0  0  0  0  0  0  0  0  0  0  0  0
    0.0064    1.4383    1.2273 C   0  0  0  0  0  0  0  0  0  0  0  0
   -0.1520    0.7619    2.0743 H   0  0  0  0  0  0  0  0  0  0  0  0
    1.0189    1.8449    1.3213 H   0  0  0  0  0  0  0  0  0  0  0  0
   -0.9710    2.5849    1.2781 C   0  0  0  0  0  0  0  0  0  0  0  0
   -0.9014    3.7804    0.5981 N   0  0  0  0  0  0  0  0  0  0  0  0
   -0.1499    4.0801   -0.0205 H   0  0  0  0  0  0  0  0  0  0  0  0
   -2.0006    4.5424    0.9478 C   0  0  0  0  0  0  0  0  0  0  0  0
   -2.2160    5.5382    0.5708 H   0  0  0  0  0  0  0  0  0  0  0  0
   -2.7513    3.8865    1.8006 N   0  0  0  0  0  0  0  0  0  0  0  0
   -2.1101    2.6744    2.0327 C   0  0  0  0  0  0  0  0  0  0  0  0
   -2.4690    1.9029    2.7074 H   0  0  0  0  0  0  0  0  0  0  0  0
    1.0459   -0.3120   -0.3006 C   0  0  0  0  0  0  0  0  0  0  0  0
    2.1790    0.0357    0.0120 O   0  0  0  0  0  0  0  0  0  0  0  0
    0.8941   -1.4626   -1.0532 N   0  0  0  0  0  0  0  0  0  0  0  0
   -0.0551   -1.8259   -1.0709 H   0  0  0  0  0  0  0  0  0  0  0  0
    1.9820   -2.4121   -1.2523 C   0  0  0  0  0  0  0  0  0  0  0  0
    2.3186   -2.8146   -0.2910 H   0  0  0  0  0  0  0  0  0  0  0  0
    1.6468   -3.2434   -1.8796 H   0  0  0  0  0  0  0  0  0  0  0  0
    2.8297   -1.9277   -1.7482 H   0  0  0  0  0  0  0  0  0  0  0  0
  1  2  1  0  0  0  0
  2  3  1  0  0  0  0
  2  4  1  0  0  0  0
  2  5  1  0  0  0  0
  5  6  2  0  0  0  0
  5  7  1  0  0  0  0
  7  8  1  0  0  0  0
  7  9  1  0  0  0  0
  9 10  1  0  0  0  0
  9 11  1  0  0  0  0
  9 22  1  0  0  0  0
 11 12  1  0  0  0  0
 11 13  1  0  0  0  0
 11 14  1  0  0  0  0
 14 15  1  0  0  0  0
 14 20  2  0  0  0  0
 15 16  1  0  0  0  0
 15 17  1  0  0  0  0
 17 18  1  0  0  0  0
 17 19  2  0  0  0  0
 19 20  1  0  0  0  0
 20 21  1  0  0  0  0
 22 23  2  0  0  0  0
 22 24  1  0  0  0  0
 24 25  1  0  0  0  0
 24 26  1  0  0  0  0
 26 27  1  0  0  0  0
 26 28  1  0  0  0  0
 26 29  1  0  0  0  0
M  END
$$$$

  -OEChem-01062216083D

 29 29  0     1  0  0  0  0  0999 V2000
   -3.4714   -2.3554    1.2052 H   0  0  0  0  0  0  0  0  0  0  0  0
   -3.3331   -1.4464    0.6125 C   0  0  0  0  0  0  0  0  0  0  0  0
   -3.8966   -0.6347    1.0791 H   0  0  0  0  0  0  0  0  0  0  0  0
   -3.7218   -1.6201   -0.3937 H   0  0  0  0  0  0  0  0  0  0  0  0
   -1.8612   -1.0849    0.5466 C   0  0  0  0  0  0  0  0  0  0  0  0
   -1.0413   -1.8098    1.0795 O   0  0  0  0  0  0  0  0  0  0  0  0
   -1.4766    0.0703   -0.1085 N   0  0  0  0  0  0  0  0  0  0  0  0
   -2.2399    0.6727   -0.4056 H   0  0  0  0  0  0  0  0  0  0  0  0
   -0.1256    0.6783   -0.0914 C   0  0  1  0  0  0  0  0  0  0  0  0
   -0.0599    1.3864   -0.9223 H   0  0  0  0  0  0  0  0  0  0  0  0
    0.0145    1.4599    1.2320 C   0  0  0  0  0  0  0  0  0  0  0  0
   -0.1394    0.7817    2.0786 H   0  0  0  0  0  0  0  0  0  0  0  0
    1.0225    1.8767    1.3283 H   0  0  0  0  0  0  0  0  0  0  0  0
   -0.9748    2.5968    1.2784 C   0  0  0  0  0  0  0  0  0  0  0  0
   -0.9169    3.7943    0.6003 N   0  0  0  0  0  0  0  0  0  0  0  0
   -0.1656    4.1054   -0.0127 H   0  0  0  0  0  0  0  0  0  0  0  0
   -2.0259    4.5430    0.9479 C   0  0  0  0  0  0  0  0  0  0  0  0
   -2.2518    5.5371    0.5724 H   0  0  0  0  0  0  0  0  0  0  0  0
   -2.7714    3.8770    1.7972 N   0  0  0  0  0  0  0  0  0  0  0  0
   -2.1169    2.6721    2.0299 C   0  0  0  0  0  0  0  0  0  0  0  0
   -2.4683    1.8956    2.7030 H   0  0  0  0  0  0  0  0  0  0  0  0
    1.0596   -0.3037   -0.2911 C   0  0  0  0  0  0  0  0  0  0  0  0
    2.1405   -0.1100    0.2536 O   0  0  0  0  0  0  0  0  0  0  0  0
    0.9835   -1.2642   -1.2841 N   0  0  0  0  0  0  0  0  0  0  0  0
    0.0442   -1.4988   -1.5896 H   0  0  0  0  0  0  0  0  0  0  0  0
    2.0420   -2.2413   -1.5092 C   0  0  0  0  0  0  0  0  0  0  0  0
    2.1910   -2.8556   -0.6148 H   0  0  0  0  0  0  0  0  0  0  0  0
    1.7786   -2.8989   -2.3430 H   0  0  0  0  0  0  0  0  0  0  0  0
    2.9840   -1.7387   -1.7528 H   0  0  0  0  0  0  0  0  0  0  0  0
  1  2  1  0  0  0  0
  2  3  1  0  0  0  0
  2  4  1  0  0  0  0
  2  5  1  0  0  0  0
  5  6  2  0  0  0  0
  5  7  1  0  0  0  0
  7  8  1  0  0  0  0
  7  9  1  0  0  0  0
  9 10  1  0  0  0  0
  9 11  1  0  0  0  0
  9 22  1  0  0  0  0
 11 12  1  0  0  0  0
 11 13  1  0  0  0  0
 11 14  1  0  0  0  0
 14 15  1  0  0  0  0
 14 20  2  0  0  0  0
 15 16  1  0  0  0  0
 15 17  1  0  0  0  0
 17 18  1  0  0  0  0
 17 19  2  0  0  0  0
 19 20  1  0  0  0  0
 20 21  1  0  0  0  0
 22 23  2  0  0  0  0
 22 24  1  0  0  0  0
 24 25  1  0  0  0  0
 24 26  1  0  0  0  0
 26 27  1  0  0  0  0
 26 28  1  0  0  0  0
 26 29  1  0  0  0  0
M  END
$$$$

  -OEChem-01062216083D

 29 29  0     1  0  0  0  0  0999 V2000
   -3.4484   -2.3693    1.1988 H   0  0  0  0  0  0  0  0  0  0  0  0
   -3.3120   -1.4585    0.6087 C   0  0  0  0  0  0  0  0  0  0  0  0
   -3.8812   -0.6504    1.0745 H   0  0  0  0  0  0  0  0  0  0  0  0
   -3.6952   -1.6321   -0.3995 H   0  0  0  0  0  0  0  0  0  0  0  0
   -1.8414   -1.0906    0.5494 C   0  0  0  0  0  0  0  0  0  0  0  0
   -1.0216   -1.8129    1.0856 O   0  0  0  0  0  0  0  0  0  0  0  0
   -1.4615    0.0665   -0.1053 N   0  0  0  0  0  0  0  0  0  0  0  0
   -2.2279    0.6665   -0.3985 H   0  0  0  0  0  0  0  0  0  0  0  0
   -0.1146    0.6806   -0.0819 C   0  0  1  0  0  0  0  0  0  0  0  0
   -0.0451    1.3887   -0.9126 H   0  0  0  0  0  0  0  0  0  0  0  0
    0.0183    1.4660    1.2395 C   0  0  0  0  0  0  0  0  0  0  0  0
   -0.1375    0.7897    2.0874 H   0  0  0  0  0  0  0  0  0  0  0  0
    1.0265    1.8829    1.3365 H   0  0  0  0  0  0  0  0  0  0  0  0
   -0.9754    2.5994    1.2792 C   0  0  0  0  0  0  0  0  0  0  0  0
   -0.9206    3.7956    0.5982 N   0  0  0  0  0  0  0  0  0  0  0  0
   -0.1685    4.1090   -0.0124 H   0  0  0  0  0  0  0  0  0  0  0  0
   -2.0342    4.5400    0.9402 C   0  0  0  0  0  0  0  0  0  0  0  0
   -2.2636    5.5317    0.5610 H   0  0  0  0  0  0  0  0  0  0  0  0
   -2.7792    3.8731    1.7891 N   0  0  0  0  0  0  0  0  0  0  0  0
   -2.1201    2.6718    2.0273 C   0  0  0  0  0  0  0  0  0  0  0  0
   -2.4708    1.8962    2.7018 H   0  0  0  0  0  0  0  0  0  0  0  0
    1.0649   -0.3086   -0.2757 C   0  0  0  0  0  0  0  0  0  0  0  0
    2.0565   -0.2745    0.4442 O   0  0  0  0  0  0  0  0  0  0  0  0
    1.1245   -1.0481   -1.4438 N   0  0  0  0  0  0  0  0  0  0  0  0
    0.2516   -1.1444   -1.9529 H   0  0  0  0  0  0  0  0  0  0  0  0
    2.1906   -2.0059   -1.7122 C   0  0  0  0  0  0  0  0  0  0  0  0
    2.2045   -2.7866   -0.9442 H   0  0  0  0  0  0  0  0  0  0  0  0
    2.0371   -2.4790   -2.6867 H   0  0  0  0  0  0  0  0  0  0  0  0
    3.1643   -1.5048   -1.7230 H   0  0  0  0  0  0  0  0  0  0  0  0
  1  2  1  0  0  0  0
  2  3  1  0  0  0  0
  2  4  1  0  0  0  0
  2  5  1  0  0  0  0
  5  6  2  0  0  0  0
  5  7  1  0  0  0  0
  7  8  1  0  0  0  0
  7  9  1  0  0  0  0
  9 10  1  0  0  0  0
  9 11  1  0  0  0  0
  9 22  1  0  0  0  0
 11 12  1  0  0  0  0
 11 13  1  0  0  0  0
 11 14  1  0  0  0  0
 14 15  1  0  0  0  0
 14 20  2  0  0  0  0
 15 16  1  0  0  0  0
 15 17  1  0  0  0  0
 17 18  1  0  0  0  0
 17 19  2  0  0  0  0
 19 20  1  0  0  0  0
 20 21  1  0  0  0  0
 22 23  2  0  0  0  0
 22 24  1  0  0  0  0
 24 25  1  0  0  0  0
 24 26  1  0  0  0  0
 26 27  1  0  0  0  0
 26 28  1  0  0  0  0
 26 29  1  0  0  0  0
M  END
$$$$

  -OEChem-01062216083D

 29 29  0     1  0  0  0  0  0999 V2000
   -3.4723   -2.3566    1.2181 H   0  0  0  0  0  0  0  0  0  0  0  0
   -3.3292   -1.4506    0.6220 C   0  0  0  0  0  0  0  0  0  0  0  0
   -3.8862   -0.6334    1.0870 H   0  0  0  0  0  0  0  0  0  0  0  0
   -3.7206   -1.6246   -0.3830 H   0  0  0  0  0  0  0  0  0  0  0  0
   -1.8550   -1.0996    0.5515 C   0  0  0  0  0  0  0  0  0  0  0  0
   -1.0418   -1.8312    1.0837 O   0  0  0  0  0  0  0  0  0  0  0  0
   -1.4686    0.0542   -0.1053 N   0  0  0  0  0  0  0  0  0  0  0  0
   -2.2330    0.6575   -0.3966 H   0  0  0  0  0  0  0  0  0  0  0  0
   -0.1201    0.6635   -0.0822 C   0  0  1  0  0  0  0  0  0  0  0  0
   -0.0502    1.3733   -0.9113 H   0  0  0  0  0  0  0  0  0  0  0  0
    0.0158    1.4510    1.2373 C   0  0  0  0  0  0  0  0  0  0  0  0
   -0.1436    0.7771    2.0867 H   0  0  0  0  0  0  0  0  0  0  0  0
    1.0272    1.8604    1.3325 H   0  0  0  0  0  0  0  0  0  0  0  0
   -0.9728    2.5888    1.2757 C   0  0  0  0  0  0  0  0  0  0  0  0
   -0.9137    3.7840    0.5933 N   0  0  0  0  0  0  0  0  0  0  0  0
   -0.1606    4.0947   -0.0173 H   0  0  0  0  0  0  0  0  0  0  0  0
   -2.0242    4.5332    0.9347 C   0  0  0  0  0  0  0  0  0  0  0  0
   -2.2493    5.5260    0.5554 H   0  0  0  0  0  0  0  0  0  0  0  0
   -2.7722    3.8695    1.7832 N   0  0  0  0  0  0  0  0  0  0  0  0
   -2.1181    2.6656    2.0225 C   0  0  0  0  0  0  0  0  0  0  0  0
   -2.4723    1.8911    2.6964 H   0  0  0  0  0  0  0  0  0  0  0  0
    1.0611   -0.3251   -0.2710 C   0  0  0  0  0  0  0  0  0  0  0  0
    1.9396   -0.4478    0.5751 O   0  0  0  0  0  0  0  0  0  0  0  0
    1.3041   -0.8278   -1.5377 N   0  0  0  0  0  0  0  0  0  0  0  0
    0.5324   -0.7866   -2.1959 H   0  0  0  0  0  0  0  0  0  0  0  0
    2.4223   -1.7166   -1.8329 C   0  0  0  0  0  0  0  0  0  0  0  0
    2.3551   -2.6293   -1.2312 H   0  0  0  0  0  0  0  0  0  0  0  0
    2.4142   -1.9963   -2.8906 H   0  0  0  0  0  0  0  0  0  0  0  0
    3.3745   -1.2208   -1.6159 H   0  0  0  0  0  0  0  0  0  0  0  0
  1  2  1  0  0  0  0
  2  3  1  0  0  0  0
  2  4  1  0  0  0  0
  2  5  1  0  0  0  0
  5  6  2  0  0  0  0
  5  7  1  0  0  0  0
  7  8  1  0  0  0  0
  7  9  1  0  0  0  0
  9 10  1  0  0  0  0
  9 11  1  0  0  0  0
  9 22  1  0  0  0  0
 11 12  1  0  0  0  0
 11 13  1  0  0  0  0
 11 14  1  0  0  0  0
 14 15  1  0  0  0  0
 14 20  2  0  0  0  0
 15 16  1  0  0  0  0
 15 17  1  0  0  0  0
 17 18  1  0  0  0  0
 17 19  2  0  0  0  0
 19 20  1  0  0  0  0
 20 21  1  0  0  0  0
 22 23  2  0  0  0  0
 22 24  1  0  0  0  0
 24 25  1  0  0  0  0
 24 26  1  0  0  0  0
 26 27  1  0  0  0  0
 26 28  1  0  0  0  0
 26 29  1  0  0  0  0
M  END
$$$$

  -OEChem-01062216083D

 29 29  0     1  0  0  0  0  0999 V2000
   -3.4989   -2.3594    1.2162 H   0  0  0  0  0  0  0  0  0  0  0  0
   -3.3487   -1.4580    0.6152 C   0  0  0  0  0  0  0  0  0  0  0  0
   -3.9143   -0.6385    1.0651 H   0  0  0  0  0  0  0  0  0  0  0  0
   -3.7242   -1.6419   -0.3941 H   0  0  0  0  0  0  0  0  0  0  0  0
   -1.8742   -1.1052    0.5643 C   0  0  0  0  0  0  0  0  0  0  0  0
   -1.0705   -1.8338    1.1134 O   0  0  0  0  0  0  0  0  0  0  0  0
   -1.4807    0.0423   -0.0990 N   0  0  0  0  0  0  0  0  0  0  0  0
   -2.2425    0.6398   -0.4074 H   0  0  0  0  0  0  0  0  0  0  0  0
   -0.1304    0.6478   -0.0877 C   0  0  1  0  0  0  0  0  0  0  0  0
   -0.0687    1.3573   -0.9176 H   0  0  0  0  0  0  0  0  0  0  0  0
    0.0204    1.4387    1.2274 C   0  0  0  0  0  0  0  0  0  0  0  0
   -0.1364    0.7679    2.0800 H   0  0  0  0  0  0  0  0  0  0  0  0
    1.0359    1.8397    1.3127 H   0  0  0  0  0  0  0  0  0  0  0  0
   -0.9622    2.5812    1.2735 C   0  0  0  0  0  0  0  0  0  0  0  0
   -0.9038    3.7748    0.5882 N   0  0  0  0  0  0  0  0  0  0  0  0
   -0.1544    4.0813   -0.0288 H   0  0  0  0  0  0  0  0  0  0  0  0
   -2.0079    4.5296    0.9380 C   0  0  0  0  0  0  0  0  0  0  0  0
   -2.2315    5.5230    0.5591 H   0  0  0  0  0  0  0  0  0  0  0  0
   -2.7516    3.8703    1.7936 N   0  0  0  0  0  0  0  0  0  0  0  0
   -2.1012    2.6635    2.0291 C   0  0  0  0  0  0  0  0  0  0  0  0
   -2.4539    1.8911    2.7064 H   0  0  0  0  0  0  0  0  0  0  0  0
    1.0563   -0.3349   -0.2761 C   0  0  0  0  0  0  0  0  0  0  0  0
    1.8122   -0.6169    0.6464 O   0  0  0  0  0  0  0  0  0  0  0  0
    1.4946   -0.5968   -1.5633 N   0  0  0  0  0  0  0  0  0  0  0  0
    0.8421   -0.4048   -2.3166 H   0  0  0  0  0  0  0  0  0  0  0  0
    2.6652   -1.4186   -1.8500 C   0  0  0  0  0  0  0  0  0  0  0  0
    2.5379   -2.4241   -1.4349 H   0  0  0  0  0  0  0  0  0  0  0  0
    2.8117   -1.5047   -2.9308 H   0  0  0  0  0  0  0  0  0  0  0  0
    3.5650   -0.9699   -1.4157 H   0  0  0  0  0  0  0  0  0  0  0  0
  1  2  1  0  0  0  0
  2  3  1  0  0  0  0
  2  4  1  0  0  0  0
  2  5  1  0  0  0  0
  5  6  2  0  0  0  0
  5  7  1  0  0  0  0
  7  8  1  0  0  0  0
  7  9  1  0  0  0  0
  9 10  1  0  0  0  0
  9 11  1  0  0  0  0
  9 22  1  0  0  0  0
 11 12  1  0  0  0  0
 11 13  1  0  0  0  0
 11 14  1  0  0  0  0
 14 15  1  0  0  0  0
 14 20  2  0  0  0  0
 15 16  1  0  0  0  0
 15 17  1  0  0  0  0
 17 18  1  0  0  0  0
 17 19  2  0  0  0  0
 19 20  1  0  0  0  0
 20 21  1  0  0  0  0
 22 23  2  0  0  0  0
 22 24  1  0  0  0  0
 24 25  1  0  0  0  0
 24 26  1  0  0  0  0
 26 27  1  0  0  0  0
 26 28  1  0  0  0  0
 26 29  1  0  0  0  0
M  END
$$$$

  -OEChem-01062216083D

 29 29  0     1  0  0  0  0  0999 V2000
   -3.5467   -2.3533    1.2115 H   0  0  0  0  0  0  0  0  0  0  0  0
   -3.3796   -1.4578    0.6061 C   0  0  0  0  0  0  0  0  0  0  0  0
   -3.9506   -0.6318    1.0370 H   0  0  0  0  0  0  0  0  0  0  0  0
   -3.7343   -1.6489   -0.4092 H   0  0  0  0  0  0  0  0  0  0  0  0
   -1.9025   -1.1118    0.5828 C   0  0  0  0  0  0  0  0  0  0  0  0
   -1.1178   -1.8333    1.1660 O   0  0  0  0  0  0  0  0  0  0  0  0
   -1.4945    0.0259   -0.0886 N   0  0  0  0  0  0  0  0  0  0  0  0
   -2.2512    0.6120   -0.4290 H   0  0  0  0  0  0  0  0  0  0  0  0
   -0.1412    0.6260   -0.0966 C   0  0  1  0  0  0  0  0  0  0  0  0
   -0.0947    1.3340   -0.9285 H   0  0  0  0  0  0  0  0  0  0  0  0
    0.0312    1.4202    1.2126 C   0  0  0  0  0  0  0  0  0  0  0  0
   -0.1196    0.7529    2.0693 H   0  0  0  0  0  0  0  0  0  0  0  0
    1.0508    1.8132    1.2833 H   0  0  0  0  0  0  0  0  0  0  0  0
   -0.9451    2.5680    1.2685 C   0  0  0  0  0  0  0  0  0  0  0  0
   -0.8926    3.7598    0.5795 N   0  0  0  0  0  0  0  0  0  0  0  0
   -0.1502    4.0642   -0.0468 H   0  0  0  0  0  0  0  0  0  0  0  0
   -1.9910    4.5174    0.9412 C   0  0  0  0  0  0  0  0  0  0  0  0
   -2.2178    5.5098    0.5619 H   0  0  0  0  0  0  0  0  0  0  0  0
   -2.7247    3.8627    1.8086 N   0  0  0  0  0  0  0  0  0  0  0  0
   -2.0744    2.6547    2.0383 C   0  0  0  0  0  0  0  0  0  0  0  0
   -2.4202    1.8839    2.7210 H   0  0  0  0  0  0  0  0  0  0  0  0
    1.0565   -0.3440   -0.2870 C   0  0  0  0  0  0  0  0  0  0  0  0
    1.6826   -0.7926    0.6652 O   0  0  0  0  0  0  0  0  0  0  0  0
    1.6892   -0.3712   -1.5195 N   0  0  0  0  0  0  0  0  0  0  0  0
    1.1756   -0.0020   -2.3131 H   0  0  0  0  0  0  0  0  0  0  0  0
    2.9146   -1.1224   -1.7701 C   0  0  0  0  0  0  0  0  0  0  0  0
    2.7649   -2.1841   -1.5468 H   0  0  0  0  0  0  0  0  0  0  0  0
    3.2098   -1.0269   -2.8193 H   0  0  0  0  0  0  0  0  0  0  0  0
    3.7310   -0.7436   -1.1464 H   0  0  0  0  0  0  0  0  0  0  0  0
  1  2  1  0  0  0  0
  2  3  1  0  0  0  0
  2  4  1  0  0  0  0
  2  5  1  0  0  0  0
  5  6  2  0  0  0  0
  5  7  1  0  0  0  0
  7  8  1  0  0  0  0
  7  9  1  0  0  0  0
  9 10  1  0  0  0  0
  9 11  1  0  0  0  0
  9 22  1  0  0  0  0
 11 12  1  0  0  0  0
 11 13  1  0  0  0  0
 11 14  1  0  0  0  0
 14 15  1  0  0  0  0
 14 20  2  0  0  0  0
 15 16  1  0  0  0  0
 15 17  1  0  0  0  0
 17 18  1  0  0  0  0
 17 19  2  0  0  0  0
 19 20  1  0  0  0  0
 20 21  1  0  0  0  0
 22 23  2  0  0  0  0
 22 24  1  0  0  0  0
 24 25  1  0  0  0  0
 24 26  1  0  0  0  0
 26 27  1  0  0  0  0
 26 28  1  0  0  0  0
 26 29  1  0  0  0  0
M  END
$$$$

  -OEChem-01062216083D

 29 29  0     1  0  0  0  0  0999 V2000
   -3.5806   -2.3744    1.1783 H   0  0  0  0  0  0  0  0  0  0  0  0
   -3.3927   -1.4974    0.5520 C   0  0  0  0  0  0  0  0  0  0  0  0
   -4.0256   -0.6769    0.8985 H   0  0  0  0  0  0  0  0  0  0  0  0
   -3.6531   -1.7414   -0.4805 H   0  0  0  0  0  0  0  0  0  0  0  0
   -1.9314   -1.0975    0.6379 C   0  0  0  0  0  0  0  0  0  0  0  0
   -1.1909   -1.7392    1.3552 O   0  0  0  0  0  0  0  0  0  0  0  0
   -1.5079    0.0213   -0.0563 N   0  0  0  0  0  0  0  0  0  0  0  0
   -2.2489    0.5434   -0.5138 H   0  0  0  0  0  0  0  0  0  0  0  0
   -0.1518    0.6162   -0.1014 C   0  0  1  0  0  0  0  0  0  0  0  0
   -0.1272    1.3156   -0.9412 H   0  0  0  0  0  0  0  0  0  0  0  0
    0.0523    1.4184    1.1979 C   0  0  0  0  0  0  0  0  0  0  0  0
   -0.0825    0.7570    2.0617 H   0  0  0  0  0  0  0  0  0  0  0  0
    1.0750    1.8069    1.2452 H   0  0  0  0  0  0  0  0  0  0  0  0
   -0.9176    2.5709    1.2712 C   0  0  0  0  0  0  0  0  0  0  0  0
   -0.8803    3.7607    0.5774 N   0  0  0  0  0  0  0  0  0  0  0  0
   -0.1523    4.0637   -0.0657 H   0  0  0  0  0  0  0  0  0  0  0  0
   -1.9681    4.5212    0.9645 C   0  0  0  0  0  0  0  0  0  0  0  0
   -2.2013    5.5138    0.5900 H   0  0  0  0  0  0  0  0  0  0  0  0
   -2.6822    3.8701    1.8505 N   0  0  0  0  0  0  0  0  0  0  0  0
   -2.0299    2.6601    2.0653 C   0  0  0  0  0  0  0  0  0  0  0  0
   -2.3621    1.8899    2.7553 H   0  0  0  0  0  0  0  0  0  0  0  0
    1.0567   -0.3411   -0.2934 C   0  0  0  0  0  0  0  0  0  0  0  0
    1.5386   -0.9864    0.6266 O   0  0  0  0  0  0  0  0  0  0  0  0
    1.8617   -0.1625   -1.4079 N   0  0  0  0  0  0  0  0  0  0  0  0
    1.4900    0.3932   -2.1710 H   0  0  0  0  0  0  0  0  0  0  0  0
    3.1218   -0.8712   -1.6089 C   0  0  0  0  0  0  0  0  0  0  0  0
    2.9621   -1.9544   -1.5757 H   0  0  0  0  0  0  0  0  0  0  0  0
    3.5500   -0.6149   -2.5826 H   0  0  0  0  0  0  0  0  0  0  0  0
    3.8431   -0.5981   -0.8315 H   0  0  0  0  0  0  0  0  0  0  0  0
  1  2  1  0  0  0  0
  2  3  1  0  0  0  0
  2  4  1  0  0  0  0
  2  5  1  0  0  0  0
  5  6  2  0  0  0  0
  5  7  1  0  0  0  0
  7  8  1  0  0  0  0
  7  9  1  0  0  0  0
  9 10  1  0  0  0  0
  9 11  1  0  0  0  0
  9 22  1  0  0  0  0
 11 12  1  0  0  0  0
 11 13  1  0  0  0  0
 11 14  1  0  0  0  0
 14 15  1  0  0  0  0
 14 20  2  0  0  0  0
 15 16  1  0  0  0  0
 15 17  1  0  0  0  0
 17 18  1  0  0  0  0
 17 19  2  0  0  0  0
 19 20  1  0  0  0  0
 20 21  1  0  0  0  0
 22 23  2  0  0  0  0
 22 24  1  0  0  0  0
 24 25  1  0  0  0  0
 24 26  1  0  0  0  0
 26 27  1  0  0  0  0
 26 28  1  0  0  0  0
 26 29  1  0  0  0  0
M  END
$$$$

  -OEChem-01062216083D

 29 29  0     1  0  0  0  0  0999 V2000
   -3.3009   -2.6553    1.0287 H   0  0  0  0  0  0  0  0  0  0  0  0
   -3.1611   -1.7971    0.3652 C   0  0  0  0  0  0  0  0  0  0  0  0
   -4.0474   -1.1607    0.4198 H   0  0  0  0  0  0  0  0  0  0  0  0
   -3.0417   -2.1615   -0.6577 H   0  0  0  0  0  0  0  0  0  0  0  0
   -1.9320   -1.0121    0.7829 C   0  0  0  0  0  0  0  0  0  0  0  0
   -1.4001   -1.2683    1.8488 O   0  0  0  0  0  0  0  0  0  0  0  0
   -1.5635    0.1022    0.0494 N   0  0  0  0  0  0  0  0  0  0  0  0
   -2.1605    0.2789   -0.7514 H   0  0  0  0  0  0  0  0  0  0  0  0
   -0.2032    0.6863   -0.0173 C   0  0  1  0  0  0  0  0  0  0  0  0
   -0.1933    1.3640   -0.8751 H   0  0  0  0  0  0  0  0  0  0  0  0
    0.0613    1.5217    1.2487 C   0  0  0  0  0  0  0  0  0  0  0  0
   -0.0528    0.8949    2.1396 H   0  0  0  0  0  0  0  0  0  0  0  0
    1.0912    1.8923    1.2476 H   0  0  0  0  0  0  0  0  0  0  0  0
   -0.8804    2.6966    1.3195 C   0  0  0  0  0  0  0  0  0  0  0  0
   -0.8444    3.8658    0.5908 N   0  0  0  0  0  0  0  0  0  0  0  0
   -0.1417    4.1321   -0.0943 H   0  0  0  0  0  0  0  0  0  0  0  0
   -1.9035    4.6582    0.9930 C   0  0  0  0  0  0  0  0  0  0  0  0
   -2.1314    5.6437    0.5970 H   0  0  0  0  0  0  0  0  0  0  0  0
   -2.5969    4.0495    1.9236 N   0  0  0  0  0  0  0  0  0  0  0  0
   -1.9659    2.8284    2.1451 C   0  0  0  0  0  0  0  0  0  0  0  0
   -2.2913    2.0829    2.8651 H   0  0  0  0  0  0  0  0  0  0  0  0
    0.9921   -0.2852   -0.2162 C   0  0  0  0  0  0  0  0  0  0  0  0
    1.0744   -1.3853    0.3066 O   0  0  0  0  0  0  0  0  0  0  0  0
    1.9688    0.0527   -1.1394 N   0  0  0  0  0  0  0  0  0  0  0  0
    1.9012    0.9585   -1.5919 H   0  0  0  0  0  0  0  0  0  0  0  0
    3.1107   -0.8017   -1.4491 C   0  0  0  0  0  0  0  0  0  0  0  0
    2.7722   -1.7670   -1.8401 H   0  0  0  0  0  0  0  0  0  0  0  0
    3.7457   -0.3274   -2.2034 H   0  0  0  0  0  0  0  0  0  0  0  0
    3.7126   -0.9773   -0.5511 H   0  0  0  0  0  0  0  0  0  0  0  0
  1  2  1  0  0  0  0
  2  3  1  0  0  0  0
  2  4  1  0  0  0  0
  2  5  1  0  0  0  0
  5  6  2  0  0  0  0
  5  7  1  0  0  0  0
  7  8  1  0  0  0  0
  7  9  1  0  0  0  0
  9 10  1  0  0  0  0
  9 11  1  0  0  0  0
  9 22  1  0  0  0  0
 11 12  1  0  0  0  0
 11 13  1  0  0  0  0
 11 14  1  0  0  0  0
 14 15  1  0  0  0  0
 14 20  2  0  0  0  0
 15 16  1  0  0  0  0
 15 17  1  0  0  0  0
 17 18  1  0  0  0  0
 17 19  2  0  0  0  0
 19 20  1  0  0  0  0
 20 21  1  0  0  0  0
 22 23  2  0  0  0  0
 22 24  1  0  0  0  0
 24 25  1  0  0  0  0
 24 26  1  0  0  0  0
 26 27  1  0  0  0  0
 26 28  1  0  0  0  0
 26 29  1  0  0  0  0
M  END
$$$$

  -OEChem-01062216083D

 29 29  0     1  0  0  0  0  0999 V2000
   -3.2572   -2.6695    1.0559 H   0  0  0  0  0  0  0  0  0  0  0  0
   -3.1134   -1.8324    0.3670 C   0  0  0  0  0  0  0  0  0  0  0  0
   -4.0147   -1.2149    0.3674 H   0  0  0  0  0  0  0  0  0  0  0  0
   -2.9482   -2.2303   -0.6369 H   0  0  0  0  0  0  0  0  0  0  0  0
   -1.9168   -1.0057    0.7970 C   0  0  0  0  0  0  0  0  0  0  0  0
   -1.3741   -1.2466    1.8632 O   0  0  0  0  0  0  0  0  0  0  0  0
   -1.5629    0.1123    0.0613 N   0  0  0  0  0  0  0  0  0  0  0  0
   -2.1306    0.2514   -0.7678 H   0  0  0  0  0  0  0  0  0  0  0  0
   -0.2002    0.6917    0.0174 C   0  0  1  0  0  0  0  0  0  0  0  0
   -0.1705    1.3601   -0.8475 H   0  0  0  0  0  0  0  0  0  0  0  0
    0.0454    1.5396    1.2802 C   0  0  0  0  0  0  0  0  0  0  0  0
   -0.0876    0.9243    2.1763 H   0  0  0  0  0  0  0  0  0  0  0  0
    1.0761    1.9069    1.2950 H   0  0  0  0  0  0  0  0  0  0  0  0
   -0.8910    2.7203    1.3247 C   0  0  0  0  0  0  0  0  0  0  0  0
   -0.8406    3.8848    0.5887 N   0  0  0  0  0  0  0  0  0  0  0  0
   -0.1332    4.1407   -0.0955 H   0  0  0  0  0  0  0  0  0  0  0  0
   -1.9010    4.6851    0.9724 C   0  0  0  0  0  0  0  0  0  0  0  0
   -2.1191    5.6694    0.5676 H   0  0  0  0  0  0  0  0  0  0  0  0
   -2.6085    4.0860    1.8985 N   0  0  0  0  0  0  0  0  0  0  0  0
   -1.9879    2.8624    2.1334 C   0  0  0  0  0  0  0  0  0  0  0  0
   -2.3279    2.1224    2.8522 H   0  0  0  0  0  0  0  0  0  0  0  0
    0.9889   -0.2924   -0.1657 C   0  0  0  0  0  0  0  0  0  0  0  0
    0.8758   -1.5057   -0.0604 O   0  0  0  0  0  0  0  0  0  0  0  0
    2.1234    0.1678   -0.8157 N   0  0  0  0  0  0  0  0  0  0  0  0
    2.2057    1.1671   -0.9722 H   0  0  0  0  0  0  0  0  0  0  0  0
    3.2338   -0.6956   -1.2056 C   0  0  0  0  0  0  0  0  0  0  0  0
    2.9009   -1.4414   -1.9352 H   0  0  0  0  0  0  0  0  0  0  0  0
    4.0345   -0.1030   -1.6582 H   0  0  0  0  0  0  0  0  0  0  0  0
    3.6406   -1.2153   -0.3316 H   0  0  0  0  0  0  0  0  0  0  0  0
  1  2  1  0  0  0  0
  2  3  1  0  0  0  0
  2  4  1  0  0  0  0
  2  5  1  0  0  0  0
  5  6  2  0  0  0  0
  5  7  1  0  0  0  0
  7  8  1  0  0  0  0
  7  9  1  0  0  0  0
  9 10  1  0  0  0  0
  9 11  1  0  0  0  0
  9 22  1  0  0  0  0
 11 12  1  0  0  0  0
 11 13  1  0  0  0  0
 11 14  1  0  0  0  0
 14 15  1  0  0  0  0
 14 20  2  0  0  0  0
 15 16  1  0  0  0  0
 15 17  1  0  0  0  0
 17 18  1  0  0  0  0
 17 19  2  0  0  0  0
 19 20  1  0  0  0  0
 20 21  1  0  0  0  0
 22 23  2  0  0  0  0
 22 24  1  0  0  0  0
 24 25  1  0  0  0  0
 24 26  1  0  0  0  0
 26 27  1  0  0  0  0
 26 28  1  0  0  0  0
 26 29  1  0  0  0  0
M  END
$$$$

  -OEChem-01062216083D

 29 29  0     1  0  0  0  0  0999 V2000
   -3.2560   -2.6497    1.0781 H   0  0  0  0  0  0  0  0  0  0  0  0
   -3.1145   -1.8168    0.3838 C   0  0  0  0  0  0  0  0  0  0  0  0
   -4.0055   -1.1849    0.4036 H   0  0  0  0  0  0  0  0  0  0  0  0
   -2.9793   -2.2191   -0.6229 H   0  0  0  0  0  0  0  0  0  0  0  0
   -1.8951   -1.0084    0.7833 C   0  0  0  0  0  0  0  0  0  0  0  0
   -1.2994   -1.2857    1.8127 O   0  0  0  0  0  0  0  0  0  0  0  0
   -1.5544    0.1171    0.0530 N   0  0  0  0  0  0  0  0  0  0  0  0
   -2.1259    0.2636   -0.7724 H   0  0  0  0  0  0  0  0  0  0  0  0
   -0.1941    0.7010    0.0193 C   0  0  1  0  0  0  0  0  0  0  0  0
   -0.1523    1.3705   -0.8443 H   0  0  0  0  0  0  0  0  0  0  0  0
    0.0369    1.5468    1.2877 C   0  0  0  0  0  0  0  0  0  0  0  0
   -0.1021    0.9291    2.1810 H   0  0  0  0  0  0  0  0  0  0  0  0
    1.0639    1.9224    1.3153 H   0  0  0  0  0  0  0  0  0  0  0  0
   -0.9066    2.7218    1.3252 C   0  0  0  0  0  0  0  0  0  0  0  0
   -0.8552    3.8873    0.5907 N   0  0  0  0  0  0  0  0  0  0  0  0
   -0.1518    4.1404   -0.0990 H   0  0  0  0  0  0  0  0  0  0  0  0
   -1.9202    4.6841    0.9689 C   0  0  0  0  0  0  0  0  0  0  0  0
   -2.1411    5.6665    0.5613 H   0  0  0  0  0  0  0  0  0  0  0  0
   -2.6291    4.0837    1.8931 N   0  0  0  0  0  0  0  0  0  0  0  0
   -2.0061    2.8621    2.1307 C   0  0  0  0  0  0  0  0  0  0  0  0
   -2.3450    2.1227    2.8505 H   0  0  0  0  0  0  0  0  0  0  0  0
    0.9816   -0.2982   -0.1657 C   0  0  0  0  0  0  0  0  0  0  0  0
    0.7920   -1.4897   -0.3767 O   0  0  0  0  0  0  0  0  0  0  0  0
    2.2280    0.1994   -0.5128 N   0  0  0  0  0  0  0  0  0  0  0  0
    2.3851    1.1957   -0.4021 H   0  0  0  0  0  0  0  0  0  0  0  0
    3.3557   -0.6488   -0.8850 C   0  0  0  0  0  0  0  0  0  0  0  0
    3.1362   -1.1952   -1.8084 H   0  0  0  0  0  0  0  0  0  0  0  0
    4.2502   -0.0404   -1.0483 H   0  0  0  0  0  0  0  0  0  0  0  0
    3.5697   -1.3717   -0.0905 H   0  0  0  0  0  0  0  0  0  0  0  0
  1  2  1  0  0  0  0
  2  3  1  0  0  0  0
  2  4  1  0  0  0  0
  2  5  1  0  0  0  0
  5  6  2  0  0  0  0
  5  7  1  0  0  0  0
  7  8  1  0  0  0  0
  7  9  1  0  0  0  0
  9 10  1  0  0  0  0
  9 11  1  0  0  0  0
  9 22  1  0  0  0  0
 11 12  1  0  0  0  0
 11 13  1  0  0  0  0
 11 14  1  0  0  0  0
 14 15  1  0  0  0  0
 14 20  2  0  0  0  0
 15 16  1  0  0  0  0
 15 17  1  0  0  0  0
 17 18  1  0  0  0  0
 17 19  2  0  0  0  0
 19 20  1  0  0  0  0
 20 21  1  0  0  0  0
 22 23  2  0  0  0  0
 22 24  1  0  0  0  0
 24 25  1  0  0  0  0
 24 26  1  0  0  0  0
 26 27  1  0  0  0  0
 26 28  1  0  0  0  0
 26 29  1  0  0  0  0
M  END
$$$$

  -OEChem-01062216083D

 29 29  0     1  0  0  0  0  0999 V2000
   -3.2251   -2.7001    0.9471 H   0  0  0  0  0  0  0  0  0  0  0  0
   -3.1354   -1.7793    0.3640 C   0  0  0  0  0  0  0  0  0  0  0  0
   -3.9814   -1.1289    0.5979 H   0  0  0  0  0  0  0  0  0  0  0  0
   -3.1595   -2.0336   -0.6983 H   0  0  0  0  0  0  0  0  0  0  0  0
   -1.8332   -1.0764    0.6966 C   0  0  0  0  0  0  0  0  0  0  0  0
   -1.1072   -1.5392    1.5624 O   0  0  0  0  0  0  0  0  0  0  0  0
   -1.5095    0.0941    0.0330 N   0  0  0  0  0  0  0  0  0  0  0  0
   -2.1268    0.3351   -0.7355 H   0  0  0  0  0  0  0  0  0  0  0  0
   -0.1674    0.7160    0.0382 C   0  0  1  0  0  0  0  0  0  0  0  0
   -0.2119    1.5771   -0.6345 H   0  0  0  0  0  0  0  0  0  0  0  0
    0.2092    1.2545    1.4369 C   0  0  0  0  0  0  0  0  0  0  0  0
    0.1874    0.4540    2.1816 H   0  0  0  0  0  0  0  0  0  0  0  0
    1.2277    1.6520    1.4310 H   0  0  0  0  0  0  0  0  0  0  0  0
   -0.7278    2.3630    1.8411 C   0  0  0  0  0  0  0  0  0  0  0  0
   -0.7590    3.6641    1.3871 N   0  0  0  0  0  0  0  0  0  0  0  0
   -0.1347    4.0834    0.7020 H   0  0  0  0  0  0  0  0  0  0  0  0
   -1.7814    4.3260    2.0418 C   0  0  0  0  0  0  0  0  0  0  0  0
   -2.0493    5.3676    1.8894 H   0  0  0  0  0  0  0  0  0  0  0  0
   -2.3845    3.5151    2.8763 N   0  0  0  0  0  0  0  0  0  0  0  0
   -1.7349    2.2891    2.7672 C   0  0  0  0  0  0  0  0  0  0  0  0
   -1.9932    1.3983    3.3322 H   0  0  0  0  0  0  0  0  0  0  0  0
    0.9369   -0.2031   -0.5469 C   0  0  0  0  0  0  0  0  0  0  0  0
    0.6420   -1.1961   -1.2024 O   0  0  0  0  0  0  0  0  0  0  0  0
    2.2494    0.2370   -0.6081 N   0  0  0  0  0  0  0  0  0  0  0  0
    2.4938    1.0638   -0.0733 H   0  0  0  0  0  0  0  0  0  0  0  0
    3.3199   -0.5293   -1.2368 C   0  0  0  0  0  0  0  0  0  0  0  0
    3.1097   -0.6807   -2.3009 H   0  0  0  0  0  0  0  0  0  0  0  0
    4.2712    0.0037   -1.1463 H   0  0  0  0  0  0  0  0  0  0  0  0
    3.4241   -1.5078   -0.7558 H   0  0  0  0  0  0  0  0  0  0  0  0
  1  2  1  0  0  0  0
  2  3  1  0  0  0  0
  2  4  1  0  0  0  0
  2  5  1  0  0  0  0
  5  6  2  0  0  0  0
  5  7  1  0  0  0  0
  7  8  1  0  0  0  0
  7  9  1  0  0  0  0
  9 10  1  0  0  0  0
  9 11  1  0  0  0  0
  9 22  1  0  0  0  0
 11 12  1  0  0  0  0
 11 13  1  0  0  0  0
 11 14  1  0  0  0  0
 14 15  1  0  0  0  0
 14 20  2  0  0  0  0
 15 16  1  0  0  0  0
 15 17  1  0  0  0  0
 17 18  1  0  0  0  0
 17 19  2  0  0  0  0
 19 20  1  0  0  0  0
 20 21  1  0  0  0  0
 22 23  2  0  0  0  0
 22 24  1  0  0  0  0
 24 25  1  0  0  0  0
 24 26  1  0  0  0  0
 26 27  1  0  0  0  0
 26 28  1  0  0  0  0
 26 29  1  0  0  0  0
M  END
$$$$

  -OEChem-01062216083D

 29 29  0     1  0  0  0  0  0999 V2000
   -3.1937   -2.6978    0.9471 H   0  0  0  0  0  0  0  0  0  0  0  0
   -3.1130   -1.7731    0.3686 C   0  0  0  0  0  0  0  0  0  0  0  0
   -3.9528   -1.1226    0.6238 H   0  0  0  0  0  0  0  0  0  0  0  0
   -3.1588   -2.0196   -0.6949 H   0  0  0  0  0  0  0  0  0  0  0  0
   -1.8031   -1.0751    0.6806 C   0  0  0  0  0  0  0  0  0  0  0  0
   -1.0498   -1.5563    1.5126 O   0  0  0  0  0  0  0  0  0  0  0  0
   -1.4915    0.1042    0.0283 N   0  0  0  0  0  0  0  0  0  0  0  0
   -2.1143    0.3543   -0.7332 H   0  0  0  0  0  0  0  0  0  0  0  0
   -0.1565    0.7390    0.0444 C   0  0  1  0  0  0  0  0  0  0  0  0
   -0.1990    1.6021   -0.6255 H   0  0  0  0  0  0  0  0  0  0  0  0
    0.2011    1.2780    1.4484 C   0  0  0  0  0  0  0  0  0  0  0  0
    0.1806    0.4744    2.1900 H   0  0  0  0  0  0  0  0  0  0  0  0
    1.2131    1.6909    1.4529 H   0  0  0  0  0  0  0  0  0  0  0  0
   -0.7510    2.3754    1.8466 C   0  0  0  0  0  0  0  0  0  0  0  0
   -0.7895    3.6767    1.3939 N   0  0  0  0  0  0  0  0  0  0  0  0
   -0.1669    4.1004    0.7095 H   0  0  0  0  0  0  0  0  0  0  0  0
   -1.8191    4.3309    2.0448 C   0  0  0  0  0  0  0  0  0  0  0  0
   -2.0935    5.3708    1.8922 H   0  0  0  0  0  0  0  0  0  0  0  0
   -2.4196    3.5148    2.8765 N   0  0  0  0  0  0  0  0  0  0  0  0
   -1.7603    2.2938    2.7696 C   0  0  0  0  0  0  0  0  0  0  0  0
   -2.0120    1.4020    3.3361 H   0  0  0  0  0  0  0  0  0  0  0  0
    0.9424   -0.1819   -0.5484 C   0  0  0  0  0  0  0  0  0  0  0  0
    0.6437   -1.0187   -1.3934 O   0  0  0  0  0  0  0  0  0  0  0  0
    2.2878    0.0839   -0.3495 N   0  0  0  0  0  0  0  0  0  0  0  0
    2.5294    0.7437    0.3825 H   0  0  0  0  0  0  0  0  0  0  0  0
    3.3522   -0.7241   -0.9344 C   0  0  0  0  0  0  0  0  0  0  0  0
    3.2977   -0.6976   -2.0278 H   0  0  0  0  0  0  0  0  0  0  0  0
    4.3303   -0.3399   -0.6296 H   0  0  0  0  0  0  0  0  0  0  0  0
    3.2696   -1.7646   -0.6025 H   0  0  0  0  0  0  0  0  0  0  0  0
  1  2  1  0  0  0  0
  2  3  1  0  0  0  0
  2  4  1  0  0  0  0
  2  5  1  0  0  0  0
  5  6  2  0  0  0  0
  5  7  1  0  0  0  0
  7  8  1  0  0  0  0
  7  9  1  0  0  0  0
  9 10  1  0  0  0  0
  9 11  1  0  0  0  0
  9 22  1  0  0  0  0
 11 12  1  0  0  0  0
 11 13  1  0  0  0  0
 11 14  1  0  0  0  0
 14 15  1  0  0  0  0
 14 20  2  0  0  0  0
 15 16  1  0  0  0  0
 15 17  1  0  0  0  0
 17 18  1  0  0  0  0
 17 19  2  0  0  0  0
 19 20  1  0  0  0  0
 20 21  1  0  0  0  0
 22 23  2  0  0  0  0
 22 24  1  0  0  0  0
 24 25  1  0  0  0  0
 24 26  1  0  0  0  0
 26 27  1  0  0  0  0
 26 28  1  0  0  0  0
 26 29  1  0  0  0  0
M  END
$$$$

  -OEChem-01062216083D

 29 29  0     1  0  0  0  0  0999 V2000
   -3.1640   -2.7018    0.9390 H   0  0  0  0  0  0  0  0  0  0  0  0
   -3.0925   -1.7703    0.3706 C   0  0  0  0  0  0  0  0  0  0  0  0
   -3.9297   -1.1242    0.6456 H   0  0  0  0  0  0  0  0  0  0  0  0
   -3.1529   -2.0039   -0.6952 H   0  0  0  0  0  0  0  0  0  0  0  0
   -1.7793   -1.0740    0.6719 C   0  0  0  0  0  0  0  0  0  0  0  0
   -1.0076   -1.5660    1.4807 O   0  0  0  0  0  0  0  0  0  0  0  0
   -1.4752    0.1103    0.0267 N   0  0  0  0  0  0  0  0  0  0  0  0
   -2.1064    0.3743   -0.7233 H   0  0  0  0  0  0  0  0  0  0  0  0
   -0.1465    0.7554    0.0532 C   0  0  1  0  0  0  0  0  0  0  0  0
   -0.1873    1.6183   -0.6175 H   0  0  0  0  0  0  0  0  0  0  0  0
    0.1973    1.2978    1.4590 C   0  0  0  0  0  0  0  0  0  0  0  0
    0.1785    0.4943    2.2011 H   0  0  0  0  0  0  0  0  0  0  0  0
    1.2054    1.7217    1.4662 H   0  0  0  0  0  0  0  0  0  0  0  0
   -0.7655    2.3878    1.8509 C   0  0  0  0  0  0  0  0  0  0  0  0
   -0.8085    3.6879    1.3960 N   0  0  0  0  0  0  0  0  0  0  0  0
   -0.1843    4.1128    0.7138 H   0  0  0  0  0  0  0  0  0  0  0  0
   -1.8459    4.3371    2.0391 C   0  0  0  0  0  0  0  0  0  0  0  0
   -2.1251    5.3753    1.8830 H   0  0  0  0  0  0  0  0  0  0  0  0
   -2.4472    3.5186    2.8681 N   0  0  0  0  0  0  0  0  0  0  0  0
   -1.7801    2.3017    2.7672 C   0  0  0  0  0  0  0  0  0  0  0  0
   -2.0297    1.4091    3.3330 H   0  0  0  0  0  0  0  0  0  0  0  0
    0.9500   -0.1665   -0.5400 C   0  0  0  0  0  0  0  0  0  0  0  0
    0.6925   -0.8314   -1.5374 O   0  0  0  0  0  0  0  0  0  0  0  0
    2.2661   -0.1104   -0.1110 N   0  0  0  0  0  0  0  0  0  0  0  0
    2.4400    0.3493    0.7769 H   0  0  0  0  0  0  0  0  0  0  0  0
    3.3135   -0.9620   -0.6627 C   0  0  0  0  0  0  0  0  0  0  0  0
    3.4291   -0.7816   -1.7367 H   0  0  0  0  0  0  0  0  0  0  0  0
    4.2693   -0.7502   -0.1739 H   0  0  0  0  0  0  0  0  0  0  0  0
    3.0700   -2.0183   -0.5067 H   0  0  0  0  0  0  0  0  0  0  0  0
  1  2  1  0  0  0  0
  2  3  1  0  0  0  0
  2  4  1  0  0  0  0
  2  5  1  0  0  0  0
  5  6  2  0  0  0  0
  5  7  1  0  0  0  0
  7  8  1  0  0  0  0
  7  9  1  0  0  0  0
  9 10  1  0  0  0  0
  9 11  1  0  0  0  0
  9 22  1  0  0  0  0
 11 12  1  0  0  0  0
 11 13  1  0  0  0  0
 11 14  1  0  0  0  0
 14 15  1  0  0  0  0
 14 20  2  0  0  0  0
 15 16  1  0  0  0  0
 15 17  1  0  0  0  0
 17 18  1  0  0  0  0
 17 19  2  0  0  0  0
 19 20  1  0  0  0  0
 20 21  1  0  0  0  0
 22 23  2  0  0  0  0
 22 24  1  0  0  0  0
 24 25  1  0  0  0  0
 24 26  1  0  0  0  0
 26 27  1  0  0  0  0
 26 28  1  0  0  0  0
 26 29  1  0  0  0  0
M  END
$$$$

  -OEChem-01062216083D

 29 29  0     1  0  0  0  0  0999 V2000
   -3.1657   -2.6848    0.9508 H   0  0  0  0  0  0  0  0  0  0  0  0
   -3.0965   -1.7482    0.3906 C   0  0  0  0  0  0  0  0  0  0  0  0
   -3.9128   -1.0912    0.7001 H   0  0  0  0  0  0  0  0  0  0  0  0
   -3.1968   -1.9680   -0.6750 H   0  0  0  0  0  0  0  0  0  0  0  0
   -1.7624   -1.0777    0.6571 C   0  0  0  0  0  0  0  0  0  0  0  0
   -0.9738   -1.5879    1.4381 O   0  0  0  0  0  0  0  0  0  0  0  0
   -1.4564    0.1078    0.0161 N   0  0  0  0  0  0  0  0  0  0  0  0
   -2.1041    0.4011   -0.7089 H   0  0  0  0  0  0  0  0  0  0  0  0
   -0.1324    0.7598    0.0540 C   0  0  1  0  0  0  0  0  0  0  0  0
   -0.1705    1.6232   -0.6165 H   0  0  0  0  0  0  0  0  0  0  0  0
    0.1973    1.3029    1.4619 C   0  0  0  0  0  0  0  0  0  0  0  0
    0.1735    0.4988    2.2035 H   0  0  0  0  0  0  0  0  0  0  0  0
    1.2054    1.7282    1.4736 H   0  0  0  0  0  0  0  0  0  0  0  0
   -0.7738    2.3878    1.8476 C   0  0  0  0  0  0  0  0  0  0  0  0
   -0.8193    3.6879    1.3934 N   0  0  0  0  0  0  0  0  0  0  0  0
   -0.1891    4.1170    0.7194 H   0  0  0  0  0  0  0  0  0  0  0  0
   -1.8656    4.3316    2.0275 C   0  0  0  0  0  0  0  0  0  0  0  0
   -2.1470    5.3690    1.8711 H   0  0  0  0  0  0  0  0  0  0  0  0
   -2.4719    3.5085    2.8485 N   0  0  0  0  0  0  0  0  0  0  0  0
   -1.7980    2.2949    2.7525 C   0  0  0  0  0  0  0  0  0  0  0  0
   -2.0504    1.3993    3.3127 H   0  0  0  0  0  0  0  0  0  0  0  0
    0.9686   -0.1594   -0.5303 C   0  0  0  0  0  0  0  0  0  0  0  0
    0.7993   -0.6439   -1.6433 O   0  0  0  0  0  0  0  0  0  0  0  0
    2.1948   -0.3307    0.0907 N   0  0  0  0  0  0  0  0  0  0  0  0
    2.2444   -0.0697    1.0707 H   0  0  0  0  0  0  0  0  0  0  0  0
    3.2240   -1.2201   -0.4343 C   0  0  0  0  0  0  0  0  0  0  0  0
    3.5205   -0.9115   -1.4423 H   0  0  0  0  0  0  0  0  0  0  0  0
    4.1097   -1.1931    0.2076 H   0  0  0  0  0  0  0  0  0  0  0  0
    2.8551   -2.2504   -0.4751 H   0  0  0  0  0  0  0  0  0  0  0  0
  1  2  1  0  0  0  0
  2  3  1  0  0  0  0
  2  4  1  0  0  0  0
  2  5  1  0  0  0  0
  5  6  2  0  0  0  0
  5  7  1  0  0  0  0
  7  8  1  0  0  0  0
  7  9  1  0  0  0  0
  9 10  1  0  0  0  0
  9 11  1  0  0  0  0
  9 22  1  0  0  0  0
 11 12  1  0  0  0  0
 11 13  1  0  0  0  0
 11 14  1  0  0  0  0
 14 15  1  0  0  0  0
 14 20  2  0  0  0  0
 15 16  1  0  0  0  0
 15 17  1  0  0  0  0
 17 18  1  0  0  0  0
 17 19  2  0  0  0  0
 19 20  1  0  0  0  0
 20 21  1  0  0  0  0
 22 23  2  0  0  0  0
 22 24  1  0  0  0  0
 24 25  1  0  0  0  0
 24 26  1  0  0  0  0
 26 27  1  0  0  0  0
 26 28  1  0  0  0  0
 26 29  1  0  0  0  0
M  END
$$$$

  -OEChem-01062216083D

 29 29  0     1  0  0  0  0  0999 V2000
   -3.1795   -2.6667    0.9669 H   0  0  0  0  0  0  0  0  0  0  0  0
   -3.1053   -1.7299    0.4073 C   0  0  0  0  0  0  0  0  0  0  0  0
   -3.9034   -1.0593    0.7349 H   0  0  0  0  0  0  0  0  0  0  0  0
   -3.2317   -1.9451   -0.6565 H   0  0  0  0  0  0  0  0  0  0  0  0
   -1.7549   -1.0828    0.6471 C   0  0  0  0  0  0  0  0  0  0  0  0
   -0.9536   -1.6115    1.4030 O   0  0  0  0  0  0  0  0  0  0  0  0
   -1.4437    0.1024    0.0088 N   0  0  0  0  0  0  0  0  0  0  0  0
   -2.1139    0.4370   -0.6771 H   0  0  0  0  0  0  0  0  0  0  0  0
   -0.1222    0.7561    0.0565 C   0  0  1  0  0  0  0  0  0  0  0  0
   -0.1572    1.6196   -0.6148 H   0  0  0  0  0  0  0  0  0  0  0  0
    0.1998    1.2993    1.4652 C   0  0  0  0  0  0  0  0  0  0  0  0
    0.1673    0.4959    2.2072 H   0  0  0  0  0  0  0  0  0  0  0  0
    1.2106    1.7192    1.4815 H   0  0  0  0  0  0  0  0  0  0  0  0
   -0.7754    2.3827    1.8432 C   0  0  0  0  0  0  0  0  0  0  0  0
   -0.8190    3.6817    1.3858 N   0  0  0  0  0  0  0  0  0  0  0  0
   -0.1845    4.1095    0.7146 H   0  0  0  0  0  0  0  0  0  0  0  0
   -1.8714    4.3252    2.0100 C   0  0  0  0  0  0  0  0  0  0  0  0
   -2.1550    5.3612    1.8471 H   0  0  0  0  0  0  0  0  0  0  0  0
   -2.4815    3.5034    2.8296 N   0  0  0  0  0  0  0  0  0  0  0  0
   -1.8042    2.2911    2.7428 C   0  0  0  0  0  0  0  0  0  0  0  0
   -2.0582    1.3974    3.3055 H   0  0  0  0  0  0  0  0  0  0  0  0
    0.9837   -0.1602   -0.5180 C   0  0  0  0  0  0  0  0  0  0  0  0
    0.9482   -0.4435   -1.7095 O   0  0  0  0  0  0  0  0  0  0  0  0
    2.0662   -0.5697    0.2415 N   0  0  0  0  0  0  0  0  0  0  0  0
    1.9383   -0.5208    1.2486 H   0  0  0  0  0  0  0  0  0  0  0  0
    3.0774   -1.4863   -0.2711 C   0  0  0  0  0  0  0  0  0  0  0  0
    3.5584   -1.0692   -1.1621 H   0  0  0  0  0  0  0  0  0  0  0  0
    3.8483   -1.6586    0.4858 H   0  0  0  0  0  0  0  0  0  0  0  0
    2.6249   -2.4486   -0.5326 H   0  0  0  0  0  0  0  0  0  0  0  0
  1  2  1  0  0  0  0
  2  3  1  0  0  0  0
  2  4  1  0  0  0  0
  2  5  1  0  0  0  0
  5  6  2  0  0  0  0
  5  7  1  0  0  0  0
  7  8  1  0  0  0  0
  7  9  1  0  0  0  0
  9 10  1  0  0  0  0
  9 11  1  0  0  0  0
  9 22  1  0  0  0  0
 11 12  1  0  0  0  0
 11 13  1  0  0  0  0
 11 14  1  0  0  0  0
 14 15  1  0  0  0  0
 14 20  2  0  0  0  0
 15 16  1  0  0  0  0
 15 17  1  0  0  0  0
 17 18  1  0  0  0  0
 17 19  2  0  0  0  0
 19 20  1  0  0  0  0
 20 21  1  0  0  0  0
 22 23  2  0  0  0  0
 22 24  1  0  0  0  0
 24 25  1  0  0  0  0
 24 26  1  0  0  0  0
 26 27  1  0  0  0  0
 26 28  1  0  0  0  0
 26 29  1  0  0  0  0
M  END
$$$$

  -OEChem-01062216083D

 29 29  0     1  0  0  0  0  0999 V2000
   -3.2240   -2.6311    1.0015 H   0  0  0  0  0  0  0  0  0  0  0  0
   -3.1398   -1.6965    0.4398 C   0  0  0  0  0  0  0  0  0  0  0  0
   -3.9050   -1.0018    0.7947 H   0  0  0  0  0  0  0  0  0  0  0  0
   -3.3091   -1.9062   -0.6191 H   0  0  0  0  0  0  0  0  0  0  0  0
   -1.7625   -1.0920    0.6338 C   0  0  0  0  0  0  0  0  0  0  0  0
   -0.9511   -1.6464    1.3608 O   0  0  0  0  0  0  0  0  0  0  0  0
   -1.4381    0.0892   -0.0055 N   0  0  0  0  0  0  0  0  0  0  0  0
   -2.1350    0.4767   -0.6349 H   0  0  0  0  0  0  0  0  0  0  0  0
   -0.1152    0.7392    0.0500 C   0  0  1  0  0  0  0  0  0  0  0  0
   -0.1457    1.6034   -0.6207 H   0  0  0  0  0  0  0  0  0  0  0  0
    0.2009    1.2787    1.4602 C   0  0  0  0  0  0  0  0  0  0  0  0
    0.1586    0.4744    2.2007 H   0  0  0  0  0  0  0  0  0  0  0  0
    1.2157    1.6891    1.4822 H   0  0  0  0  0  0  0  0  0  0  0  0
   -0.7739    2.3645    1.8337 C   0  0  0  0  0  0  0  0  0  0  0  0
   -0.8097    3.6636    1.3763 N   0  0  0  0  0  0  0  0  0  0  0  0
   -0.1672    4.0894    0.7114 H   0  0  0  0  0  0  0  0  0  0  0  0
   -1.8650    4.3107    1.9920 C   0  0  0  0  0  0  0  0  0  0  0  0
   -2.1438    5.3478    1.8273 H   0  0  0  0  0  0  0  0  0  0  0  0
   -2.4851    3.4903    2.8058 N   0  0  0  0  0  0  0  0  0  0  0  0
   -1.8098    2.2767    2.7253 C   0  0  0  0  0  0  0  0  0  0  0  0
   -2.0712    1.3839    3.2856 H   0  0  0  0  0  0  0  0  0  0  0  0
    0.9997   -0.1733   -0.5090 C   0  0  0  0  0  0  0  0  0  0  0  0
    1.1469   -0.2464   -1.7227 O   0  0  0  0  0  0  0  0  0  0  0  0
    1.8946   -0.8172    0.3267 N   0  0  0  0  0  0  0  0  0  0  0  0
    1.5558   -0.9668    1.2753 H   0  0  0  0  0  0  0  0  0  0  0  0
    2.9080   -1.7345   -0.1798 C   0  0  0  0  0  0  0  0  0  0  0  0
    3.5648   -1.2262   -0.8938 H   0  0  0  0  0  0  0  0  0  0  0  0
    3.5225   -2.1096    0.6442 H   0  0  0  0  0  0  0  0  0  0  0  0
    2.4367   -2.5873   -0.6797 H   0  0  0  0  0  0  0  0  0  0  0  0
  1  2  1  0  0  0  0
  2  3  1  0  0  0  0
  2  4  1  0  0  0  0
  2  5  1  0  0  0  0
  5  6  2  0  0  0  0
  5  7  1  0  0  0  0
  7  8  1  0  0  0  0
  7  9  1  0  0  0  0
  9 10  1  0  0  0  0
  9 11  1  0  0  0  0
  9 22  1  0  0  0  0
 11 12  1  0  0  0  0
 11 13  1  0  0  0  0
 11 14  1  0  0  0  0
 14 15  1  0  0  0  0
 14 20  2  0  0  0  0
 15 16  1  0  0  0  0
 15 17  1  0  0  0  0
 17 18  1  0  0  0  0
 17 19  2  0  0  0  0
 19 20  1  0  0  0  0
 20 21  1  0  0  0  0
 22 23  2  0  0  0  0
 22 24  1  0  0  0  0
 24 25  1  0  0  0  0
 24 26  1  0  0  0  0
 26 27  1  0  0  0  0
 26 28  1  0  0  0  0
 26 29  1  0  0  0  0
M  END
$$$$

  -OEChem-01062216083D

 29 29  0     1  0  0  0  0  0999 V2000
   -3.2994   -2.5767    1.0424 H   0  0  0  0  0  0  0  0  0  0  0  0
   -3.1946   -1.6472    0.4759 C   0  0  0  0  0  0  0  0  0  0  0  0
   -3.9169   -0.9204    0.8557 H   0  0  0  0  0  0  0  0  0  0  0  0
   -3.4095   -1.8500   -0.5760 H   0  0  0  0  0  0  0  0  0  0  0  0
   -1.7870   -1.1018    0.6216 C   0  0  0  0  0  0  0  0  0  0  0  0
   -0.9778   -1.6886    1.3254 O   0  0  0  0  0  0  0  0  0  0  0  0
   -1.4401    0.0716   -0.0207 N   0  0  0  0  0  0  0  0  0  0  0  0
   -2.1602    0.5153   -0.5835 H   0  0  0  0  0  0  0  0  0  0  0  0
   -0.1130    0.7153    0.0358 C   0  0  1  0  0  0  0  0  0  0  0  0
   -0.1417    1.5812   -0.6331 H   0  0  0  0  0  0  0  0  0  0  0  0
    0.2011    1.2474    1.4482 C   0  0  0  0  0  0  0  0  0  0  0  0
    0.1540    0.4398    2.1850 H   0  0  0  0  0  0  0  0  0  0  0  0
    1.2182    1.6525    1.4743 H   0  0  0  0  0  0  0  0  0  0  0  0
   -0.7709    2.3356    1.8221 C   0  0  0  0  0  0  0  0  0  0  0  0
   -0.7985    3.6360    1.3680 N   0  0  0  0  0  0  0  0  0  0  0  0
   -0.1479    4.0618    0.7107 H   0  0  0  0  0  0  0  0  0  0  0  0
   -1.8555    4.2854    1.9783 C   0  0  0  0  0  0  0  0  0  0  0  0
   -2.1285    5.3242    1.8156 H   0  0  0  0  0  0  0  0  0  0  0  0
   -2.4855    3.4645    2.7840 N   0  0  0  0  0  0  0  0  0  0  0  0
   -1.8136    2.2489    2.7059 C   0  0  0  0  0  0  0  0  0  0  0  0
   -2.0838    1.3553    3.2609 H   0  0  0  0  0  0  0  0  0  0  0  0
    1.0153   -0.1900   -0.5063 C   0  0  0  0  0  0  0  0  0  0  0  0
    1.3665   -0.0651   -1.6728 O   0  0  0  0  0  0  0  0  0  0  0  0
    1.7032   -1.0525    0.3270 N   0  0  0  0  0  0  0  0  0  0  0  0
    1.1779   -1.3356    1.1561 H   0  0  0  0  0  0  0  0  0  0  0  0
    2.7251   -1.9653   -0.1691 C   0  0  0  0  0  0  0  0  0  0  0  0
    3.5259   -1.4107   -0.6699 H   0  0  0  0  0  0  0  0  0  0  0  0
    3.1642   -2.5263    0.6615 H   0  0  0  0  0  0  0  0  0  0  0  0
    2.2908   -2.6764   -0.8797 H   0  0  0  0  0  0  0  0  0  0  0  0
  1  2  1  0  0  0  0
  2  3  1  0  0  0  0
  2  4  1  0  0  0  0
  2  5  1  0  0  0  0
  5  6  2  0  0  0  0
  5  7  1  0  0  0  0
  7  8  1  0  0  0  0
  7  9  1  0  0  0  0
  9 10  1  0  0  0  0
  9 11  1  0  0  0  0
  9 22  1  0  0  0  0
 11 12  1  0  0  0  0
 11 13  1  0  0  0  0
 11 14  1  0  0  0  0
 14 15  1  0  0  0  0
 14 20  2  0  0  0  0
 15 16  1  0  0  0  0
 15 17  1  0  0  0  0
 17 18  1  0  0  0  0
 17 19  2  0  0  0  0
 19 20  1  0  0  0  0
 20 21  1  0  0  0  0
 22 23  2  0  0  0  0
 22 24  1  0  0  0  0
 24 25  1  0  0  0  0
 24 26  1  0  0  0  0
 26 27  1  0  0  0  0
 26 28  1  0  0  0  0
 26 29  1  0  0  0  0
M  END
$$$$

  -OEChem-01062216083D

 29 29  0     1  0  0  0  0  0999 V2000
   -3.3855   -2.5448    1.0481 H   0  0  0  0  0  0  0  0  0  0  0  0
   -3.2562   -1.6190    0.4804 C   0  0  0  0  0  0  0  0  0  0  0  0
   -3.9639   -0.8752    0.8548 H   0  0  0  0  0  0  0  0  0  0  0  0
   -3.4703   -1.8196   -0.5720 H   0  0  0  0  0  0  0  0  0  0  0  0
   -1.8374   -1.1055    0.6330 C   0  0  0  0  0  0  0  0  0  0  0  0
   -1.0526   -1.7064    1.3509 O   0  0  0  0  0  0  0  0  0  0  0  0
   -1.4603    0.0537   -0.0188 N   0  0  0  0  0  0  0  0  0  0  0  0
   -2.1792    0.5117   -0.5719 H   0  0  0  0  0  0  0  0  0  0  0  0
   -0.1264    0.6905    0.0240 C   0  0  1  0  0  0  0  0  0  0  0  0
   -0.1593    1.5539   -0.6483 H   0  0  0  0  0  0  0  0  0  0  0  0
    0.1993    1.2214    1.4328 C   0  0  0  0  0  0  0  0  0  0  0  0
    0.1545    0.4126    2.1687 H   0  0  0  0  0  0  0  0  0  0  0  0
    1.2187    1.6206    1.4516 H   0  0  0  0  0  0  0  0  0  0  0  0
   -0.7637    2.3151    1.8140 C   0  0  0  0  0  0  0  0  0  0  0  0
   -0.7870    3.6156    1.3603 N   0  0  0  0  0  0  0  0  0  0  0  0
   -0.1370    4.0380    0.7001 H   0  0  0  0  0  0  0  0  0  0  0  0
   -1.8348    4.2713    1.9795 C   0  0  0  0  0  0  0  0  0  0  0  0
   -2.1018    5.3121    1.8200 H   0  0  0  0  0  0  0  0  0  0  0  0
   -2.4642    3.4537    2.7894 N   0  0  0  0  0  0  0  0  0  0  0  0
   -1.7995    2.2343    2.7064 C   0  0  0  0  0  0  0  0  0  0  0  0
   -2.0693    1.3422    3.2640 H   0  0  0  0  0  0  0  0  0  0  0  0
    1.0198   -0.2032   -0.5008 C   0  0  0  0  0  0  0  0  0  0  0  0
    1.5483    0.0769   -1.5692 O   0  0  0  0  0  0  0  0  0  0  0  0
    1.5145   -1.2539    0.2478 N   0  0  0  0  0  0  0  0  0  0  0  0
    0.8881   -1.5820    0.9879 H   0  0  0  0  0  0  0  0  0  0  0  0
    2.5261   -2.1746   -0.2533 C   0  0  0  0  0  0  0  0  0  0  0  0
    3.4366   -1.6320   -0.5280 H   0  0  0  0  0  0  0  0  0  0  0  0
    2.7822   -2.9080    0.5173 H   0  0  0  0  0  0  0  0  0  0  0  0
    2.1543   -2.7092   -1.1334 H   0  0  0  0  0  0  0  0  0  0  0  0
  1  2  1  0  0  0  0
  2  3  1  0  0  0  0
  2  4  1  0  0  0  0
  2  5  1  0  0  0  0
  5  6  2  0  0  0  0
  5  7  1  0  0  0  0
  7  8  1  0  0  0  0
  7  9  1  0  0  0  0
  9 10  1  0  0  0  0
  9 11  1  0  0  0  0
  9 22  1  0  0  0  0
 11 12  1  0  0  0  0
 11 13  1  0  0  0  0
 11 14  1  0  0  0  0
 14 15  1  0  0  0  0
 14 20  2  0  0  0  0
 15 16  1  0  0  0  0
 15 17  1  0  0  0  0
 17 18  1  0  0  0  0
 17 19  2  0  0  0  0
 19 20  1  0  0  0  0
 20 21  1  0  0  0  0
 22 23  2  0  0  0  0
 22 24  1  0  0  0  0
 24 25  1  0  0  0  0
 24 26  1  0  0  0  0
 26 27  1  0  0  0  0
 26 28  1  0  0  0  0
 26 29  1  0  0  0  0
M  END
$$$$

  -OEChem-01062216083D

 29 29  0     1  0  0  0  0  0999 V2000
   -3.5028   -2.4923    1.0685 H   0  0  0  0  0  0  0  0  0  0  0  0
   -3.3415   -1.5776    0.4911 C   0  0  0  0  0  0  0  0  0  0  0  0
   -4.0278   -0.8080    0.8532 H   0  0  0  0  0  0  0  0  0  0  0  0
   -3.5568   -1.7833   -0.5603 H   0  0  0  0  0  0  0  0  0  0  0  0
   -1.9077   -1.1069    0.6451 C   0  0  0  0  0  0  0  0  0  0  0  0
   -1.1447   -1.7297    1.3666 O   0  0  0  0  0  0  0  0  0  0  0  0
   -1.4981    0.0372   -0.0136 N   0  0  0  0  0  0  0  0  0  0  0  0
   -2.2141    0.5135   -0.5549 H   0  0  0  0  0  0  0  0  0  0  0  0
   -0.1538    0.6576    0.0093 C   0  0  1  0  0  0  0  0  0  0  0  0
   -0.1890    1.5208   -0.6631 H   0  0  0  0  0  0  0  0  0  0  0  0
    0.1895    1.1828    1.4151 C   0  0  0  0  0  0  0  0  0  0  0  0
    0.1434    0.3713    2.1482 H   0  0  0  0  0  0  0  0  0  0  0  0
    1.2130    1.5722    1.4262 H   0  0  0  0  0  0  0  0  0  0  0  0
   -0.7583    2.2866    1.8049 C   0  0  0  0  0  0  0  0  0  0  0  0
   -0.7682    3.5865    1.3501 N   0  0  0  0  0  0  0  0  0  0  0  0
   -0.1192    3.9983    0.6823 H   0  0  0  0  0  0  0  0  0  0  0  0
   -1.8009    4.2572    1.9782 C   0  0  0  0  0  0  0  0  0  0  0  0
   -2.0571    5.3005    1.8172 H   0  0  0  0  0  0  0  0  0  0  0  0
   -2.4314    3.4502    2.7976 N   0  0  0  0  0  0  0  0  0  0  0  0
   -1.7831    2.2223    2.7112 C   0  0  0  0  0  0  0  0  0  0  0  0
   -2.0564    1.3361    3.2764 H   0  0  0  0  0  0  0  0  0  0  0  0
    1.0026   -0.2275   -0.5103 C   0  0  0  0  0  0  0  0  0  0  0  0
    1.6875    0.1852   -1.4374 O   0  0  0  0  0  0  0  0  0  0  0  0
    1.3223   -1.4374    0.0736 N   0  0  0  0  0  0  0  0  0  0  0  0
    0.6535   -1.7926    0.7628 H   0  0  0  0  0  0  0  0  0  0  0  0
    2.3652   -2.3257   -0.4212 C   0  0  0  0  0  0  0  0  0  0  0  0
    3.3314   -1.8109   -0.4370 H   0  0  0  0  0  0  0  0  0  0  0  0
    2.4524   -3.2019    0.2284 H   0  0  0  0  0  0  0  0  0  0  0  0
    2.1294   -2.6657   -1.4349 H   0  0  0  0  0  0  0  0  0  0  0  0
  1  2  1  0  0  0  0
  2  3  1  0  0  0  0
  2  4  1  0  0  0  0
  2  5  1  0  0  0  0
  5  6  2  0  0  0  0
  5  7  1  0  0  0  0
  7  8  1  0  0  0  0
  7  9  1  0  0  0  0
  9 10  1  0  0  0  0
  9 11  1  0  0  0  0
  9 22  1  0  0  0  0
 11 12  1  0  0  0  0
 11 13  1  0  0  0  0
 11 14  1  0  0  0  0
 14 15  1  0  0  0  0
 14 20  2  0  0  0  0
 15 16  1  0  0  0  0
 15 17  1  0  0  0  0
 17 18  1  0  0  0  0
 17 19  2  0  0  0  0
 19 20  1  0  0  0  0
 20 21  1  0  0  0  0
 22 23  2  0  0  0  0
 22 24  1  0  0  0  0
 24 25  1  0  0  0  0
 24 26  1  0  0  0  0
 26 27  1  0  0  0  0
 26 28  1  0  0  0  0
 26 29  1  0  0  0  0
M  END
$$$$

  -OEChem-01062216083D

 29 29  0     1  0  0  0  0  0999 V2000
   -3.6034   -2.4267    1.1243 H   0  0  0  0  0  0  0  0  0  0  0  0
   -3.4259   -1.5238    0.5331 C   0  0  0  0  0  0  0  0  0  0  0  0
   -4.0710   -0.7257    0.9088 H   0  0  0  0  0  0  0  0  0  0  0  0
   -3.6813   -1.7303   -0.5090 H   0  0  0  0  0  0  0  0  0  0  0  0
   -1.9712   -1.1066    0.6380 C   0  0  0  0  0  0  0  0  0  0  0  0
   -1.2067   -1.7627    1.3271 O   0  0  0  0  0  0  0  0  0  0  0  0
   -1.5461    0.0284   -0.0266 N   0  0  0  0  0  0  0  0  0  0  0  0
   -2.2705    0.5380   -0.5246 H   0  0  0  0  0  0  0  0  0  0  0  0
   -0.1910    0.6289   -0.0287 C   0  0  1  0  0  0  0  0  0  0  0  0
   -0.2293    1.4948   -0.6975 H   0  0  0  0  0  0  0  0  0  0  0  0
    0.1780    1.1401    1.3754 C   0  0  0  0  0  0  0  0  0  0  0  0
    0.1317    0.3231    2.1025 H   0  0  0  0  0  0  0  0  0  0  0  0
    1.2068    1.5162    1.3760 H   0  0  0  0  0  0  0  0  0  0  0  0
   -0.7486    2.2540    1.7864 C   0  0  0  0  0  0  0  0  0  0  0  0
   -0.7472    3.5574    1.3416 N   0  0  0  0  0  0  0  0  0  0  0  0
   -0.0978    3.9670    0.6724 H   0  0  0  0  0  0  0  0  0  0  0  0
   -1.7627    4.2365    1.9886 C   0  0  0  0  0  0  0  0  0  0  0  0
   -2.0057    5.2849    1.8415 H   0  0  0  0  0  0  0  0  0  0  0  0
   -2.3956    3.4301    2.8070 N   0  0  0  0  0  0  0  0  0  0  0  0
   -1.7647    2.1946    2.7024 C   0  0  0  0  0  0  0  0  0  0  0  0
   -2.0441    1.3065    3.2614 H   0  0  0  0  0  0  0  0  0  0  0  0
    0.9639   -0.2522   -0.5615 C   0  0  0  0  0  0  0  0  0  0  0  0
    1.7960    0.2631   -1.2972 O   0  0  0  0  0  0  0  0  0  0  0  0
    1.1213   -1.5764   -0.2042 N   0  0  0  0  0  0  0  0  0  0  0  0
    0.4350   -1.9550    0.4539 H   0  0  0  0  0  0  0  0  0  0  0  0
    2.2328   -2.4134   -0.6342 C   0  0  0  0  0  0  0  0  0  0  0  0
    3.1857   -1.9786   -0.3148 H   0  0  0  0  0  0  0  0  0  0  0  0
    2.1432   -3.4117   -0.1951 H   0  0  0  0  0  0  0  0  0  0  0  0
    2.2372   -2.5131   -1.7246 H   0  0  0  0  0  0  0  0  0  0  0  0
  1  2  1  0  0  0  0
  2  3  1  0  0  0  0
  2  4  1  0  0  0  0
  2  5  1  0  0  0  0
  5  6  2  0  0  0  0
  5  7  1  0  0  0  0
  7  8  1  0  0  0  0
  7  9  1  0  0  0  0
  9 10  1  0  0  0  0
  9 11  1  0  0  0  0
  9 22  1  0  0  0  0
 11 12  1  0  0  0  0
 11 13  1  0  0  0  0
 11 14  1  0  0  0  0
 14 15  1  0  0  0  0
 14 20  2  0  0  0  0
 15 16  1  0  0  0  0
 15 17  1  0  0  0  0
 17 18  1  0  0  0  0
 17 19  2  0  0  0  0
 19 20  1  0  0  0  0
 20 21  1  0  0  0  0
 22 23  2  0  0  0  0
 22 24  1  0  0  0  0
 24 25  1  0  0  0  0
 24 26  1  0  0  0  0
 26 27  1  0  0  0  0
 26 28  1  0  0  0  0
 26 29  1  0  0  0  0
M  END
$$$$

  -OEChem-01062216083D

 29 29  0     1  0  0  0  0  0999 V2000
   -3.6382   -2.3883    1.1680 H   0  0  0  0  0  0  0  0  0  0  0  0
   -3.4630   -1.4864    0.5746 C   0  0  0  0  0  0  0  0  0  0  0  0
   -4.0710   -0.6747    0.9821 H   0  0  0  0  0  0  0  0  0  0  0  0
   -3.7678   -1.6794   -0.4567 H   0  0  0  0  0  0  0  0  0  0  0  0
   -1.9953   -1.1060    0.6205 C   0  0  0  0  0  0  0  0  0  0  0  0
   -1.2153   -1.7959    1.2566 O   0  0  0  0  0  0  0  0  0  0  0  0
   -1.5700    0.0285   -0.0445 N   0  0  0  0  0  0  0  0  0  0  0  0
   -2.3046    0.5696   -0.4919 H   0  0  0  0  0  0  0  0  0  0  0  0
   -0.2100    0.6197   -0.0580 C   0  0  1  0  0  0  0  0  0  0  0  0
   -0.2489    1.4891   -0.7219 H   0  0  0  0  0  0  0  0  0  0  0  0
    0.1684    1.1182    1.3489 C   0  0  0  0  0  0  0  0  0  0  0  0
    0.1201    0.2952    2.0692 H   0  0  0  0  0  0  0  0  0  0  0  0
    1.1994    1.4883    1.3495 H   0  0  0  0  0  0  0  0  0  0  0  0
   -0.7497    2.2342    1.7732 C   0  0  0  0  0  0  0  0  0  0  0  0
   -0.7417    3.5407    1.3378 N   0  0  0  0  0  0  0  0  0  0  0  0
   -0.0907    3.9511    0.6708 H   0  0  0  0  0  0  0  0  0  0  0  0
   -1.7481    4.2222    1.9961 C   0  0  0  0  0  0  0  0  0  0  0  0
   -1.9836    5.2738    1.8582 H   0  0  0  0  0  0  0  0  0  0  0  0
   -2.3817    3.4140    2.8123 N   0  0  0  0  0  0  0  0  0  0  0  0
   -1.7594    2.1753    2.6960 C   0  0  0  0  0  0  0  0  0  0  0  0
   -2.0404    1.2853    3.2514 H   0  0  0  0  0  0  0  0  0  0  0  0
    0.9441   -0.2564   -0.6030 C   0  0  0  0  0  0  0  0  0  0  0  0
    1.8901    0.3048   -1.1415 O   0  0  0  0  0  0  0  0  0  0  0  0
    0.9542   -1.6343   -0.5089 N   0  0  0  0  0  0  0  0  0  0  0  0
    0.2417   -2.0410    0.1019 H   0  0  0  0  0  0  0  0  0  0  0  0
    2.0837   -2.4612   -0.9125 C   0  0  0  0  0  0  0  0  0  0  0  0
    2.9766   -2.1989   -0.3356 H   0  0  0  0  0  0  0  0  0  0  0  0
    1.8566   -3.5177   -0.7400 H   0  0  0  0  0  0  0  0  0  0  0  0
    2.2980   -2.3239   -1.9774 H   0  0  0  0  0  0  0  0  0  0  0  0
  1  2  1  0  0  0  0
  2  3  1  0  0  0  0
  2  4  1  0  0  0  0
  2  5  1  0  0  0  0
  5  6  2  0  0  0  0
  5  7  1  0  0  0  0
  7  8  1  0  0  0  0
  7  9  1  0  0  0  0
  9 10  1  0  0  0  0
  9 11  1  0  0  0  0
  9 22  1  0  0  0  0
 11 12  1  0  0  0  0
 11 13  1  0  0  0  0
 11 14  1  0  0  0  0
 14 15  1  0  0  0  0
 14 20  2  0  0  0  0
 15 16  1  0  0  0  0
 15 17  1  0  0  0  0
 17 18  1  0  0  0  0
 17 19  2  0  0  0  0
 19 20  1  0  0  0  0
 20 21  1  0  0  0  0
 22 23  2  0  0  0  0
 22 24  1  0  0  0  0
 24 25  1  0  0  0  0
 24 26  1  0  0  0  0
 26 27  1  0  0  0  0
 26 28  1  0  0  0  0
 26 29  1  0  0  0  0
M  END
$$$$

  -OEChem-01062216083D

 29 29  0     1  0  0  0  0  0999 V2000
   -3.6254   -2.3444    1.2249 H   0  0  0  0  0  0  0  0  0  0  0  0
   -3.4608   -1.4415    0.6303 C   0  0  0  0  0  0  0  0  0  0  0  0
   -4.0204   -0.6180    1.0810 H   0  0  0  0  0  0  0  0  0  0  0  0
   -3.8314   -1.6144   -0.3828 H   0  0  0  0  0  0  0  0  0  0  0  0
   -1.9831   -1.1029    0.5913 C   0  0  0  0  0  0  0  0  0  0  0  0
   -1.1811   -1.8390    1.1416 O   0  0  0  0  0  0  0  0  0  0  0  0
   -1.5658    0.0353   -0.0715 N   0  0  0  0  0  0  0  0  0  0  0  0
   -2.3126    0.6187   -0.4388 H   0  0  0  0  0  0  0  0  0  0  0  0
   -0.2045    0.6237   -0.0812 C   0  0  1  0  0  0  0  0  0  0  0  0
   -0.2373    1.4973   -0.7394 H   0  0  0  0  0  0  0  0  0  0  0  0
    0.1609    1.1070    1.3356 C   0  0  0  0  0  0  0  0  0  0  0  0
    0.1063    0.2747    2.0449 H   0  0  0  0  0  0  0  0  0  0  0  0
    1.1913    1.4781    1.3521 H   0  0  0  0  0  0  0  0  0  0  0  0
   -0.7620    2.2184    1.7633 C   0  0  0  0  0  0  0  0  0  0  0  0
   -0.7506    3.5297    1.3425 N   0  0  0  0  0  0  0  0  0  0  0  0
   -0.0901    3.9489    0.6903 H   0  0  0  0  0  0  0  0  0  0  0  0
   -1.7651    4.2033    1.9968 C   0  0  0  0  0  0  0  0  0  0  0  0
   -1.9997    5.2563    1.8690 H   0  0  0  0  0  0  0  0  0  0  0  0
   -2.4085    3.3851    2.7952 N   0  0  0  0  0  0  0  0  0  0  0  0
   -1.7826    2.1489    2.6735 C   0  0  0  0  0  0  0  0  0  0  0  0
   -2.0698    1.2530    3.2159 H   0  0  0  0  0  0  0  0  0  0  0  0
    0.9501   -0.2510   -0.6292 C   0  0  0  0  0  0  0  0  0  0  0  0
    1.9877    0.3060   -0.9666 O   0  0  0  0  0  0  0  0  0  0  0  0
    0.8341   -1.6149   -0.8162 N   0  0  0  0  0  0  0  0  0  0  0  0
    0.0714   -2.0530   -0.2958 H   0  0  0  0  0  0  0  0  0  0  0  0
    1.9473   -2.4552   -1.2378 C   0  0  0  0  0  0  0  0  0  0  0  0
    2.7614   -2.4076   -0.5071 H   0  0  0  0  0  0  0  0  0  0  0  0
    1.6204   -3.4956   -1.3272 H   0  0  0  0  0  0  0  0  0  0  0  0
    2.3273   -2.1291   -2.2116 H   0  0  0  0  0  0  0  0  0  0  0  0
  1  2  1  0  0  0  0
  2  3  1  0  0  0  0
  2  4  1  0  0  0  0
  2  5  1  0  0  0  0
  5  6  2  0  0  0  0
  5  7  1  0  0  0  0
  7  8  1  0  0  0  0
  7  9  1  0  0  0  0
  9 10  1  0  0  0  0
  9 11  1  0  0  0  0
  9 22  1  0  0  0  0
 11 12  1  0  0  0  0
 11 13  1  0  0  0  0
 11 14  1  0  0  0  0
 14 15  1  0  0  0  0
 14 20  2  0  0  0  0
 15 16  1  0  0  0  0
 15 17  1  0  0  0  0
 17 18  1  0  0  0  0
 17 19  2  0  0  0  0
 19 20  1  0  0  0  0
 20 21  1  0  0  0  0
 22 23  2  0  0  0  0
 22 24  1  0  0  0  0
 24 25  1  0  0  0  0
 24 26  1  0  0  0  0
 26 27  1  0  0  0  0
 26 28  1  0  0  0  0
 26 29  1  0  0  0  0
M  END
$$$$

  -OEChem-01062216083D

 29 29  0     1  0  0  0  0  0999 V2000
   -3.5806   -2.3207    1.2680 H   0  0  0  0  0  0  0  0  0  0  0  0
   -3.4326   -1.4130    0.6758 C   0  0  0  0  0  0  0  0  0  0  0  0
   -3.9498   -0.5854    1.1679 H   0  0  0  0  0  0  0  0  0  0  0  0
   -3.8638   -1.5655   -0.3166 H   0  0  0  0  0  0  0  0  0  0  0  0
   -1.9530   -1.1022    0.5569 C   0  0  0  0  0  0  0  0  0  0  0  0
   -1.1322   -1.8766    1.0185 O   0  0  0  0  0  0  0  0  0  0  0  0
   -1.5485    0.0436   -0.0996 N   0  0  0  0  0  0  0  0  0  0  0  0
   -2.3030    0.6598   -0.3899 H   0  0  0  0  0  0  0  0  0  0  0  0
   -0.1878    0.6332   -0.0915 C   0  0  1  0  0  0  0  0  0  0  0  0
   -0.2099    1.5104   -0.7448 H   0  0  0  0  0  0  0  0  0  0  0  0
    0.1546    1.1046    1.3362 C   0  0  0  0  0  0  0  0  0  0  0  0
    0.0910    0.2649    2.0362 H   0  0  0  0  0  0  0  0  0  0  0  0
    1.1831    1.4794    1.3753 H   0  0  0  0  0  0  0  0  0  0  0  0
   -0.7779    2.2102    1.7591 C   0  0  0  0  0  0  0  0  0  0  0  0
   -0.7632    3.5252    1.3503 N   0  0  0  0  0  0  0  0  0  0  0  0
   -0.0903    3.9529    0.7165 H   0  0  0  0  0  0  0  0  0  0  0  0
   -1.7903    4.1902    1.9936 C   0  0  0  0  0  0  0  0  0  0  0  0
   -2.0267    5.2432    1.8699 H   0  0  0  0  0  0  0  0  0  0  0  0
   -2.4436    3.3634    2.7750 N   0  0  0  0  0  0  0  0  0  0  0  0
   -1.8114    2.1305    2.6539 C   0  0  0  0  0  0  0  0  0  0  0  0
   -2.1040    1.2294    3.1848 H   0  0  0  0  0  0  0  0  0  0  0  0
    0.9657   -0.2460   -0.6368 C   0  0  0  0  0  0  0  0  0  0  0  0
    2.0725    0.2613   -0.7752 O   0  0  0  0  0  0  0  0  0  0  0  0
    0.7544   -1.5269   -1.1114 N   0  0  0  0  0  0  0  0  0  0  0  0
   -0.0692   -1.9830   -0.7181 H   0  0  0  0  0  0  0  0  0  0  0  0
    1.8401   -2.3778   -1.5821 C   0  0  0  0  0  0  0  0  0  0  0  0
    2.5605   -2.5602   -0.7779 H   0  0  0  0  0  0  0  0  0  0  0  0
    1.4445   -3.3402   -1.9199 H   0  0  0  0  0  0  0  0  0  0  0  0
    2.3611   -1.9066   -2.4223 H   0  0  0  0  0  0  0  0  0  0  0  0
  1  2  1  0  0  0  0
  2  3  1  0  0  0  0
  2  4  1  0  0  0  0
  2  5  1  0  0  0  0
  5  6  2  0  0  0  0
  5  7  1  0  0  0  0
  7  8  1  0  0  0  0
  7  9  1  0  0  0  0
  9 10  1  0  0  0  0
  9 11  1  0  0  0  0
  9 22  1  0  0  0  0
 11 12  1  0  0  0  0
 11 13  1  0  0  0  0
 11 14  1  0  0  0  0
 14 15  1  0  0  0  0
 14 20  2  0  0  0  0
 15 16  1  0  0  0  0
 15 17  1  0  0  0  0
 17 18  1  0  0  0  0
 17 19  2  0  0  0  0
 19 20  1  0  0  0  0
 20 21  1  0  0  0  0
 22 23  2  0  0  0  0
 22 24  1  0  0  0  0
 24 25  1  0  0  0  0
 24 26  1  0  0  0  0
 26 27  1  0  0  0  0
 26 28  1  0  0  0  0
 26 29  1  0  0  0  0
M  END
$$$$

  -OEChem-01062216083D

 29 29  0     1  0  0  0  0  0999 V2000
   -3.5069   -2.3354    1.2801 H   0  0  0  0  0  0  0  0  0  0  0  0
   -3.3797   -1.4225    0.6911 C   0  0  0  0  0  0  0  0  0  0  0  0
   -3.8874   -0.6015    1.2038 H   0  0  0  0  0  0  0  0  0  0  0  0
   -3.8376   -1.5697   -0.2899 H   0  0  0  0  0  0  0  0  0  0  0  0
   -1.9053   -1.1037    0.5334 C   0  0  0  0  0  0  0  0  0  0  0  0
   -1.0675   -1.8858    0.9466 O   0  0  0  0  0  0  0  0  0  0  0  0
   -1.5221    0.0540   -0.1153 N   0  0  0  0  0  0  0  0  0  0  0  0
   -2.2846    0.6835   -0.3517 H   0  0  0  0  0  0  0  0  0  0  0  0
   -0.1651    0.6510   -0.0919 C   0  0  1  0  0  0  0  0  0  0  0  0
   -0.1811    1.5309   -0.7416 H   0  0  0  0  0  0  0  0  0  0  0  0
    0.1588    1.1169    1.3433 C   0  0  0  0  0  0  0  0  0  0  0  0
    0.0937    0.2723    2.0371 H   0  0  0  0  0  0  0  0  0  0  0  0
    1.1831    1.5003    1.3986 H   0  0  0  0  0  0  0  0  0  0  0  0
   -0.7861    2.2143    1.7607 C   0  0  0  0  0  0  0  0  0  0  0  0
   -0.7762    3.5317    1.3593 N   0  0  0  0  0  0  0  0  0  0  0  0
   -0.0970    3.9686    0.7388 H   0  0  0  0  0  0  0  0  0  0  0  0
   -1.8151    4.1856    1.9951 C   0  0  0  0  0  0  0  0  0  0  0  0
   -2.0574    5.2379    1.8755 H   0  0  0  0  0  0  0  0  0  0  0  0
   -2.4715    3.3494    2.7639 N   0  0  0  0  0  0  0  0  0  0  0  0
   -1.8279    2.1224    2.6445 C   0  0  0  0  0  0  0  0  0  0  0  0
   -2.1183    1.2168    3.1688 H   0  0  0  0  0  0  0  0  0  0  0  0
    0.9791   -0.2364   -0.6441 C   0  0  0  0  0  0  0  0  0  0  0  0
    2.1362    0.1602   -0.5703 O   0  0  0  0  0  0  0  0  0  0  0  0
    0.7087   -1.3647   -1.3961 N   0  0  0  0  0  0  0  0  0  0  0  0
   -0.2022   -1.7787   -1.2119 H   0  0  0  0  0  0  0  0  0  0  0  0
    1.7612   -2.2386   -1.8994 C   0  0  0  0  0  0  0  0  0  0  0  0
    2.3398   -2.6578   -1.0696 H   0  0  0  0  0  0  0  0  0  0  0  0
    1.3252   -3.0630   -2.4715 H   0  0  0  0  0  0  0  0  0  0  0  0
    2.4388   -1.6846   -2.5576 H   0  0  0  0  0  0  0  0  0  0  0  0
  1  2  1  0  0  0  0
  2  3  1  0  0  0  0
  2  4  1  0  0  0  0
  2  5  1  0  0  0  0
  5  6  2  0  0  0  0
  5  7  1  0  0  0  0
  7  8  1  0  0  0  0
  7  9  1  0  0  0  0
  9 10  1  0  0  0  0
  9 11  1  0  0  0  0
  9 22  1  0  0  0  0
 11 12  1  0  0  0  0
 11 13  1  0  0  0  0
 11 14  1  0  0  0  0
 14 15  1  0  0  0  0
 14 20  2  0  0  0  0
 15 16  1  0  0  0  0
 15 17  1  0  0  0  0
 17 18  1  0  0  0  0
 17 19  2  0  0  0  0
 19 20  1  0  0  0  0
 20 21  1  0  0  0  0
 22 23  2  0  0  0  0
 22 24  1  0  0  0  0
 24 25  1  0  0  0  0
 24 26  1  0  0  0  0
 26 27  1  0  0  0  0
 26 28  1  0  0  0  0
 26 29  1  0  0  0  0
M  END
$$$$

  -OEChem-01062216083D

 29 29  0     1  0  0  0  0  0999 V2000
   -3.4357   -2.3650    1.2671 H   0  0  0  0  0  0  0  0  0  0  0  0
   -3.3239   -1.4465    0.6839 C   0  0  0  0  0  0  0  0  0  0  0  0
   -3.8384   -0.6357    1.2056 H   0  0  0  0  0  0  0  0  0  0  0  0
   -3.7858   -1.5926   -0.2954 H   0  0  0  0  0  0  0  0  0  0  0  0
   -1.8545   -1.1080    0.5202 C   0  0  0  0  0  0  0  0  0  0  0  0
   -1.0064   -1.8737    0.9418 O   0  0  0  0  0  0  0  0  0  0  0  0
   -1.4911    0.0599   -0.1232 N   0  0  0  0  0  0  0  0  0  0  0  0
   -2.2619    0.6868   -0.3383 H   0  0  0  0  0  0  0  0  0  0  0  0
   -0.1404    0.6682   -0.0854 C   0  0  1  0  0  0  0  0  0  0  0  0
   -0.1529    1.5493   -0.7334 H   0  0  0  0  0  0  0  0  0  0  0  0
    0.1679    1.1353    1.3540 C   0  0  0  0  0  0  0  0  0  0  0  0
    0.1061    0.2894    2.0467 H   0  0  0  0  0  0  0  0  0  0  0  0
    1.1876    1.5291    1.4180 H   0  0  0  0  0  0  0  0  0  0  0  0
   -0.7899    2.2240    1.7646 C   0  0  0  0  0  0  0  0  0  0  0  0
   -0.7907    3.5426    1.3664 N   0  0  0  0  0  0  0  0  0  0  0  0
   -0.1113    3.9884    0.7529 H   0  0  0  0  0  0  0  0  0  0  0  0
   -1.8402    4.1847    1.9969 C   0  0  0  0  0  0  0  0  0  0  0  0
   -2.0920    5.2349    1.8789 H   0  0  0  0  0  0  0  0  0  0  0  0
   -2.4937    3.3399    2.7585 N   0  0  0  0  0  0  0  0  0  0  0  0
   -1.8370    2.1194    2.6404 C   0  0  0  0  0  0  0  0  0  0  0  0
   -2.1219    1.2092    3.1599 H   0  0  0  0  0  0  0  0  0  0  0  0
    0.9934   -0.2301   -0.6421 C   0  0  0  0  0  0  0  0  0  0  0  0
    2.1632    0.0004   -0.3589 O   0  0  0  0  0  0  0  0  0  0  0  0
    0.7210   -1.1517   -1.6370 N   0  0  0  0  0  0  0  0  0  0  0  0
   -0.2528   -1.4302   -1.7109 H   0  0  0  0  0  0  0  0  0  0  0  0
    1.7361   -2.0489   -2.1753 C   0  0  0  0  0  0  0  0  0  0  0  0
    2.1334   -2.6950   -1.3852 H   0  0  0  0  0  0  0  0  0  0  0  0
    1.3050   -2.6806   -2.9575 H   0  0  0  0  0  0  0  0  0  0  0  0
    2.5619   -1.4772   -2.6118 H   0  0  0  0  0  0  0  0  0  0  0  0
  1  2  1  0  0  0  0
  2  3  1  0  0  0  0
  2  4  1  0  0  0  0
  2  5  1  0  0  0  0
  5  6  2  0  0  0  0
  5  7  1  0  0  0  0
  7  8  1  0  0  0  0
  7  9  1  0  0  0  0
  9 10  1  0  0  0  0
  9 11  1  0  0  0  0
  9 22  1  0  0  0  0
 11 12  1  0  0  0  0
 11 13  1  0  0  0  0
 11 14  1  0  0  0  0
 14 15  1  0  0  0  0
 14 20  2  0  0  0  0
 15 16  1  0  0  0  0
 15 17  1  0  0  0  0
 17 18  1  0  0  0  0
 17 19  2  0  0  0  0
 19 20  1  0  0  0  0
 20 21  1  0  0  0  0
 22 23  2  0  0  0  0
 22 24  1  0  0  0  0
 24 25  1  0  0  0  0
 24 26  1  0  0  0  0
 26 27  1  0  0  0  0
 26 28  1  0  0  0  0
 26 29  1  0  0  0  0
M  END
$$$$

  -OEChem-01062216083D

 29 29  0     1  0  0  0  0  0999 V2000
   -3.3964   -2.3934    1.2417 H   0  0  0  0  0  0  0  0  0  0  0  0
   -3.2892   -1.4721    0.6622 C   0  0  0  0  0  0  0  0  0  0  0  0
   -3.8218   -0.6696    1.1785 H   0  0  0  0  0  0  0  0  0  0  0  0
   -3.7351   -1.6223   -0.3239 H   0  0  0  0  0  0  0  0  0  0  0  0
   -1.8223   -1.1133    0.5195 C   0  0  0  0  0  0  0  0  0  0  0  0
   -0.9717   -1.8650    0.9602 O   0  0  0  0  0  0  0  0  0  0  0  0
   -1.4674    0.0596   -0.1202 N   0  0  0  0  0  0  0  0  0  0  0  0
   -2.2430    0.6812   -0.3326 H   0  0  0  0  0  0  0  0  0  0  0  0
   -0.1219    0.6760   -0.0729 C   0  0  1  0  0  0  0  0  0  0  0  0
   -0.1313    1.5569   -0.7211 H   0  0  0  0  0  0  0  0  0  0  0  0
    0.1780    1.1479    1.3666 C   0  0  0  0  0  0  0  0  0  0  0  0
    0.1186    0.3035    2.0615 H   0  0  0  0  0  0  0  0  0  0  0  0
    1.1953    1.5475    1.4329 H   0  0  0  0  0  0  0  0  0  0  0  0
   -0.7885    2.2321    1.7691 C   0  0  0  0  0  0  0  0  0  0  0  0
   -0.7963    3.5496    1.3676 N   0  0  0  0  0  0  0  0  0  0  0  0
   -0.1157    3.9994    0.7583 H   0  0  0  0  0  0  0  0  0  0  0  0
   -1.8541    4.1853    1.9906 C   0  0  0  0  0  0  0  0  0  0  0  0
   -2.1129    5.2333    1.8685 H   0  0  0  0  0  0  0  0  0  0  0  0
   -2.5058    3.3380    2.7507 N   0  0  0  0  0  0  0  0  0  0  0  0
   -1.8392    2.1223    2.6401 C   0  0  0  0  0  0  0  0  0  0  0  0
   -2.1195    1.2115    3.1610 H   0  0  0  0  0  0  0  0  0  0  0  0
    1.0026   -0.2324   -0.6306 C   0  0  0  0  0  0  0  0  0  0  0  0
    2.1386   -0.1912   -0.1727 O   0  0  0  0  0  0  0  0  0  0  0  0
    0.7910   -0.9120   -1.8169 N   0  0  0  0  0  0  0  0  0  0  0  0
   -0.1796   -1.0250   -2.0922 H   0  0  0  0  0  0  0  0  0  0  0  0
    1.7860   -1.8029   -2.4012 C   0  0  0  0  0  0  0  0  0  0  0  0
    2.0174   -2.6215   -1.7113 H   0  0  0  0  0  0  0  0  0  0  0  0
    1.4085   -2.2307   -3.3346 H   0  0  0  0  0  0  0  0  0  0  0  0
    2.7089   -1.2561   -2.6218 H   0  0  0  0  0  0  0  0  0  0  0  0
  1  2  1  0  0  0  0
  2  3  1  0  0  0  0
  2  4  1  0  0  0  0
  2  5  1  0  0  0  0
  5  6  2  0  0  0  0
  5  7  1  0  0  0  0
  7  8  1  0  0  0  0
  7  9  1  0  0  0  0
  9 10  1  0  0  0  0
  9 11  1  0  0  0  0
  9 22  1  0  0  0  0
 11 12  1  0  0  0  0
 11 13  1  0  0  0  0
 11 14  1  0  0  0  0
 14 15  1  0  0  0  0
 14 20  2  0  0  0  0
 15 16  1  0  0  0  0
 15 17  1  0  0  0  0
 17 18  1  0  0  0  0
 17 19  2  0  0  0  0
 19 20  1  0  0  0  0
 20 21  1  0  0  0  0
 22 23  2  0  0  0  0
 22 24  1  0  0  0  0
 24 25  1  0  0  0  0
 24 26  1  0  0  0  0
 26 27  1  0  0  0  0
 26 28  1  0  0  0  0
 26 29  1  0  0  0  0
M  END
$$$$

  -OEChem-01062216083D

 29 29  0     1  0  0  0  0  0999 V2000
   -3.3991   -2.3979    1.2411 H   0  0  0  0  0  0  0  0  0  0  0  0
   -3.2881   -1.4770    0.6616 C   0  0  0  0  0  0  0  0  0  0  0  0
   -3.8223   -0.6736    1.1748 H   0  0  0  0  0  0  0  0  0  0  0  0
   -3.7292   -1.6274   -0.3265 H   0  0  0  0  0  0  0  0  0  0  0  0
   -1.8201   -1.1199    0.5262 C   0  0  0  0  0  0  0  0  0  0  0  0
   -0.9745   -1.8673    0.9824 O   0  0  0  0  0  0  0  0  0  0  0  0
   -1.4628    0.0510   -0.1160 N   0  0  0  0  0  0  0  0  0  0  0  0
   -2.2386    0.6685   -0.3385 H   0  0  0  0  0  0  0  0  0  0  0  0
   -0.1185    0.6678   -0.0693 C   0  0  1  0  0  0  0  0  0  0  0  0
   -0.1267    1.5480   -0.7184 H   0  0  0  0  0  0  0  0  0  0  0  0
    0.1805    1.1456    1.3685 C   0  0  0  0  0  0  0  0  0  0  0  0
    0.1202    0.3038    2.0665 H   0  0  0  0  0  0  0  0  0  0  0  0
    1.1991    1.5430    1.4315 H   0  0  0  0  0  0  0  0  0  0  0  0
   -0.7853    2.2315    1.7683 C   0  0  0  0  0  0  0  0  0  0  0  0
   -0.7945    3.5481    1.3641 N   0  0  0  0  0  0  0  0  0  0  0  0
   -0.1132    3.9983    0.7561 H   0  0  0  0  0  0  0  0  0  0  0  0
   -1.8539    4.1836    1.9847 C   0  0  0  0  0  0  0  0  0  0  0  0
   -2.1136    5.2311    1.8607 H   0  0  0  0  0  0  0  0  0  0  0  0
   -2.5059    3.3367    2.7447 N   0  0  0  0  0  0  0  0  0  0  0  0
   -1.8379    2.1215    2.6369 C   0  0  0  0  0  0  0  0  0  0  0  0
   -2.1197    1.2109    3.1573 H   0  0  0  0  0  0  0  0  0  0  0  0
    1.0023   -0.2468   -0.6243 C   0  0  0  0  0  0  0  0  0  0  0  0
    2.0645   -0.3932   -0.0312 O   0  0  0  0  0  0  0  0  0  0  0  0
    0.9195   -0.6743   -1.9379 N   0  0  0  0  0  0  0  0  0  0  0  0
    0.0024   -0.6232   -2.3698 H   0  0  0  0  0  0  0  0  0  0  0  0
    1.9375   -1.5113   -2.5622 C   0  0  0  0  0  0  0  0  0  0  0  0
    2.0338   -2.4608   -2.0251 H   0  0  0  0  0  0  0  0  0  0  0  0
    1.6667   -1.7250   -3.6005 H   0  0  0  0  0  0  0  0  0  0  0  0
    2.9079   -1.0037   -2.5579 H   0  0  0  0  0  0  0  0  0  0  0  0
  1  2  1  0  0  0  0
  2  3  1  0  0  0  0
  2  4  1  0  0  0  0
  2  5  1  0  0  0  0
  5  6  2  0  0  0  0
  5  7  1  0  0  0  0
  7  8  1  0  0  0  0
  7  9  1  0  0  0  0
  9 10  1  0  0  0  0
  9 11  1  0  0  0  0
  9 22  1  0  0  0  0
 11 12  1  0  0  0  0
 11 13  1  0  0  0  0
 11 14  1  0  0  0  0
 14 15  1  0  0  0  0
 14 20  2  0  0  0  0
 15 16  1  0  0  0  0
 15 17  1  0  0  0  0
 17 18  1  0  0  0  0
 17 19  2  0  0  0  0
 19 20  1  0  0  0  0
 20 21  1  0  0  0  0
 22 23  2  0  0  0  0
 22 24  1  0  0  0  0
 24 25  1  0  0  0  0
 24 26  1  0  0  0  0
 26 27  1  0  0  0  0
 26 28  1  0  0  0  0
 26 29  1  0  0  0  0
M  END
$$$$

  -OEChem-01062216083D

 29 29  0     1  0  0  0  0  0999 V2000
   -3.4196   -2.4053    1.2341 H   0  0  0  0  0  0  0  0  0  0  0  0
   -3.3001   -1.4895    0.6479 C   0  0  0  0  0  0  0  0  0  0  0  0
   -3.8494   -0.6837    1.1409 H   0  0  0  0  0  0  0  0  0  0  0  0
   -3.7180   -1.6524   -0.3483 H   0  0  0  0  0  0  0  0  0  0  0  0
   -1.8312   -1.1263    0.5416 C   0  0  0  0  0  0  0  0  0  0  0  0
   -0.9948   -1.8628    1.0303 O   0  0  0  0  0  0  0  0  0  0  0  0
   -1.4694    0.0395   -0.1074 N   0  0  0  0  0  0  0  0  0  0  0  0
   -2.2448    0.6467   -0.3559 H   0  0  0  0  0  0  0  0  0  0  0  0
   -0.1262    0.6576   -0.0732 C   0  0  1  0  0  0  0  0  0  0  0  0
   -0.1407    1.5367   -0.7236 H   0  0  0  0  0  0  0  0  0  0  0  0
    0.1838    1.1433    1.3592 C   0  0  0  0  0  0  0  0  0  0  0  0
    0.1290    0.3048    2.0620 H   0  0  0  0  0  0  0  0  0  0  0  0
    1.2040    1.5376    1.4093 H   0  0  0  0  0  0  0  0  0  0  0  0
   -0.7777    2.2313    1.7651 C   0  0  0  0  0  0  0  0  0  0  0  0
   -0.7915    3.5472    1.3574 N   0  0  0  0  0  0  0  0  0  0  0  0
   -0.1171    3.9959    0.7410 H   0  0  0  0  0  0  0  0  0  0  0  0
   -1.8415    4.1856    1.9909 C   0  0  0  0  0  0  0  0  0  0  0  0
   -2.1005    5.2336    1.8694 H   0  0  0  0  0  0  0  0  0  0  0  0
   -2.4852    3.3411    2.7604 N   0  0  0  0  0  0  0  0  0  0  0  0
   -1.8209    2.1242    2.6456 C   0  0  0  0  0  0  0  0  0  0  0  0
   -2.0979    1.2151    3.1711 H   0  0  0  0  0  0  0  0  0  0  0  0
    0.9955   -0.2572   -0.6278 C   0  0  0  0  0  0  0  0  0  0  0  0
    1.9552   -0.5899    0.0572 O   0  0  0  0  0  0  0  0  0  0  0  0
    1.0828   -0.4366   -1.9979 N   0  0  0  0  0  0  0  0  0  0  0  0
    0.2547   -0.2133   -2.5404 H   0  0  0  0  0  0  0  0  0  0  0  0
    2.1440   -1.2109   -2.6319 C   0  0  0  0  0  0  0  0  0  0  0  0
    2.1267   -2.2467   -2.2769 H   0  0  0  0  0  0  0  0  0  0  0  0
    2.0128   -1.2138   -3.7182 H   0  0  0  0  0  0  0  0  0  0  0  0
    3.1239   -0.7772   -2.4055 H   0  0  0  0  0  0  0  0  0  0  0  0
  1  2  1  0  0  0  0
  2  3  1  0  0  0  0
  2  4  1  0  0  0  0
  2  5  1  0  0  0  0
  5  6  2  0  0  0  0
  5  7  1  0  0  0  0
  7  8  1  0  0  0  0
  7  9  1  0  0  0  0
  9 10  1  0  0  0  0
  9 11  1  0  0  0  0
  9 22  1  0  0  0  0
 11 12  1  0  0  0  0
 11 13  1  0  0  0  0
 11 14  1  0  0  0  0
 14 15  1  0  0  0  0
 14 20  2  0  0  0  0
 15 16  1  0  0  0  0
 15 17  1  0  0  0  0
 17 18  1  0  0  0  0
 17 19  2  0  0  0  0
 19 20  1  0  0  0  0
 20 21  1  0  0  0  0
 22 23  2  0  0  0  0
 22 24  1  0  0  0  0
 24 25  1  0  0  0  0
 24 26  1  0  0  0  0
 26 27  1  0  0  0  0
 26 28  1  0  0  0  0
 26 29  1  0  0  0  0
M  END
$$$$

  -OEChem-01062216083D

 29 29  0     1  0  0  0  0  0999 V2000
   -3.4503   -2.4196    1.2161 H   0  0  0  0  0  0  0  0  0  0  0  0
   -3.3210   -1.5042    0.6313 C   0  0  0  0  0  0  0  0  0  0  0  0
   -3.8882   -0.7006    1.1075 H   0  0  0  0  0  0  0  0  0  0  0  0
   -3.7115   -1.6719   -0.3753 H   0  0  0  0  0  0  0  0  0  0  0  0
   -1.8518   -1.1319    0.5622 C   0  0  0  0  0  0  0  0  0  0  0  0
   -1.0285   -1.8548    1.0902 O   0  0  0  0  0  0  0  0  0  0  0  0
   -1.4825    0.0286   -0.0922 N   0  0  0  0  0  0  0  0  0  0  0  0
   -2.2559    0.6214   -0.3781 H   0  0  0  0  0  0  0  0  0  0  0  0
   -0.1384    0.6462   -0.0767 C   0  0  1  0  0  0  0  0  0  0  0  0
   -0.1668    1.5255   -0.7260 H   0  0  0  0  0  0  0  0  0  0  0  0
    0.1942    1.1369    1.3478 C   0  0  0  0  0  0  0  0  0  0  0  0
    0.1466    0.3019    2.0554 H   0  0  0  0  0  0  0  0  0  0  0  0
    1.2172    1.5261    1.3799 H   0  0  0  0  0  0  0  0  0  0  0  0
   -0.7600    2.2280    1.7620 C   0  0  0  0  0  0  0  0  0  0  0  0
   -0.7789    3.5420    1.3484 N   0  0  0  0  0  0  0  0  0  0  0  0
   -0.1094    3.9895    0.7259 H   0  0  0  0  0  0  0  0  0  0  0  0
   -1.8239    4.1818    1.9888 C   0  0  0  0  0  0  0  0  0  0  0  0
   -2.0850    5.2291    1.8654 H   0  0  0  0  0  0  0  0  0  0  0  0
   -2.4594    3.3398    2.7677 N   0  0  0  0  0  0  0  0  0  0  0  0
   -1.7950    2.1229    2.6524 C   0  0  0  0  0  0  0  0  0  0  0  0
   -2.0665    1.2150    3.1831 H   0  0  0  0  0  0  0  0  0  0  0  0
    0.9883   -0.2596   -0.6361 C   0  0  0  0  0  0  0  0  0  0  0  0
    1.8220   -0.7818    0.0930 O   0  0  0  0  0  0  0  0  0  0  0  0
    1.2705   -0.1989   -1.9906 N   0  0  0  0  0  0  0  0  0  0  0  0
    0.5600    0.2049   -2.5922 H   0  0  0  0  0  0  0  0  0  0  0  0
    2.3812   -0.9168   -2.6062 C   0  0  0  0  0  0  0  0  0  0  0  0
    2.2774   -1.9947   -2.4435 H   0  0  0  0  0  0  0  0  0  0  0  0
    2.4021   -0.7287   -3.6837 H   0  0  0  0  0  0  0  0  0  0  0  0
    3.3349   -0.5870   -2.1810 H   0  0  0  0  0  0  0  0  0  0  0  0
  1  2  1  0  0  0  0
  2  3  1  0  0  0  0
  2  4  1  0  0  0  0
  2  5  1  0  0  0  0
  5  6  2  0  0  0  0
  5  7  1  0  0  0  0
  7  8  1  0  0  0  0
  7  9  1  0  0  0  0
  9 10  1  0  0  0  0
  9 11  1  0  0  0  0
  9 22  1  0  0  0  0
 11 12  1  0  0  0  0
 11 13  1  0  0  0  0
 11 14  1  0  0  0  0
 14 15  1  0  0  0  0
 14 20  2  0  0  0  0
 15 16  1  0  0  0  0
 15 17  1  0  0  0  0
 17 18  1  0  0  0  0
 17 19  2  0  0  0  0
 19 20  1  0  0  0  0
 20 21  1  0  0  0  0
 22 23  2  0  0  0  0
 22 24  1  0  0  0  0
 24 25  1  0  0  0  0
 24 26  1  0  0  0  0
 26 27  1  0  0  0  0
 26 28  1  0  0  0  0
 26 29  1  0  0  0  0
M  END
$$$$

  -OEChem-01062216083D

 29 29  0     1  0  0  0  0  0999 V2000
   -3.4741   -2.4568    1.1713 H   0  0  0  0  0  0  0  0  0  0  0  0
   -3.3349   -1.5458    0.5820 C   0  0  0  0  0  0  0  0  0  0  0  0
   -3.9527   -0.7530    1.0106 H   0  0  0  0  0  0  0  0  0  0  0  0
   -3.6570   -1.7387   -0.4438 H   0  0  0  0  0  0  0  0  0  0  0  0
   -1.8755   -1.1317    0.5985 C   0  0  0  0  0  0  0  0  0  0  0  0
   -1.0791   -1.8034    1.2252 O   0  0  0  0  0  0  0  0  0  0  0  0
   -1.4995    0.0205   -0.0683 N   0  0  0  0  0  0  0  0  0  0  0  0
   -2.2650    0.5637   -0.4552 H   0  0  0  0  0  0  0  0  0  0  0  0
   -0.1563    0.6420   -0.0810 C   0  0  1  0  0  0  0  0  0  0  0  0
   -0.2058    1.5179   -0.7334 H   0  0  0  0  0  0  0  0  0  0  0  0
    0.2070    1.1429    1.3317 C   0  0  0  0  0  0  0  0  0  0  0  0
    0.1747    0.3132    2.0461 H   0  0  0  0  0  0  0  0  0  0  0  0
    1.2312    1.5299    1.3390 H   0  0  0  0  0  0  0  0  0  0  0  0
   -0.7371    2.2358    1.7633 C   0  0  0  0  0  0  0  0  0  0  0  0
   -0.7661    3.5477    1.3435 N   0  0  0  0  0  0  0  0  0  0  0  0
   -0.1132    3.9920    0.7019 H   0  0  0  0  0  0  0  0  0  0  0  0
   -1.7940    4.1911    2.0074 C   0  0  0  0  0  0  0  0  0  0  0  0
   -2.0571    5.2381    1.8855 H   0  0  0  0  0  0  0  0  0  0  0  0
   -2.4101    3.3540    2.8066 N   0  0  0  0  0  0  0  0  0  0  0  0
   -1.7511    2.1349    2.6784 C   0  0  0  0  0  0  0  0  0  0  0  0
   -2.0110    1.2292    3.2187 H   0  0  0  0  0  0  0  0  0  0  0  0
    0.9773   -0.2527   -0.6453 C   0  0  0  0  0  0  0  0  0  0  0  0
    1.6513   -0.9821    0.0687 O   0  0  0  0  0  0  0  0  0  0  0  0
    1.4618    0.0144   -1.9156 N   0  0  0  0  0  0  0  0  0  0  0  0
    0.9108    0.6254   -2.5094 H   0  0  0  0  0  0  0  0  0  0  0  0
    2.6160   -0.6674   -2.4915 C   0  0  0  0  0  0  0  0  0  0  0  0
    2.4419   -1.7479   -2.5316 H   0  0  0  0  0  0  0  0  0  0  0  0
    2.8001   -0.3081   -3.5085 H   0  0  0  0  0  0  0  0  0  0  0  0
    3.5123   -0.4776   -1.8914 H   0  0  0  0  0  0  0  0  0  0  0  0
  1  2  1  0  0  0  0
  2  3  1  0  0  0  0
  2  4  1  0  0  0  0
  2  5  1  0  0  0  0
  5  6  2  0  0  0  0
  5  7  1  0  0  0  0
  7  8  1  0  0  0  0
  7  9  1  0  0  0  0
  9 10  1  0  0  0  0
  9 11  1  0  0  0  0
  9 22  1  0  0  0  0
 11 12  1  0  0  0  0
 11 13  1  0  0  0  0
 11 14  1  0  0  0  0
 14 15  1  0  0  0  0
 14 20  2  0  0  0  0
 15 16  1  0  0  0  0
 15 17  1  0  0  0  0
 17 18  1  0  0  0  0
 17 19  2  0  0  0  0
 19 20  1  0  0  0  0
 20 21  1  0  0  0  0
 22 23  2  0  0  0  0
 22 24  1  0  0  0  0
 24 25  1  0  0  0  0
 24 26  1  0  0  0  0
 26 27  1  0  0  0  0
 26 28  1  0  0  0  0
 26 29  1  0  0  0  0
M  END
$$$$

  -OEChem-01062216083D

 29 29  0     1  0  0  0  0  0999 V2000
   -3.4143   -2.5843    1.0279 H   0  0  0  0  0  0  0  0  0  0  0  0
   -3.2779   -1.6731    0.4382 C   0  0  0  0  0  0  0  0  0  0  0  0
   -4.0390   -0.9464    0.7324 H   0  0  0  0  0  0  0  0  0  0  0  0
   -3.4034   -1.9181   -0.6190 H   0  0  0  0  0  0  0  0  0  0  0  0
   -1.8938   -1.0996    0.6782 C   0  0  0  0  0  0  0  0  0  0  0  0
   -1.1881   -1.6114    1.5269 O   0  0  0  0  0  0  0  0  0  0  0  0
   -1.5205    0.0446   -0.0063 N   0  0  0  0  0  0  0  0  0  0  0  0
   -2.2251    0.4168   -0.6345 H   0  0  0  0  0  0  0  0  0  0  0  0
   -0.1790    0.6712   -0.0487 C   0  0  1  0  0  0  0  0  0  0  0  0
   -0.2527    1.5383   -0.7104 H   0  0  0  0  0  0  0  0  0  0  0  0
    0.2338    1.1919    1.3419 C   0  0  0  0  0  0  0  0  0  0  0  0
    0.2347    0.3759    2.0715 H   0  0  0  0  0  0  0  0  0  0  0  0
    1.2557    1.5824    1.3043 H   0  0  0  0  0  0  0  0  0  0  0  0
   -0.6945    2.2910    1.7914 C   0  0  0  0  0  0  0  0  0  0  0  0
   -0.7450    3.5987    1.3596 N   0  0  0  0  0  0  0  0  0  0  0  0
   -0.1192    4.0403    0.6903 H   0  0  0  0  0  0  0  0  0  0  0  0
   -1.7555    4.2423    2.0498 C   0  0  0  0  0  0  0  0  0  0  0  0
   -2.0292    5.2865    1.9269 H   0  0  0  0  0  0  0  0  0  0  0  0
   -2.3396    3.4107    2.8776 N   0  0  0  0  0  0  0  0  0  0  0  0
   -1.6808    2.1924    2.7369 C   0  0  0  0  0  0  0  0  0  0  0  0
   -1.9206    1.2888    3.2899 H   0  0  0  0  0  0  0  0  0  0  0  0
    0.9522   -0.2207   -0.6201 C   0  0  0  0  0  0  0  0  0  0  0  0
    1.3468   -1.2341   -0.0645 O   0  0  0  0  0  0  0  0  0  0  0  0
    1.6385    0.2059   -1.7456 N   0  0  0  0  0  0  0  0  0  0  0  0
    1.3220    1.0556   -2.2013 H   0  0  0  0  0  0  0  0  0  0  0  0
    2.7670   -0.5203   -2.3185 C   0  0  0  0  0  0  0  0  0  0  0  0
    2.4645   -1.5319   -2.6092 H   0  0  0  0  0  0  0  0  0  0  0  0
    3.1389   -0.0022   -3.2074 H   0  0  0  0  0  0  0  0  0  0  0  0
    3.5841   -0.5924   -1.5930 H   0  0  0  0  0  0  0  0  0  0  0  0
  1  2  1  0  0  0  0
  2  3  1  0  0  0  0
  2  4  1  0  0  0  0
  2  5  1  0  0  0  0
  5  6  2  0  0  0  0
  5  7  1  0  0  0  0
  7  8  1  0  0  0  0
  7  9  1  0  0  0  0
  9 10  1  0  0  0  0
  9 11  1  0  0  0  0
  9 22  1  0  0  0  0
 11 12  1  0  0  0  0
 11 13  1  0  0  0  0
 11 14  1  0  0  0  0
 14 15  1  0  0  0  0
 14 20  2  0  0  0  0
 15 16  1  0  0  0  0
 15 17  1  0  0  0  0
 17 18  1  0  0  0  0
 17 19  2  0  0  0  0
 19 20  1  0  0  0  0
 20 21  1  0  0  0  0
 22 23  2  0  0  0  0
 22 24  1  0  0  0  0
 24 25  1  0  0  0  0
 24 26  1  0  0  0  0
 26 27  1  0  0  0  0
 26 28  1  0  0  0  0
 26 29  1  0  0  0  0
M  END
$$$$

  -OEChem-01062216083D

 29 29  0     1  0  0  0  0  0999 V2000
   -3.2890   -2.6995    0.9380 H   0  0  0  0  0  0  0  0  0  0  0  0
   -3.1744   -1.7926    0.3376 C   0  0  0  0  0  0  0  0  0  0  0  0
   -4.0331   -1.1408    0.5148 H   0  0  0  0  0  0  0  0  0  0  0  0
   -3.1462   -2.0734   -0.7178 H   0  0  0  0  0  0  0  0  0  0  0  0
   -1.8931   -1.0752    0.7180 C   0  0  0  0  0  0  0  0  0  0  0  0
   -1.2661   -1.4652    1.6878 O   0  0  0  0  0  0  0  0  0  0  0  0
   -1.5390    0.0722    0.0271 N   0  0  0  0  0  0  0  0  0  0  0  0
   -2.1588    0.3014   -0.7425 H   0  0  0  0  0  0  0  0  0  0  0  0
   -0.1941    0.6927   -0.0004 C   0  0  1  0  0  0  0  0  0  0  0  0
   -0.2648    1.5511   -0.6738 H   0  0  0  0  0  0  0  0  0  0  0  0
    0.2288    1.2323    1.3800 C   0  0  0  0  0  0  0  0  0  0  0  0
    0.2327    0.4311    2.1247 H   0  0  0  0  0  0  0  0  0  0  0  0
    1.2518    1.6179    1.3297 H   0  0  0  0  0  0  0  0  0  0  0  0
   -0.6861    2.3464    1.8183 C   0  0  0  0  0  0  0  0  0  0  0  0
   -0.7300    3.6491    1.3703 N   0  0  0  0  0  0  0  0  0  0  0  0
   -0.1179    4.0737    0.6783 H   0  0  0  0  0  0  0  0  0  0  0  0
   -1.7236    4.3120    2.0671 C   0  0  0  0  0  0  0  0  0  0  0  0
   -1.9883    5.3572    1.9346 H   0  0  0  0  0  0  0  0  0  0  0  0
   -2.3029    3.4981    2.9151 N   0  0  0  0  0  0  0  0  0  0  0  0
   -1.6618    2.2699    2.7771 C   0  0  0  0  0  0  0  0  0  0  0  0
   -1.9030    1.3762    3.3454 H   0  0  0  0  0  0  0  0  0  0  0  0
    0.9358   -0.2068   -0.5640 C   0  0  0  0  0  0  0  0  0  0  0  0
    0.9811   -1.4136   -0.3773 O   0  0  0  0  0  0  0  0  0  0  0  0
    1.8373    0.3371   -1.4646 N   0  0  0  0  0  0  0  0  0  0  0  0
    1.7859    1.3345   -1.6439 H   0  0  0  0  0  0  0  0  0  0  0  0
    2.8900   -0.4381   -2.1127 C   0  0  0  0  0  0  0  0  0  0  0  0
    2.4578   -1.2457   -2.7131 H   0  0  0  0  0  0  0  0  0  0  0  0
    3.4814    0.2038   -2.7726 H   0  0  0  0  0  0  0  0  0  0  0  0
    3.5597   -0.8754   -1.3645 H   0  0  0  0  0  0  0  0  0  0  0  0
  1  2  1  0  0  0  0
  2  3  1  0  0  0  0
  2  4  1  0  0  0  0
  2  5  1  0  0  0  0
  5  6  2  0  0  0  0
  5  7  1  0  0  0  0
  7  8  1  0  0  0  0
  7  9  1  0  0  0  0
  9 10  1  0  0  0  0
  9 11  1  0  0  0  0
  9 22  1  0  0  0  0
 11 12  1  0  0  0  0
 11 13  1  0  0  0  0
 11 14  1  0  0  0  0
 14 15  1  0  0  0  0
 14 20  2  0  0  0  0
 15 16  1  0  0  0  0
 15 17  1  0  0  0  0
 17 18  1  0  0  0  0
 17 19  2  0  0  0  0
 19 20  1  0  0  0  0
 20 21  1  0  0  0  0
 22 23  2  0  0  0  0
 22 24  1  0  0  0  0
 24 25  1  0  0  0  0
 24 26  1  0  0  0  0
 26 27  1  0  0  0  0
 26 28  1  0  0  0  0
 26 29  1  0  0  0  0
M  END
$$$$

  -OEChem-01062216083D

 29 29  0     1  0  0  0  0  0999 V2000
   -3.2691   -2.7073    0.9458 H   0  0  0  0  0  0  0  0  0  0  0  0
   -3.1567   -1.8043    0.3390 C   0  0  0  0  0  0  0  0  0  0  0  0
   -4.0213   -1.1574    0.5047 H   0  0  0  0  0  0  0  0  0  0  0  0
   -3.1181   -2.0926   -0.7141 H   0  0  0  0  0  0  0  0  0  0  0  0
   -1.8822   -1.0759    0.7211 C   0  0  0  0  0  0  0  0  0  0  0  0
   -1.2350   -1.4749    1.6752 O   0  0  0  0  0  0  0  0  0  0  0  0
   -1.5354    0.0760    0.0347 N   0  0  0  0  0  0  0  0  0  0  0  0
   -2.1374    0.2881   -0.7538 H   0  0  0  0  0  0  0  0  0  0  0  0
   -0.1875    0.6895    0.0223 C   0  0  1  0  0  0  0  0  0  0  0  0
   -0.2453    1.5449   -0.6562 H   0  0  0  0  0  0  0  0  0  0  0  0
    0.2224    1.2347    1.4054 C   0  0  0  0  0  0  0  0  0  0  0  0
    0.2126    0.4396    2.1562 H   0  0  0  0  0  0  0  0  0  0  0  0
    1.2473    1.6164    1.3671 H   0  0  0  0  0  0  0  0  0  0  0  0
   -0.6928    2.3557    1.8249 C   0  0  0  0  0  0  0  0  0  0  0  0
   -0.7269    3.6563    1.3692 N   0  0  0  0  0  0  0  0  0  0  0  0
   -0.1119    4.0732    0.6749 H   0  0  0  0  0  0  0  0  0  0  0  0
   -1.7268    4.3263    2.0500 C   0  0  0  0  0  0  0  0  0  0  0  0
   -1.9888    5.3706    1.9062 H   0  0  0  0  0  0  0  0  0  0  0  0
   -2.3163    3.5200    2.8984 N   0  0  0  0  0  0  0  0  0  0  0  0
   -1.6784    2.2889    2.7744 C   0  0  0  0  0  0  0  0  0  0  0  0
   -1.9286    1.3996    3.3458 H   0  0  0  0  0  0  0  0  0  0  0  0
    0.9382   -0.2176   -0.5392 C   0  0  0  0  0  0  0  0  0  0  0  0
    0.7934   -1.4230   -0.6927 O   0  0  0  0  0  0  0  0  0  0  0  0
    2.0216    0.3756   -1.1674 N   0  0  0  0  0  0  0  0  0  0  0  0
    2.1260    1.3813   -1.0817 H   0  0  0  0  0  0  0  0  0  0  0  0
    3.0651   -0.3809   -1.8518 C   0  0  0  0  0  0  0  0  0  0  0  0
    2.6420   -0.9498   -2.6865 H   0  0  0  0  0  0  0  0  0  0  0  0
    3.8270    0.2972   -2.2480 H   0  0  0  0  0  0  0  0  0  0  0  0
    3.5489   -1.0785   -1.1599 H   0  0  0  0  0  0  0  0  0  0  0  0
  1  2  1  0  0  0  0
  2  3  1  0  0  0  0
  2  4  1  0  0  0  0
  2  5  1  0  0  0  0
  5  6  2  0  0  0  0
  5  7  1  0  0  0  0
  7  8  1  0  0  0  0
  7  9  1  0  0  0  0
  9 10  1  0  0  0  0
  9 11  1  0  0  0  0
  9 22  1  0  0  0  0
 11 12  1  0  0  0  0
 11 13  1  0  0  0  0
 11 14  1  0  0  0  0
 14 15  1  0  0  0  0
 14 20  2  0  0  0  0
 15 16  1  0  0  0  0
 15 17  1  0  0  0  0
 17 18  1  0  0  0  0
 17 19  2  0  0  0  0
 19 20  1  0  0  0  0
 20 21  1  0  0  0  0
 22 23  2  0  0  0  0
 22 24  1  0  0  0  0
 24 25  1  0  0  0  0
 24 26  1  0  0  0  0
 26 27  1  0  0  0  0
 26 28  1  0  0  0  0
 26 29  1  0  0  0  0
M  END
$$$$

  -OEChem-01062216083D

 29 29  0     1  0  0  0  0  0999 V2000
   -3.2549   -2.7045    0.9438 H   0  0  0  0  0  0  0  0  0  0  0  0
   -3.1561   -1.7872    0.3567 C   0  0  0  0  0  0  0  0  0  0  0  0
   -4.0070   -1.1367    0.5721 H   0  0  0  0  0  0  0  0  0  0  0  0
   -3.1612   -2.0484   -0.7042 H   0  0  0  0  0  0  0  0  0  0  0  0
   -1.8607   -1.0806    0.7082 C   0  0  0  0  0  0  0  0  0  0  0  0
   -1.1696   -1.5183    1.6141 O   0  0  0  0  0  0  0  0  0  0  0  0
   -1.5229    0.0802    0.0334 N   0  0  0  0  0  0  0  0  0  0  0  0
   -2.1333    0.3103   -0.7437 H   0  0  0  0  0  0  0  0  0  0  0  0
   -0.1768    0.6952    0.0308 C   0  0  1  0  0  0  0  0  0  0  0  0
   -0.2263    1.5528   -0.6456 H   0  0  0  0  0  0  0  0  0  0  0  0
    0.2171    1.2379    1.4213 C   0  0  0  0  0  0  0  0  0  0  0  0
    0.1987    0.4411    2.1703 H   0  0  0  0  0  0  0  0  0  0  0  0
    1.2403    1.6242    1.3996 H   0  0  0  0  0  0  0  0  0  0  0  0
   -0.7078    2.3552    1.8303 C   0  0  0  0  0  0  0  0  0  0  0  0
   -0.7383    3.6554    1.3734 N   0  0  0  0  0  0  0  0  0  0  0  0
   -0.1186    4.0713    0.6825 H   0  0  0  0  0  0  0  0  0  0  0  0
   -1.7488    4.3241    2.0397 C   0  0  0  0  0  0  0  0  0  0  0  0
   -2.0125    5.3672    1.8901 H   0  0  0  0  0  0  0  0  0  0  0  0
   -2.3463    3.5179    2.8824 N   0  0  0  0  0  0  0  0  0  0  0  0
   -1.7041    2.2884    2.7684 C   0  0  0  0  0  0  0  0  0  0  0  0
   -1.9590    1.3999    3.3390 H   0  0  0  0  0  0  0  0  0  0  0  0
    0.9391   -0.2175   -0.5410 C   0  0  0  0  0  0  0  0  0  0  0  0
    0.6948   -1.3389   -0.9694 O   0  0  0  0  0  0  0  0  0  0  0  0
    2.1611    0.3399   -0.8819 N   0  0  0  0  0  0  0  0  0  0  0  0
    2.3575    1.2815   -0.5583 H   0  0  0  0  0  0  0  0  0  0  0  0
    3.2225   -0.4073   -1.5483 C   0  0  0  0  0  0  0  0  0  0  0  0
    2.8839   -0.7649   -2.5264 H   0  0  0  0  0  0  0  0  0  0  0  0
    4.0985    0.2307   -1.6990 H   0  0  0  0  0  0  0  0  0  0  0  0
    3.5219   -1.2694   -0.9429 H   0  0  0  0  0  0  0  0  0  0  0  0
  1  2  1  0  0  0  0
  2  3  1  0  0  0  0
  2  4  1  0  0  0  0
  2  5  1  0  0  0  0
  5  6  2  0  0  0  0
  5  7  1  0  0  0  0
  7  8  1  0  0  0  0
  7  9  1  0  0  0  0
  9 10  1  0  0  0  0
  9 11  1  0  0  0  0
  9 22  1  0  0  0  0
 11 12  1  0  0  0  0
 11 13  1  0  0  0  0
 11 14  1  0  0  0  0
 14 15  1  0  0  0  0
 14 20  2  0  0  0  0
 15 16  1  0  0  0  0
 15 17  1  0  0  0  0
 17 18  1  0  0  0  0
 17 19  2  0  0  0  0
 19 20  1  0  0  0  0
 20 21  1  0  0  0  0
 22 23  2  0  0  0  0
 22 24  1  0  0  0  0
 24 25  1  0  0  0  0
 24 26  1  0  0  0  0
 26 27  1  0  0  0  0
 26 28  1  0  0  0  0
 26 29  1  0  0  0  0
M  END
$$$$

  -OEChem-01062216083D

 29 29  0     1  0  0  0  0  0999 V2000
   -3.3199   -2.6815    0.8717 H   0  0  0  0  0  0  0  0  0  0  0  0
   -3.1978   -1.7382    0.3321 C   0  0  0  0  0  0  0  0  0  0  0  0
   -3.9885   -1.0506    0.6413 H   0  0  0  0  0  0  0  0  0  0  0  0
   -3.2880   -1.9328   -0.7394 H   0  0  0  0  0  0  0  0  0  0  0  0
   -1.8393   -1.1352    0.6348 C   0  0  0  0  0  0  0  0  0  0  0  0
   -1.0933   -1.7139    1.4074 O   0  0  0  0  0  0  0  0  0  0  0  0
   -1.4835    0.0511    0.0184 N   0  0  0  0  0  0  0  0  0  0  0  0
   -2.1201    0.3580   -0.7101 H   0  0  0  0  0  0  0  0  0  0  0  0
   -0.1475    0.6884    0.0478 C   0  0  1  0  0  0  0  0  0  0  0  0
   -0.2685    1.6810   -0.3945 H   0  0  0  0  0  0  0  0  0  0  0  0
    0.4100    0.9151    1.4726 C   0  0  0  0  0  0  0  0  0  0  0  0
    0.5014   -0.0253    2.0212 H   0  0  0  0  0  0  0  0  0  0  0  0
    1.4158    1.3400    1.4203 H   0  0  0  0  0  0  0  0  0  0  0  0
   -0.4648    1.8831    2.2251 C   0  0  0  0  0  0  0  0  0  0  0  0
   -0.5544    3.2510    2.0798 N   0  0  0  0  0  0  0  0  0  0  0  0
   -0.0272    3.8289    1.4296 H   0  0  0  0  0  0  0  0  0  0  0  0
   -1.4848    3.7218    2.9880 C   0  0  0  0  0  0  0  0  0  0  0  0
   -1.7712    4.7631    3.1062 H   0  0  0  0  0  0  0  0  0  0  0  0
   -1.9752    2.7294    3.6899 N   0  0  0  0  0  0  0  0  0  0  0  0
   -1.3442    1.5769    3.2301 C   0  0  0  0  0  0  0  0  0  0  0  0
   -1.5266    0.5755    3.6094 H   0  0  0  0  0  0  0  0  0  0  0  0
    0.8665   -0.0404   -0.8699 C   0  0  0  0  0  0  0  0  0  0  0  0
    0.4871   -0.8824   -1.6759 O   0  0  0  0  0  0  0  0  0  0  0  0
    2.1728    0.4099   -0.9728 N   0  0  0  0  0  0  0  0  0  0  0  0
    2.4872    1.1028   -0.3013 H   0  0  0  0  0  0  0  0  0  0  0  0
    3.1544   -0.1884   -1.8708 C   0  0  0  0  0  0  0  0  0  0  0  0
    2.8221   -0.1074   -2.9111 H   0  0  0  0  0  0  0  0  0  0  0  0
    4.1167    0.3236   -1.7758 H   0  0  0  0  0  0  0  0  0  0  0  0
    3.2995   -1.2466   -1.6287 H   0  0  0  0  0  0  0  0  0  0  0  0
  1  2  1  0  0  0  0
  2  3  1  0  0  0  0
  2  4  1  0  0  0  0
  2  5  1  0  0  0  0
  5  6  2  0  0  0  0
  5  7  1  0  0  0  0
  7  8  1  0  0  0  0
  7  9  1  0  0  0  0
  9 10  1  0  0  0  0
  9 11  1  0  0  0  0
  9 22  1  0  0  0  0
 11 12  1  0  0  0  0
 11 13  1  0  0  0  0
 11 14  1  0  0  0  0
 14 15  1  0  0  0  0
 14 20  2  0  0  0  0
 15 16  1  0  0  0  0
 15 17  1  0  0  0  0
 17 18  1  0  0  0  0
 17 19  2  0  0  0  0
 19 20  1  0  0  0  0
 20 21  1  0  0  0  0
 22 23  2  0  0  0  0
 22 24  1  0  0  0  0
 24 25  1  0  0  0  0
 24 26  1  0  0  0  0
 26 27  1  0  0  0  0
 26 28  1  0  0  0  0
 26 29  1  0  0  0  0
M  END
$$$$

  -OEChem-01062216083D

 29 29  0     1  0  0  0  0  0999 V2000
   -3.2960   -2.6801    0.8675 H   0  0  0  0  0  0  0  0  0  0  0  0
   -3.1799   -1.7317    0.3360 C   0  0  0  0  0  0  0  0  0  0  0  0
   -3.9631   -1.0451    0.6660 H   0  0  0  0  0  0  0  0  0  0  0  0
   -3.2894   -1.9143   -0.7357 H   0  0  0  0  0  0  0  0  0  0  0  0
   -1.8144   -1.1362    0.6221 C   0  0  0  0  0  0  0  0  0  0  0  0
   -1.0475   -1.7331    1.3599 O   0  0  0  0  0  0  0  0  0  0  0  0
   -1.4644    0.0573    0.0182 N   0  0  0  0  0  0  0  0  0  0  0  0
   -2.1072    0.3807   -0.6980 H   0  0  0  0  0  0  0  0  0  0  0  0
   -0.1334    0.7022    0.0609 C   0  0  1  0  0  0  0  0  0  0  0  0
   -0.2523    1.6958   -0.3801 H   0  0  0  0  0  0  0  0  0  0  0  0
    0.4039    0.9302    1.4939 C   0  0  0  0  0  0  0  0  0  0  0  0
    0.4940   -0.0104    2.0426 H   0  0  0  0  0  0  0  0  0  0  0  0
    1.4054    1.3663    1.4560 H   0  0  0  0  0  0  0  0  0  0  0  0
   -0.4862    1.8917    2.2364 C   0  0  0  0  0  0  0  0  0  0  0  0
   -0.5797    3.2590    2.0898 N   0  0  0  0  0  0  0  0  0  0  0  0
   -0.0494    3.8382    1.4429 H   0  0  0  0  0  0  0  0  0  0  0  0
   -1.5201    3.7266    2.9892 C   0  0  0  0  0  0  0  0  0  0  0  0
   -1.8118    4.7667    3.1041 H   0  0  0  0  0  0  0  0  0  0  0  0
   -2.0126    2.7324    3.6872 N   0  0  0  0  0  0  0  0  0  0  0  0
   -1.3729    1.5823    3.2339 C   0  0  0  0  0  0  0  0  0  0  0  0
   -1.5535    0.5807    3.6139 H   0  0  0  0  0  0  0  0  0  0  0  0
    0.8773   -0.0247   -0.8623 C   0  0  0  0  0  0  0  0  0  0  0  0
    0.4724   -0.6657   -1.8257 O   0  0  0  0  0  0  0  0  0  0  0  0
    2.2410    0.1977   -0.7575 N   0  0  0  0  0  0  0  0  0  0  0  0
    2.5738    0.6872    0.0668 H   0  0  0  0  0  0  0  0  0  0  0  0
    3.2204   -0.4384   -1.6313 C   0  0  0  0  0  0  0  0  0  0  0  0
    3.0409   -0.1609   -2.6754 H   0  0  0  0  0  0  0  0  0  0  0  0
    4.2322   -0.1216   -1.3607 H   0  0  0  0  0  0  0  0  0  0  0  0
    3.1627   -1.5283   -1.5413 H   0  0  0  0  0  0  0  0  0  0  0  0
  1  2  1  0  0  0  0
  2  3  1  0  0  0  0
  2  4  1  0  0  0  0
  2  5  1  0  0  0  0
  5  6  2  0  0  0  0
  5  7  1  0  0  0  0
  7  8  1  0  0  0  0
  7  9  1  0  0  0  0
  9 10  1  0  0  0  0
  9 11  1  0  0  0  0
  9 22  1  0  0  0  0
 11 12  1  0  0  0  0
 11 13  1  0  0  0  0
 11 14  1  0  0  0  0
 14 15  1  0  0  0  0
 14 20  2  0  0  0  0
 15 16  1  0  0  0  0
 15 17  1  0  0  0  0
 17 18  1  0  0  0  0
 17 19  2  0  0  0  0
 19 20  1  0  0  0  0
 20 21  1  0  0  0  0
 22 23  2  0  0  0  0
 22 24  1  0  0  0  0
 24 25  1  0  0  0  0
 24 26  1  0  0  0  0
 26 27  1  0  0  0  0
 26 28  1  0  0  0  0
 26 29  1  0  0  0  0
M  END
$$$$

  -OEChem-01062216083D

 29 29  0     1  0  0  0  0  0999 V2000
   -3.2762   -2.6763    0.8723 H   0  0  0  0  0  0  0  0  0  0  0  0
   -3.1659   -1.7232    0.3475 C   0  0  0  0  0  0  0  0  0  0  0  0
   -3.9370   -1.0350    0.7020 H   0  0  0  0  0  0  0  0  0  0  0  0
   -3.3014   -1.8938   -0.7231 H   0  0  0  0  0  0  0  0  0  0  0  0
   -1.7906   -1.1385    0.6077 C   0  0  0  0  0  0  0  0  0  0  0  0
   -1.0031   -1.7522    1.3096 O   0  0  0  0  0  0  0  0  0  0  0  0
   -1.4460    0.0607    0.0133 N   0  0  0  0  0  0  0  0  0  0  0  0
   -2.0996    0.4062   -0.6830 H   0  0  0  0  0  0  0  0  0  0  0  0
   -0.1198    0.7115    0.0718 C   0  0  1  0  0  0  0  0  0  0  0  0
   -0.2365    1.7059   -0.3686 H   0  0  0  0  0  0  0  0  0  0  0  0
    0.4005    0.9418    1.5102 C   0  0  0  0  0  0  0  0  0  0  0  0
    0.4874    0.0015    2.0600 H   0  0  0  0  0  0  0  0  0  0  0  0
    1.3996    1.3853    1.4806 H   0  0  0  0  0  0  0  0  0  0  0  0
   -0.5023    1.8988    2.2427 C   0  0  0  0  0  0  0  0  0  0  0  0
   -0.5985    3.2652    2.0927 N   0  0  0  0  0  0  0  0  0  0  0  0
   -0.0625    3.8447    1.4506 H   0  0  0  0  0  0  0  0  0  0  0  0
   -1.5496    3.7315    2.9812 C   0  0  0  0  0  0  0  0  0  0  0  0
   -1.8450    4.7712    3.0909 H   0  0  0  0  0  0  0  0  0  0  0  0
   -2.0467    2.7367    3.6755 N   0  0  0  0  0  0  0  0  0  0  0  0
   -1.3982    1.5882    3.2314 C   0  0  0  0  0  0  0  0  0  0  0  0
   -1.5789    0.5869    3.6117 H   0  0  0  0  0  0  0  0  0  0  0  0
    0.8913   -0.0135   -0.8506 C   0  0  0  0  0  0  0  0  0  0  0  0
    0.5135   -0.4333   -1.9387 O   0  0  0  0  0  0  0  0  0  0  0  0
    2.2471   -0.0494   -0.5676 N   0  0  0  0  0  0  0  0  0  0  0  0
    2.5268    0.1954    0.3770 H   0  0  0  0  0  0  0  0  0  0  0  0
    3.2169   -0.7261   -1.4212 C   0  0  0  0  0  0  0  0  0  0  0  0
    3.2124   -0.2925   -2.4268 H   0  0  0  0  0  0  0  0  0  0  0  0
    4.2239   -0.6205   -1.0062 H   0  0  0  0  0  0  0  0  0  0  0  0
    2.9821   -1.7932   -1.4963 H   0  0  0  0  0  0  0  0  0  0  0  0
  1  2  1  0  0  0  0
  2  3  1  0  0  0  0
  2  4  1  0  0  0  0
  2  5  1  0  0  0  0
  5  6  2  0  0  0  0
  5  7  1  0  0  0  0
  7  8  1  0  0  0  0
  7  9  1  0  0  0  0
  9 10  1  0  0  0  0
  9 11  1  0  0  0  0
  9 22  1  0  0  0  0
 11 12  1  0  0  0  0
 11 13  1  0  0  0  0
 11 14  1  0  0  0  0
 14 15  1  0  0  0  0
 14 20  2  0  0  0  0
 15 16  1  0  0  0  0
 15 17  1  0  0  0  0
 17 18  1  0  0  0  0
 17 19  2  0  0  0  0
 19 20  1  0  0  0  0
 20 21  1  0  0  0  0
 22 23  2  0  0  0  0
 22 24  1  0  0  0  0
 24 25  1  0  0  0  0
 24 26  1  0  0  0  0
 26 27  1  0  0  0  0
 26 28  1  0  0  0  0
 26 29  1  0  0  0  0
M  END
$$$$

  -OEChem-01062216083D

 29 29  0     1  0  0  0  0  0999 V2000
   -3.2758   -2.6558    0.8940 H   0  0  0  0  0  0  0  0  0  0  0  0
   -3.1664   -1.7002    0.3737 C   0  0  0  0  0  0  0  0  0  0  0  0
   -3.9115   -1.0013    0.7611 H   0  0  0  0  0  0  0  0  0  0  0  0
   -3.3427   -1.8582   -0.6930 H   0  0  0  0  0  0  0  0  0  0  0  0
   -1.7724   -1.1433    0.5907 C   0  0  0  0  0  0  0  0  0  0  0  0
   -0.9669   -1.7786    1.2522 O   0  0  0  0  0  0  0  0  0  0  0  0
   -1.4261    0.0576    0.0026 N   0  0  0  0  0  0  0  0  0  0  0  0
   -2.1045    0.4483   -0.6443 H   0  0  0  0  0  0  0  0  0  0  0  0
   -0.1036    0.7107    0.0757 C   0  0  1  0  0  0  0  0  0  0  0  0
   -0.2165    1.7051   -0.3662 H   0  0  0  0  0  0  0  0  0  0  0  0
    0.4002    0.9418    1.5190 C   0  0  0  0  0  0  0  0  0  0  0  0
    0.4783    0.0019    2.0716 H   0  0  0  0  0  0  0  0  0  0  0  0
    1.4011    1.3833    1.4969 H   0  0  0  0  0  0  0  0  0  0  0  0
   -0.5138    1.8970    2.2400 C   0  0  0  0  0  0  0  0  0  0  0  0
   -0.6115    3.2633    2.0877 N   0  0  0  0  0  0  0  0  0  0  0  0
   -0.0688    3.8430    1.4512 H   0  0  0  0  0  0  0  0  0  0  0  0
   -1.5750    3.7282    2.9637 C   0  0  0  0  0  0  0  0  0  0  0  0
   -1.8751    4.7670    3.0685 H   0  0  0  0  0  0  0  0  0  0  0  0
   -2.0778    2.7325    3.6527 N   0  0  0  0  0  0  0  0  0  0  0  0
   -1.4205    1.5855    3.2183 C   0  0  0  0  0  0  0  0  0  0  0  0
   -1.6029    0.5842    3.5975 H   0  0  0  0  0  0  0  0  0  0  0  0
    0.9132   -0.0122   -0.8383 C   0  0  0  0  0  0  0  0  0  0  0  0
    0.6148   -0.2142   -2.0097 O   0  0  0  0  0  0  0  0  0  0  0  0
    2.1959   -0.3177   -0.4153 N   0  0  0  0  0  0  0  0  0  0  0  0
    2.3599   -0.2958    0.5868 H   0  0  0  0  0  0  0  0  0  0  0  0
    3.1532   -1.0293   -1.2542 C   0  0  0  0  0  0  0  0  0  0  0  0
    3.3363   -0.4765   -2.1817 H   0  0  0  0  0  0  0  0  0  0  0  0
    4.1061   -1.1423   -0.7286 H   0  0  0  0  0  0  0  0  0  0  0  0
    2.7747   -2.0254   -1.5065 H   0  0  0  0  0  0  0  0  0  0  0  0
  1  2  1  0  0  0  0
  2  3  1  0  0  0  0
  2  4  1  0  0  0  0
  2  5  1  0  0  0  0
  5  6  2  0  0  0  0
  5  7  1  0  0  0  0
  7  8  1  0  0  0  0
  7  9  1  0  0  0  0
  9 10  1  0  0  0  0
  9 11  1  0  0  0  0
  9 22  1  0  0  0  0
 11 12  1  0  0  0  0
 11 13  1  0  0  0  0
 11 14  1  0  0  0  0
 14 15  1  0  0  0  0
 14 20  2  0  0  0  0
 15 16  1  0  0  0  0
 15 17  1  0  0  0  0
 17 18  1  0  0  0  0
 17 19  2  0  0  0  0
 19 20  1  0  0  0  0
 20 21  1  0  0  0  0
 22 23  2  0  0  0  0
 22 24  1  0  0  0  0
 24 25  1  0  0  0  0
 24 26  1  0  0  0  0
 26 27  1  0  0  0  0
 26 28  1  0  0  0  0
 26 29  1  0  0  0  0
M  END
$$$$

  -OEChem-01062216083D

 29 29  0     1  0  0  0  0  0999 V2000
   -3.2850   -2.6207    0.9439 H   0  0  0  0  0  0  0  0  0  0  0  0
   -3.1752   -1.6695    0.4156 C   0  0  0  0  0  0  0  0  0  0  0  0
   -3.8852   -0.9515    0.8331 H   0  0  0  0  0  0  0  0  0  0  0  0
   -3.4027   -1.8253   -0.6417 H   0  0  0  0  0  0  0  0  0  0  0  0
   -1.7597   -1.1468    0.5692 C   0  0  0  0  0  0  0  0  0  0  0  0
   -0.9351   -1.8052    1.1836 O   0  0  0  0  0  0  0  0  0  0  0  0
   -1.4115    0.0536   -0.0183 N   0  0  0  0  0  0  0  0  0  0  0  0
   -2.1193    0.4958   -0.5972 H   0  0  0  0  0  0  0  0  0  0  0  0
   -0.0908    0.7069    0.0691 C   0  0  1  0  0  0  0  0  0  0  0  0
   -0.1992    1.7025   -0.3720 H   0  0  0  0  0  0  0  0  0  0  0  0
    0.3996    0.9334    1.5168 C   0  0  0  0  0  0  0  0  0  0  0  0
    0.4680   -0.0078    2.0682 H   0  0  0  0  0  0  0  0  0  0  0  0
    1.4033    1.3701    1.5021 H   0  0  0  0  0  0  0  0  0  0  0  0
   -0.5217    1.8859    2.2314 C   0  0  0  0  0  0  0  0  0  0  0  0
   -0.6162    3.2520    2.0796 N   0  0  0  0  0  0  0  0  0  0  0  0
   -0.0628    3.8319    1.4522 H   0  0  0  0  0  0  0  0  0  0  0  0
   -1.5910    3.7166    2.9430 C   0  0  0  0  0  0  0  0  0  0  0  0
   -1.8917    4.7554    3.0448 H   0  0  0  0  0  0  0  0  0  0  0  0
   -2.1041    2.7204    3.6240 N   0  0  0  0  0  0  0  0  0  0  0  0
   -1.4409    1.5740    3.1980 C   0  0  0  0  0  0  0  0  0  0  0  0
   -1.6302    0.5725    3.5734 H   0  0  0  0  0  0  0  0  0  0  0  0
    0.9357   -0.0161   -0.8309 C   0  0  0  0  0  0  0  0  0  0  0  0
    0.7683   -0.0017   -2.0443 O   0  0  0  0  0  0  0  0  0  0  0  0
    2.0859   -0.5886   -0.3151 N   0  0  0  0  0  0  0  0  0  0  0  0
    2.0804   -0.7715    0.6848 H   0  0  0  0  0  0  0  0  0  0  0  0
    3.0318   -1.3303   -1.1407 C   0  0  0  0  0  0  0  0  0  0  0  0
    3.4168   -0.6976   -1.9473 H   0  0  0  0  0  0  0  0  0  0  0  0
    3.8785   -1.6662   -0.5347 H   0  0  0  0  0  0  0  0  0  0  0  0
    2.5493   -2.2088   -1.5817 H   0  0  0  0  0  0  0  0  0  0  0  0
  1  2  1  0  0  0  0
  2  3  1  0  0  0  0
  2  4  1  0  0  0  0
  2  5  1  0  0  0  0
  5  6  2  0  0  0  0
  5  7  1  0  0  0  0
  7  8  1  0  0  0  0
  7  9  1  0  0  0  0
  9 10  1  0  0  0  0
  9 11  1  0  0  0  0
  9 22  1  0  0  0  0
 11 12  1  0  0  0  0
 11 13  1  0  0  0  0
 11 14  1  0  0  0  0
 14 15  1  0  0  0  0
 14 20  2  0  0  0  0
 15 16  1  0  0  0  0
 15 17  1  0  0  0  0
 17 18  1  0  0  0  0
 17 19  2  0  0  0  0
 19 20  1  0  0  0  0
 20 21  1  0  0  0  0
 22 23  2  0  0  0  0
 22 24  1  0  0  0  0
 24 25  1  0  0  0  0
 24 26  1  0  0  0  0
 26 27  1  0  0  0  0
 26 28  1  0  0  0  0
 26 29  1  0  0  0  0
M  END
$$$$

  -OEChem-01062216083D

 29 29  0     1  0  0  0  0  0999 V2000
   -3.2934   -2.5763    1.0177 H   0  0  0  0  0  0  0  0  0  0  0  0
   -3.1829   -1.6415    0.4610 C   0  0  0  0  0  0  0  0  0  0  0  0
   -3.8557   -0.8953    0.8910 H   0  0  0  0  0  0  0  0  0  0  0  0
   -3.4604   -1.8167   -0.5812 H   0  0  0  0  0  0  0  0  0  0  0  0
   -1.7493   -1.1528    0.5388 C   0  0  0  0  0  0  0  0  0  0  0  0
   -0.9022   -1.8397    1.0899 O   0  0  0  0  0  0  0  0  0  0  0  0
   -1.4039    0.0480   -0.0500 N   0  0  0  0  0  0  0  0  0  0  0  0
   -2.1463    0.5548   -0.5233 H   0  0  0  0  0  0  0  0  0  0  0  0
   -0.0835    0.6975    0.0540 C   0  0  1  0  0  0  0  0  0  0  0  0
   -0.1845    1.6946   -0.3853 H   0  0  0  0  0  0  0  0  0  0  0  0
    0.3942    0.9177    1.5059 C   0  0  0  0  0  0  0  0  0  0  0  0
    0.4502   -0.0259    2.0548 H   0  0  0  0  0  0  0  0  0  0  0  0
    1.4024    1.3444    1.4996 H   0  0  0  0  0  0  0  0  0  0  0  0
   -0.5302    1.8704    2.2164 C   0  0  0  0  0  0  0  0  0  0  0  0
   -0.6171    3.2372    2.0670 N   0  0  0  0  0  0  0  0  0  0  0  0
   -0.0538    3.8161    1.4472 H   0  0  0  0  0  0  0  0  0  0  0  0
   -1.5929    3.7055    2.9272 C   0  0  0  0  0  0  0  0  0  0  0  0
   -1.8861    4.7463    3.0317 H   0  0  0  0  0  0  0  0  0  0  0  0
   -2.1166    2.7099    3.6013 N   0  0  0  0  0  0  0  0  0  0  0  0
   -1.4562    1.5613    3.1771 C   0  0  0  0  0  0  0  0  0  0  0  0
   -1.6514    0.5602    3.5506 H   0  0  0  0  0  0  0  0  0  0  0  0
    0.9535   -0.0252   -0.8303 C   0  0  0  0  0  0  0  0  0  0  0  0
    0.9744    0.2043   -2.0332 O   0  0  0  0  0  0  0  0  0  0  0  0
    1.9150   -0.8493   -0.2738 N   0  0  0  0  0  0  0  0  0  0  0  0
    1.6893   -1.2079    0.6523 H   0  0  0  0  0  0  0  0  0  0  0  0
    2.8557   -1.6106   -1.0862 C   0  0  0  0  0  0  0  0  0  0  0  0
    3.4362   -0.9424   -1.7310 H   0  0  0  0  0  0  0  0  0  0  0  0
    3.5524   -2.1570   -0.4433 H   0  0  0  0  0  0  0  0  0  0  0  0
    2.3224   -2.3315   -1.7147 H   0  0  0  0  0  0  0  0  0  0  0  0
  1  2  1  0  0  0  0
  2  3  1  0  0  0  0
  2  4  1  0  0  0  0
  2  5  1  0  0  0  0
  5  6  2  0  0  0  0
  5  7  1  0  0  0  0
  7  8  1  0  0  0  0
  7  9  1  0  0  0  0
  9 10  1  0  0  0  0
  9 11  1  0  0  0  0
  9 22  1  0  0  0  0
 11 12  1  0  0  0  0
 11 13  1  0  0  0  0
 11 14  1  0  0  0  0
 14 15  1  0  0  0  0
 14 20  2  0  0  0  0
 15 16  1  0  0  0  0
 15 17  1  0  0  0  0
 17 18  1  0  0  0  0
 17 19  2  0  0  0  0
 19 20  1  0  0  0  0
 20 21  1  0  0  0  0
 22 23  2  0  0  0  0
 22 24  1  0  0  0  0
 24 25  1  0  0  0  0
 24 26  1  0  0  0  0
 26 27  1  0  0  0  0
 26 28  1  0  0  0  0
 26 29  1  0  0  0  0
M  END
$$$$

  -OEChem-01062216083D

 29 29  0     1  0  0  0  0  0999 V2000
   -3.3128   -2.5519    1.0501 H   0  0  0  0  0  0  0  0  0  0  0  0
   -3.2012   -1.6213    0.4866 C   0  0  0  0  0  0  0  0  0  0  0  0
   -3.8522   -0.8632    0.9287 H   0  0  0  0  0  0  0  0  0  0  0  0
   -3.5062   -1.7967   -0.5478 H   0  0  0  0  0  0  0  0  0  0  0  0
   -1.7589   -1.1548    0.5291 C   0  0  0  0  0  0  0  0  0  0  0  0
   -0.9078   -1.8569    1.0555 O   0  0  0  0  0  0  0  0  0  0  0  0
   -1.4084    0.0405   -0.0685 N   0  0  0  0  0  0  0  0  0  0  0  0
   -2.1614    0.5725   -0.4953 H   0  0  0  0  0  0  0  0  0  0  0  0
   -0.0866    0.6878    0.0388 C   0  0  1  0  0  0  0  0  0  0  0  0
   -0.1852    1.6847   -0.4029 H   0  0  0  0  0  0  0  0  0  0  0  0
    0.3939    0.9055    1.4894 C   0  0  0  0  0  0  0  0  0  0  0  0
    0.4501   -0.0390    2.0369 H   0  0  0  0  0  0  0  0  0  0  0  0
    1.4039    1.3282    1.4799 H   0  0  0  0  0  0  0  0  0  0  0  0
   -0.5269    1.8589    2.2042 C   0  0  0  0  0  0  0  0  0  0  0  0
   -0.6123    3.2262    2.0582 N   0  0  0  0  0  0  0  0  0  0  0  0
   -0.0487    3.8054    1.4389 H   0  0  0  0  0  0  0  0  0  0  0  0
   -1.5840    3.6938    2.9235 C   0  0  0  0  0  0  0  0  0  0  0  0
   -1.8752    4.7347    3.0319 H   0  0  0  0  0  0  0  0  0  0  0  0
   -2.1070    2.6971    3.5967 N   0  0  0  0  0  0  0  0  0  0  0  0
   -1.4488    1.5491    3.1681 C   0  0  0  0  0  0  0  0  0  0  0  0
   -1.6429    0.5474    3.5401 H   0  0  0  0  0  0  0  0  0  0  0  0
    0.9576   -0.0407   -0.8298 C   0  0  0  0  0  0  0  0  0  0  0  0
    1.1860    0.3625   -1.9633 O   0  0  0  0  0  0  0  0  0  0  0  0
    1.6996   -1.0812   -0.3031 N   0  0  0  0  0  0  0  0  0  0  0  0
    1.2754   -1.5335    0.5085 H   0  0  0  0  0  0  0  0  0  0  0  0
    2.6370   -1.8579   -1.1040 C   0  0  0  0  0  0  0  0  0  0  0  0
    3.3959   -1.2055   -1.5487 H   0  0  0  0  0  0  0  0  0  0  0  0
    3.1452   -2.5971   -0.4773 H   0  0  0  0  0  0  0  0  0  0  0  0
    2.1103   -2.3840   -1.9071 H   0  0  0  0  0  0  0  0  0  0  0  0
  1  2  1  0  0  0  0
  2  3  1  0  0  0  0
  2  4  1  0  0  0  0
  2  5  1  0  0  0  0
  5  6  2  0  0  0  0
  5  7  1  0  0  0  0
  7  8  1  0  0  0  0
  7  9  1  0  0  0  0
  9 10  1  0  0  0  0
  9 11  1  0  0  0  0
  9 22  1  0  0  0  0
 11 12  1  0  0  0  0
 11 13  1  0  0  0  0
 11 14  1  0  0  0  0
 14 15  1  0  0  0  0
 14 20  2  0  0  0  0
 15 16  1  0  0  0  0
 15 17  1  0  0  0  0
 17 18  1  0  0  0  0
 17 19  2  0  0  0  0
 19 20  1  0  0  0  0
 20 21  1  0  0  0  0
 22 23  2  0  0  0  0
 22 24  1  0  0  0  0
 24 25  1  0  0  0  0
 24 26  1  0  0  0  0
 26 27  1  0  0  0  0
 26 28  1  0  0  0  0
 26 29  1  0  0  0  0
M  END
$$$$

  -OEChem-01062216083D

 29 29  0     1  0  0  0  0  0999 V2000
   -3.3729   -2.5255    1.0695 H   0  0  0  0  0  0  0  0  0  0  0  0
   -3.2473   -1.5944    0.5097 C   0  0  0  0  0  0  0  0  0  0  0  0
   -3.8777   -0.8251    0.9627 H   0  0  0  0  0  0  0  0  0  0  0  0
   -3.5670   -1.7581   -0.5223 H   0  0  0  0  0  0  0  0  0  0  0  0
   -1.7949   -1.1588    0.5384 C   0  0  0  0  0  0  0  0  0  0  0  0
   -0.9564   -1.8800    1.0582 O   0  0  0  0  0  0  0  0  0  0  0  0
   -1.4257    0.0263   -0.0693 N   0  0  0  0  0  0  0  0  0  0  0  0
   -2.1814    0.5770   -0.4669 H   0  0  0  0  0  0  0  0  0  0  0  0
   -0.0980    0.6689    0.0257 C   0  0  1  0  0  0  0  0  0  0  0  0
   -0.1982    1.6649   -0.4176 H   0  0  0  0  0  0  0  0  0  0  0  0
    0.3910    0.8817    1.4730 C   0  0  0  0  0  0  0  0  0  0  0  0
    0.4462   -0.0658    2.0158 H   0  0  0  0  0  0  0  0  0  0  0  0
    1.4030    1.2996    1.4591 H   0  0  0  0  0  0  0  0  0  0  0  0
   -0.5222    1.8380    2.1936 C   0  0  0  0  0  0  0  0  0  0  0  0
   -0.5991    3.2055    2.0467 N   0  0  0  0  0  0  0  0  0  0  0  0
   -0.0292    3.7809    1.4294 H   0  0  0  0  0  0  0  0  0  0  0  0
   -1.5678    3.6798    2.9117 C   0  0  0  0  0  0  0  0  0  0  0  0
   -1.8542    4.7223    3.0181 H   0  0  0  0  0  0  0  0  0  0  0  0
   -2.0957    2.6872    3.5871 N   0  0  0  0  0  0  0  0  0  0  0  0
   -1.4434    1.5349    3.1607 C   0  0  0  0  0  0  0  0  0  0  0  0
   -1.6428    0.5354    3.5357 H   0  0  0  0  0  0  0  0  0  0  0  0
    0.9597   -0.0562   -0.8291 C   0  0  0  0  0  0  0  0  0  0  0  0
    1.3843    0.4751   -1.8472 O   0  0  0  0  0  0  0  0  0  0  0  0
    1.4842   -1.2636   -0.4100 N   0  0  0  0  0  0  0  0  0  0  0  0
    0.9429   -1.7419    0.3153 H   0  0  0  0  0  0  0  0  0  0  0  0
    2.4163   -2.0454   -1.2112 C   0  0  0  0  0  0  0  0  0  0  0  0
    3.3090   -1.4563   -1.4459 H   0  0  0  0  0  0  0  0  0  0  0  0
    2.7289   -2.9379   -0.6608 H   0  0  0  0  0  0  0  0  0  0  0  0
    1.9451   -2.3602   -2.1480 H   0  0  0  0  0  0  0  0  0  0  0  0
  1  2  1  0  0  0  0
  2  3  1  0  0  0  0
  2  4  1  0  0  0  0
  2  5  1  0  0  0  0
  5  6  2  0  0  0  0
  5  7  1  0  0  0  0
  7  8  1  0  0  0  0
  7  9  1  0  0  0  0
  9 10  1  0  0  0  0
  9 11  1  0  0  0  0
  9 22  1  0  0  0  0
 11 12  1  0  0  0  0
 11 13  1  0  0  0  0
 11 14  1  0  0  0  0
 14 15  1  0  0  0  0
 14 20  2  0  0  0  0
 15 16  1  0  0  0  0
 15 17  1  0  0  0  0
 17 18  1  0  0  0  0
 17 19  2  0  0  0  0
 19 20  1  0  0  0  0
 20 21  1  0  0  0  0
 22 23  2  0  0  0  0
 22 24  1  0  0  0  0
 24 25  1  0  0  0  0
 24 26  1  0  0  0  0
 26 27  1  0  0  0  0
 26 28  1  0  0  0  0
 26 29  1  0  0  0  0
M  END
$$$$

  -OEChem-01062216083D

 29 29  0     1  0  0  0  0  0999 V2000
   -3.4598   -2.4745    1.1164 H   0  0  0  0  0  0  0  0  0  0  0  0
   -3.3194   -1.5396    0.5663 C   0  0  0  0  0  0  0  0  0  0  0  0
   -3.8989   -0.7536    1.0572 H   0  0  0  0  0  0  0  0  0  0  0  0
   -3.6876   -1.6729   -0.4538 H   0  0  0  0  0  0  0  0  0  0  0  0
   -1.8505   -1.1620    0.5428 C   0  0  0  0  0  0  0  0  0  0  0  0
   -1.0254   -1.9129    1.0403 O   0  0  0  0  0  0  0  0  0  0  0  0
   -1.4595    0.0106   -0.0759 N   0  0  0  0  0  0  0  0  0  0  0  0
   -2.2144    0.5828   -0.4436 H   0  0  0  0  0  0  0  0  0  0  0  0
   -0.1224    0.6410    0.0002 C   0  0  1  0  0  0  0  0  0  0  0  0
   -0.2201    1.6375   -0.4423 H   0  0  0  0  0  0  0  0  0  0  0  0
    0.3753    0.8444    1.4443 C   0  0  0  0  0  0  0  0  0  0  0  0
    0.4233   -0.1073    1.9810 H   0  0  0  0  0  0  0  0  0  0  0  0
    1.3916    1.2523    1.4279 H   0  0  0  0  0  0  0  0  0  0  0  0
   -0.5249    1.8078    2.1721 C   0  0  0  0  0  0  0  0  0  0  0  0
   -0.5880    3.1763    2.0284 N   0  0  0  0  0  0  0  0  0  0  0  0
   -0.0171    3.7461    1.4068 H   0  0  0  0  0  0  0  0  0  0  0  0
   -1.5458    3.6595    2.9005 C   0  0  0  0  0  0  0  0  0  0  0  0
   -1.8195    4.7049    3.0112 H   0  0  0  0  0  0  0  0  0  0  0  0
   -2.0812    2.6709    3.5761 N   0  0  0  0  0  0  0  0  0  0  0  0
   -1.4434    1.5125    3.1440 C   0  0  0  0  0  0  0  0  0  0  0  0
   -1.6508    0.5142    3.5179 H   0  0  0  0  0  0  0  0  0  0  0  0
    0.9466   -0.0808   -0.8454 C   0  0  0  0  0  0  0  0  0  0  0  0
    1.5561    0.5435   -1.7042 O   0  0  0  0  0  0  0  0  0  0  0  0
    1.2664   -1.4027   -0.6057 N   0  0  0  0  0  0  0  0  0  0  0  0
    0.6677   -1.8966    0.0621 H   0  0  0  0  0  0  0  0  0  0  0  0
    2.2361   -2.1580   -1.3871 C   0  0  0  0  0  0  0  0  0  0  0  0
    3.2143   -1.6666   -1.3629 H   0  0  0  0  0  0  0  0  0  0  0  0
    2.3468   -3.1662   -0.9768 H   0  0  0  0  0  0  0  0  0  0  0  0
    1.9082   -2.2397   -2.4284 H   0  0  0  0  0  0  0  0  0  0  0  0
  1  2  1  0  0  0  0
  2  3  1  0  0  0  0
  2  4  1  0  0  0  0
  2  5  1  0  0  0  0
  5  6  2  0  0  0  0
  5  7  1  0  0  0  0
  7  8  1  0  0  0  0
  7  9  1  0  0  0  0
  9 10  1  0  0  0  0
  9 11  1  0  0  0  0
  9 22  1  0  0  0  0
 11 12  1  0  0  0  0
 11 13  1  0  0  0  0
 11 14  1  0  0  0  0
 14 15  1  0  0  0  0
 14 20  2  0  0  0  0
 15 16  1  0  0  0  0
 15 17  1  0  0  0  0
 17 18  1  0  0  0  0
 17 19  2  0  0  0  0
 19 20  1  0  0  0  0
 20 21  1  0  0  0  0
 22 23  2  0  0  0  0
 22 24  1  0  0  0  0
 24 25  1  0  0  0  0
 24 26  1  0  0  0  0
 26 27  1  0  0  0  0
 26 28  1  0  0  0  0
 26 29  1  0  0  0  0
M  END
$$$$

  -OEChem-01062216083D

 29 29  0     1  0  0  0  0  0999 V2000
   -3.5187   -2.4351    1.1719 H   0  0  0  0  0  0  0  0  0  0  0  0
   -3.3759   -1.5072    0.6106 C   0  0  0  0  0  0  0  0  0  0  0  0
   -3.9262   -0.7064    1.1111 H   0  0  0  0  0  0  0  0  0  0  0  0
   -3.7750   -1.6408   -0.3979 H   0  0  0  0  0  0  0  0  0  0  0  0
   -1.9012   -1.1589    0.5437 C   0  0  0  0  0  0  0  0  0  0  0  0
   -1.0772   -1.9315    1.0075 O   0  0  0  0  0  0  0  0  0  0  0  0
   -1.5051    0.0070   -0.0841 N   0  0  0  0  0  0  0  0  0  0  0  0
   -2.2630    0.5970   -0.4161 H   0  0  0  0  0  0  0  0  0  0  0  0
   -0.1601    0.6261   -0.0334 C   0  0  1  0  0  0  0  0  0  0  0  0
   -0.2581    1.6237   -0.4732 H   0  0  0  0  0  0  0  0  0  0  0  0
    0.3596    0.8183    1.4042 C   0  0  0  0  0  0  0  0  0  0  0  0
    0.4069   -0.1372    1.9340 H   0  0  0  0  0  0  0  0  0  0  0  0
    1.3790    1.2173    1.3758 H   0  0  0  0  0  0  0  0  0  0  0  0
   -0.5205    1.7861    2.1509 C   0  0  0  0  0  0  0  0  0  0  0  0
   -0.5730    3.1558    2.0156 N   0  0  0  0  0  0  0  0  0  0  0  0
   -0.0035    3.7235    1.3909 H   0  0  0  0  0  0  0  0  0  0  0  0
   -1.5116    3.6431    2.9062 C   0  0  0  0  0  0  0  0  0  0  0  0
   -1.7731    4.6905    3.0280 H   0  0  0  0  0  0  0  0  0  0  0  0
   -2.0457    2.6556    3.5845 N   0  0  0  0  0  0  0  0  0  0  0  0
   -1.4256    1.4939    3.1361 C   0  0  0  0  0  0  0  0  0  0  0  0
   -1.6359    0.4956    3.5083 H   0  0  0  0  0  0  0  0  0  0  0  0
    0.9039   -0.0938   -0.8887 C   0  0  0  0  0  0  0  0  0  0  0  0
    1.6792    0.5735   -1.5613 O   0  0  0  0  0  0  0  0  0  0  0  0
    1.0262   -1.4693   -0.8763 N   0  0  0  0  0  0  0  0  0  0  0  0
    0.4082   -1.9729   -0.2343 H   0  0  0  0  0  0  0  0  0  0  0  0
    2.0547   -2.2034   -1.6002 C   0  0  0  0  0  0  0  0  0  0  0  0
    3.0518   -1.8891   -1.2748 H   0  0  0  0  0  0  0  0  0  0  0  0
    1.9524   -3.2768   -1.4145 H   0  0  0  0  0  0  0  0  0  0  0  0
    1.9626   -2.0286   -2.6771 H   0  0  0  0  0  0  0  0  0  0  0  0
  1  2  1  0  0  0  0
  2  3  1  0  0  0  0
  2  4  1  0  0  0  0
  2  5  1  0  0  0  0
  5  6  2  0  0  0  0
  5  7  1  0  0  0  0
  7  8  1  0  0  0  0
  7  9  1  0  0  0  0
  9 10  1  0  0  0  0
  9 11  1  0  0  0  0
  9 22  1  0  0  0  0
 11 12  1  0  0  0  0
 11 13  1  0  0  0  0
 11 14  1  0  0  0  0
 14 15  1  0  0  0  0
 14 20  2  0  0  0  0
 15 16  1  0  0  0  0
 15 17  1  0  0  0  0
 17 18  1  0  0  0  0
 17 19  2  0  0  0  0
 19 20  1  0  0  0  0
 20 21  1  0  0  0  0
 22 23  2  0  0  0  0
 22 24  1  0  0  0  0
 24 25  1  0  0  0  0
 24 26  1  0  0  0  0
 26 27  1  0  0  0  0
 26 28  1  0  0  0  0
 26 29  1  0  0  0  0
M  END
$$$$

  -OEChem-01062216083D

 29 29  0     1  0  0  0  0  0999 V2000
   -3.5316   -2.3924    1.2438 H   0  0  0  0  0  0  0  0  0  0  0  0
   -3.3970   -1.4667    0.6772 C   0  0  0  0  0  0  0  0  0  0  0  0
   -3.8995   -0.6547    1.2091 H   0  0  0  0  0  0  0  0  0  0  0  0
   -3.8543   -1.5872   -0.3079 H   0  0  0  0  0  0  0  0  0  0  0  0
   -1.9202   -1.1541    0.5295 C   0  0  0  0  0  0  0  0  0  0  0  0
   -1.0886   -1.9587    0.9180 O   0  0  0  0  0  0  0  0  0  0  0  0
   -1.5297    0.0114   -0.1011 N   0  0  0  0  0  0  0  0  0  0  0  0
   -2.2927    0.6286   -0.3649 H   0  0  0  0  0  0  0  0  0  0  0  0
   -0.1795    0.6220   -0.0629 C   0  0  1  0  0  0  0  0  0  0  0  0
   -0.2749    1.6222   -0.4969 H   0  0  0  0  0  0  0  0  0  0  0  0
    0.3467    0.7980    1.3749 C   0  0  0  0  0  0  0  0  0  0  0  0
    0.3899   -0.1632    1.8956 H   0  0  0  0  0  0  0  0  0  0  0  0
    1.3684    1.1917    1.3477 H   0  0  0  0  0  0  0  0  0  0  0  0
   -0.5258    1.7649    2.1316 C   0  0  0  0  0  0  0  0  0  0  0  0
   -0.5705    3.1359    2.0080 N   0  0  0  0  0  0  0  0  0  0  0  0
    0.0055    3.7064    1.3915 H   0  0  0  0  0  0  0  0  0  0  0  0
   -1.5068    3.6208    2.9020 C   0  0  0  0  0  0  0  0  0  0  0  0
   -1.7621    4.6687    3.0323 H   0  0  0  0  0  0  0  0  0  0  0  0
   -2.0477    2.6304    3.5709 N   0  0  0  0  0  0  0  0  0  0  0  0
   -1.4334    1.4694    3.1134 C   0  0  0  0  0  0  0  0  0  0  0  0
   -1.6511    0.4690    3.4756 H   0  0  0  0  0  0  0  0  0  0  0  0
    0.8825   -0.0919   -0.9270 C   0  0  0  0  0  0  0  0  0  0  0  0
    1.7979    0.5674   -1.4033 O   0  0  0  0  0  0  0  0  0  0  0  0
    0.8256   -1.4507   -1.1686 N   0  0  0  0  0  0  0  0  0  0  0  0
    0.1647   -1.9707   -0.5863 H   0  0  0  0  0  0  0  0  0  0  0  0
    1.8746   -2.1854   -1.8627 C   0  0  0  0  0  0  0  0  0  0  0  0
    2.8221   -2.1040   -1.3201 H   0  0  0  0  0  0  0  0  0  0  0  0
    1.6065   -3.2436   -1.9374 H   0  0  0  0  0  0  0  0  0  0  0  0
    2.0123   -1.7923   -2.8754 H   0  0  0  0  0  0  0  0  0  0  0  0
  1  2  1  0  0  0  0
  2  3  1  0  0  0  0
  2  4  1  0  0  0  0
  2  5  1  0  0  0  0
  5  6  2  0  0  0  0
  5  7  1  0  0  0  0
  7  8  1  0  0  0  0
  7  9  1  0  0  0  0
  9 10  1  0  0  0  0
  9 11  1  0  0  0  0
  9 22  1  0  0  0  0
 11 12  1  0  0  0  0
 11 13  1  0  0  0  0
 11 14  1  0  0  0  0
 14 15  1  0  0  0  0
 14 20  2  0  0  0  0
 15 16  1  0  0  0  0
 15 17  1  0  0  0  0
 17 18  1  0  0  0  0
 17 19  2  0  0  0  0
 19 20  1  0  0  0  0
 20 21  1  0  0  0  0
 22 23  2  0  0  0  0
 22 24  1  0  0  0  0
 24 25  1  0  0  0  0
 24 26  1  0  0  0  0
 26 27  1  0  0  0  0
 26 28  1  0  0  0  0
 26 29  1  0  0  0  0
M  END
$$$$

  -OEChem-01062216083D

 29 29  0     1  0  0  0  0  0999 V2000
   -3.5055   -2.3651    1.2970 H   0  0  0  0  0  0  0  0  0  0  0  0
   -3.3840   -1.4393    0.7276 C   0  0  0  0  0  0  0  0  0  0  0  0
   -3.8459   -0.6214    1.2865 H   0  0  0  0  0  0  0  0  0  0  0  0
   -3.8909   -1.5473   -0.2344 H   0  0  0  0  0  0  0  0  0  0  0  0
   -1.9116   -1.1494    0.5089 C   0  0  0  0  0  0  0  0  0  0  0  0
   -1.0741   -1.9795    0.8217 O   0  0  0  0  0  0  0  0  0  0  0  0
   -1.5297    0.0185   -0.1214 N   0  0  0  0  0  0  0  0  0  0  0  0
   -2.2946    0.6546   -0.3287 H   0  0  0  0  0  0  0  0  0  0  0  0
   -0.1774    0.6254   -0.0766 C   0  0  1  0  0  0  0  0  0  0  0  0
   -0.2654    1.6275   -0.5071 H   0  0  0  0  0  0  0  0  0  0  0  0
    0.3348    0.7897    1.3687 C   0  0  0  0  0  0  0  0  0  0  0  0
    0.3689   -0.1766    1.8809 H   0  0  0  0  0  0  0  0  0  0  0  0
    1.3583    1.1798    1.3574 H   0  0  0  0  0  0  0  0  0  0  0  0
   -0.5420    1.7541    2.1241 C   0  0  0  0  0  0  0  0  0  0  0  0
   -0.5802    3.1262    2.0093 N   0  0  0  0  0  0  0  0  0  0  0  0
    0.0061    3.6986    1.4044 H   0  0  0  0  0  0  0  0  0  0  0  0
   -1.5208    3.6091    2.8999 C   0  0  0  0  0  0  0  0  0  0  0  0
   -1.7721    4.6572    3.0360 H   0  0  0  0  0  0  0  0  0  0  0  0
   -2.0711    2.6165    3.5577 N   0  0  0  0  0  0  0  0  0  0  0  0
   -1.4569    1.4562    3.0984 C   0  0  0  0  0  0  0  0  0  0  0  0
   -1.6792    0.4546    3.4551 H   0  0  0  0  0  0  0  0  0  0  0  0
    0.8871   -0.0884   -0.9394 C   0  0  0  0  0  0  0  0  0  0  0  0
    1.9108    0.5151   -1.2358 O   0  0  0  0  0  0  0  0  0  0  0  0
    0.6782   -1.3601   -1.4378 N   0  0  0  0  0  0  0  0  0  0  0  0
   -0.0498   -1.8892   -0.9546 H   0  0  0  0  0  0  0  0  0  0  0  0
    1.6985   -2.1013   -2.1676 C   0  0  0  0  0  0  0  0  0  0  0  0
    2.5798   -2.2617   -1.5380 H   0  0  0  0  0  0  0  0  0  0  0  0
    1.3081   -3.0762   -2.4747 H   0  0  0  0  0  0  0  0  0  0  0  0
    2.0016   -1.5534   -3.0660 H   0  0  0  0  0  0  0  0  0  0  0  0
  1  2  1  0  0  0  0
  2  3  1  0  0  0  0
  2  4  1  0  0  0  0
  2  5  1  0  0  0  0
  5  6  2  0  0  0  0
  5  7  1  0  0  0  0
  7  8  1  0  0  0  0
  7  9  1  0  0  0  0
  9 10  1  0  0  0  0
  9 11  1  0  0  0  0
  9 22  1  0  0  0  0
 11 12  1  0  0  0  0
 11 13  1  0  0  0  0
 11 14  1  0  0  0  0
 14 15  1  0  0  0  0
 14 20  2  0  0  0  0
 15 16  1  0  0  0  0
 15 17  1  0  0  0  0
 17 18  1  0  0  0  0
 17 19  2  0  0  0  0
 19 20  1  0  0  0  0
 20 21  1  0  0  0  0
 22 23  2  0  0  0  0
 22 24  1  0  0  0  0
 24 25  1  0  0  0  0
 24 26  1  0  0  0  0
 26 27  1  0  0  0  0
 26 28  1  0  0  0  0
 26 29  1  0  0  0  0
M  END
$$$$

  -OEChem-01062216083D

 29 29  0     1  0  0  0  0  0999 V2000
   -3.4613   -2.3683    1.3150 H   0  0  0  0  0  0  0  0  0  0  0  0
   -3.3549   -1.4340    0.7566 C   0  0  0  0  0  0  0  0  0  0  0  0
   -3.7966   -0.6240    1.3426 H   0  0  0  0  0  0  0  0  0  0  0  0
   -3.8920   -1.5254   -0.1903 H   0  0  0  0  0  0  0  0  0  0  0  0
   -1.8888   -1.1461    0.4968 C   0  0  0  0  0  0  0  0  0  0  0  0
   -1.0456   -1.9850    0.7637 O   0  0  0  0  0  0  0  0  0  0  0  0
   -1.5185    0.0273   -0.1293 N   0  0  0  0  0  0  0  0  0  0  0  0
   -2.2852    0.6739   -0.2932 H   0  0  0  0  0  0  0  0  0  0  0  0
   -0.1658    0.6327   -0.0773 C   0  0  1  0  0  0  0  0  0  0  0  0
   -0.2480    1.6367   -0.5044 H   0  0  0  0  0  0  0  0  0  0  0  0
    0.3351    0.7884    1.3744 C   0  0  0  0  0  0  0  0  0  0  0  0
    0.3649   -0.1807    1.8817 H   0  0  0  0  0  0  0  0  0  0  0  0
    1.3580    1.1797    1.3768 H   0  0  0  0  0  0  0  0  0  0  0  0
   -0.5490    1.7497    2.1250 C   0  0  0  0  0  0  0  0  0  0  0  0
   -0.5848    3.1219    2.0151 N   0  0  0  0  0  0  0  0  0  0  0  0
    0.0112    3.6959    1.4215 H   0  0  0  0  0  0  0  0  0  0  0  0
   -1.5382    3.6015    2.8937 C   0  0  0  0  0  0  0  0  0  0  0  0
   -1.7913    4.6492    3.0297 H   0  0  0  0  0  0  0  0  0  0  0  0
   -2.0985    2.6063    3.5392 N   0  0  0  0  0  0  0  0  0  0  0  0
   -1.4771    1.4479    3.0854 C   0  0  0  0  0  0  0  0  0  0  0  0
   -1.7046    0.4448    3.4343 H   0  0  0  0  0  0  0  0  0  0  0  0
    0.8933   -0.0835   -0.9462 C   0  0  0  0  0  0  0  0  0  0  0  0
    2.0053    0.4162   -1.0667 O   0  0  0  0  0  0  0  0  0  0  0  0
    0.5669   -1.1986   -1.6951 N   0  0  0  0  0  0  0  0  0  0  0  0
   -0.2567   -1.6984   -1.3639 H   0  0  0  0  0  0  0  0  0  0  0  0
    1.5526   -1.9419   -2.4693 C   0  0  0  0  0  0  0  0  0  0  0  0
    2.3311   -2.3444   -1.8128 H   0  0  0  0  0  0  0  0  0  0  0  0
    1.0717   -2.7754   -2.9901 H   0  0  0  0  0  0  0  0  0  0  0  0
    2.0215   -1.2937   -3.2170 H   0  0  0  0  0  0  0  0  0  0  0  0
  1  2  1  0  0  0  0
  2  3  1  0  0  0  0
  2  4  1  0  0  0  0
  2  5  1  0  0  0  0
  5  6  2  0  0  0  0
  5  7  1  0  0  0  0
  7  8  1  0  0  0  0
  7  9  1  0  0  0  0
  9 10  1  0  0  0  0
  9 11  1  0  0  0  0
  9 22  1  0  0  0  0
 11 12  1  0  0  0  0
 11 13  1  0  0  0  0
 11 14  1  0  0  0  0
 14 15  1  0  0  0  0
 14 20  2  0  0  0  0
 15 16  1  0  0  0  0
 15 17  1  0  0  0  0
 17 18  1  0  0  0  0
 17 19  2  0  0  0  0
 19 20  1  0  0  0  0
 20 21  1  0  0  0  0
 22 23  2  0  0  0  0
 22 24  1  0  0  0  0
 24 25  1  0  0  0  0
 24 26  1  0  0  0  0
 26 27  1  0  0  0  0
 26 28  1  0  0  0  0
 26 29  1  0  0  0  0
M  END
$$$$

  -OEChem-01062216083D

 29 29  0     1  0  0  0  0  0999 V2000
   -3.4204   -2.3806    1.3248 H   0  0  0  0  0  0  0  0  0  0  0  0
   -3.3225   -1.4483    0.7613 C   0  0  0  0  0  0  0  0  0  0  0  0
   -3.7640   -0.6380    1.3469 H   0  0  0  0  0  0  0  0  0  0  0  0
   -3.8665   -1.5460   -0.1812 H   0  0  0  0  0  0  0  0  0  0  0  0
   -1.8597   -1.1547    0.4889 C   0  0  0  0  0  0  0  0  0  0  0  0
   -1.0111   -1.9858    0.7598 O   0  0  0  0  0  0  0  0  0  0  0  0
   -1.5015    0.0268   -0.1304 N   0  0  0  0  0  0  0  0  0  0  0  0
   -2.2712    0.6768   -0.2642 H   0  0  0  0  0  0  0  0  0  0  0  0
   -0.1503    0.6339   -0.0706 C   0  0  1  0  0  0  0  0  0  0  0  0
   -0.2309    1.6384   -0.4961 H   0  0  0  0  0  0  0  0  0  0  0  0
    0.3392    0.7913    1.3867 C   0  0  0  0  0  0  0  0  0  0  0  0
    0.3668   -0.1773    1.8948 H   0  0  0  0  0  0  0  0  0  0  0  0
    1.3607    1.1856    1.4007 H   0  0  0  0  0  0  0  0  0  0  0  0
   -0.5534    1.7523    2.1284 C   0  0  0  0  0  0  0  0  0  0  0  0
   -0.5922    3.1244    2.0177 N   0  0  0  0  0  0  0  0  0  0  0  0
    0.0097    3.7003    1.4319 H   0  0  0  0  0  0  0  0  0  0  0  0
   -1.5532    3.6017    2.8893 C   0  0  0  0  0  0  0  0  0  0  0  0
   -1.8099    4.6487    3.0232 H   0  0  0  0  0  0  0  0  0  0  0  0
   -2.1153    2.6054    3.5314 N   0  0  0  0  0  0  0  0  0  0  0  0
   -1.4862    1.4487    3.0836 C   0  0  0  0  0  0  0  0  0  0  0  0
   -1.7117    0.4456    3.4333 H   0  0  0  0  0  0  0  0  0  0  0  0
    0.9018   -0.0825   -0.9495 C   0  0  0  0  0  0  0  0  0  0  0  0
    2.0774    0.2576   -0.8938 O   0  0  0  0  0  0  0  0  0  0  0  0
    0.5091   -0.9793   -1.9259 N   0  0  0  0  0  0  0  0  0  0  0  0
   -0.4243   -1.3631   -1.8057 H   0  0  0  0  0  0  0  0  0  0  0  0
    1.4604   -1.7187   -2.7462 C   0  0  0  0  0  0  0  0  0  0  0  0
    2.0965   -2.3511   -2.1180 H   0  0  0  0  0  0  0  0  0  0  0  0
    0.9290   -2.3574   -3.4580 H   0  0  0  0  0  0  0  0  0  0  0  0
    2.0968   -1.0299   -3.3115 H   0  0  0  0  0  0  0  0  0  0  0  0
  1  2  1  0  0  0  0
  2  3  1  0  0  0  0
  2  4  1  0  0  0  0
  2  5  1  0  0  0  0
  5  6  2  0  0  0  0
  5  7  1  0  0  0  0
  7  8  1  0  0  0  0
  7  9  1  0  0  0  0
  9 10  1  0  0  0  0
  9 11  1  0  0  0  0
  9 22  1  0  0  0  0
 11 12  1  0  0  0  0
 11 13  1  0  0  0  0
 11 14  1  0  0  0  0
 14 15  1  0  0  0  0
 14 20  2  0  0  0  0
 15 16  1  0  0  0  0
 15 17  1  0  0  0  0
 17 18  1  0  0  0  0
 17 19  2  0  0  0  0
 19 20  1  0  0  0  0
 20 21  1  0  0  0  0
 22 23  2  0  0  0  0
 22 24  1  0  0  0  0
 24 25  1  0  0  0  0
 24 26  1  0  0  0  0
 26 27  1  0  0  0  0
 26 28  1  0  0  0  0
 26 29  1  0  0  0  0
M  END
$$$$

  -OEChem-01062216083D

 29 29  0     1  0  0  0  0  0999 V2000
   -3.3827   -2.4197    1.2817 H   0  0  0  0  0  0  0  0  0  0  0  0
   -3.2891   -1.4752    0.7380 C   0  0  0  0  0  0  0  0  0  0  0  0
   -3.7430   -0.6806    1.3356 H   0  0  0  0  0  0  0  0  0  0  0  0
   -3.8238   -1.5603   -0.2110 H   0  0  0  0  0  0  0  0  0  0  0  0
   -1.8266   -1.1621    0.4854 C   0  0  0  0  0  0  0  0  0  0  0  0
   -0.9724   -1.9796    0.7780 O   0  0  0  0  0  0  0  0  0  0  0  0
   -1.4776    0.0261   -0.1274 N   0  0  0  0  0  0  0  0  0  0  0  0
   -2.2523    0.6712   -0.2559 H   0  0  0  0  0  0  0  0  0  0  0  0
   -0.1302    0.6393   -0.0593 C   0  0  1  0  0  0  0  0  0  0  0  0
   -0.2104    1.6435   -0.4849 H   0  0  0  0  0  0  0  0  0  0  0  0
    0.3517    0.8014    1.4008 C   0  0  0  0  0  0  0  0  0  0  0  0
    0.3829   -0.1662    1.9107 H   0  0  0  0  0  0  0  0  0  0  0  0
    1.3707    1.2018    1.4199 H   0  0  0  0  0  0  0  0  0  0  0  0
   -0.5500    1.7595    2.1352 C   0  0  0  0  0  0  0  0  0  0  0  0
   -0.5953    3.1314    2.0217 N   0  0  0  0  0  0  0  0  0  0  0  0
    0.0116    3.7096    1.4436 H   0  0  0  0  0  0  0  0  0  0  0  0
   -1.5665    3.6051    2.8839 C   0  0  0  0  0  0  0  0  0  0  0  0
   -1.8290    4.6509    3.0154 H   0  0  0  0  0  0  0  0  0  0  0  0
   -2.1308    2.6069    3.5206 N   0  0  0  0  0  0  0  0  0  0  0  0
   -1.4922    1.4523    3.0801 C   0  0  0  0  0  0  0  0  0  0  0  0
   -1.7192    0.4483    3.4265 H   0  0  0  0  0  0  0  0  0  0  0  0
    0.9115   -0.0823   -0.9467 C   0  0  0  0  0  0  0  0  0  0  0  0
    2.1113    0.0569   -0.7425 O   0  0  0  0  0  0  0  0  0  0  0  0
    0.5022   -0.7191   -2.1043 N   0  0  0  0  0  0  0  0  0  0  0  0
   -0.4890   -0.9341   -2.1570 H   0  0  0  0  0  0  0  0  0  0  0  0
    1.4185   -1.4512   -2.9698 C   0  0  0  0  0  0  0  0  0  0  0  0
    1.8854   -2.2762   -2.4214 H   0  0  0  0  0  0  0  0  0  0  0  0
    0.8791   -1.8647   -3.8273 H   0  0  0  0  0  0  0  0  0  0  0  0
    2.2046   -0.7877   -3.3454 H   0  0  0  0  0  0  0  0  0  0  0  0
  1  2  1  0  0  0  0
  2  3  1  0  0  0  0
  2  4  1  0  0  0  0
  2  5  1  0  0  0  0
  5  6  2  0  0  0  0
  5  7  1  0  0  0  0
  7  8  1  0  0  0  0
  7  9  1  0  0  0  0
  9 10  1  0  0  0  0
  9 11  1  0  0  0  0
  9 22  1  0  0  0  0
 11 12  1  0  0  0  0
 11 13  1  0  0  0  0
 11 14  1  0  0  0  0
 14 15  1  0  0  0  0
 14 20  2  0  0  0  0
 15 16  1  0  0  0  0
 15 17  1  0  0  0  0
 17 18  1  0  0  0  0
 17 19  2  0  0  0  0
 19 20  1  0  0  0  0
 20 21  1  0  0  0  0
 22 23  2  0  0  0  0
 22 24  1  0  0  0  0
 24 25  1  0  0  0  0
 24 26  1  0  0  0  0
 26 27  1  0  0  0  0
 26 28  1  0  0  0  0
 26 29  1  0  0  0  0
M  END
$$$$

  -OEChem-01062216083D

 29 29  0     1  0  0  0  0  0999 V2000
   -3.3719   -2.4373    1.2577 H   0  0  0  0  0  0  0  0  0  0  0  0
   -3.2754   -1.4916    0.7166 C   0  0  0  0  0  0  0  0  0  0  0  0
   -3.7447   -0.7009    1.3074 H   0  0  0  0  0  0  0  0  0  0  0  0
   -3.7932   -1.5792   -0.2413 H   0  0  0  0  0  0  0  0  0  0  0  0
   -1.8109   -1.1693    0.4880 C   0  0  0  0  0  0  0  0  0  0  0  0
   -0.9578   -1.9770    0.8091 O   0  0  0  0  0  0  0  0  0  0  0  0
   -1.4625    0.0204   -0.1233 N   0  0  0  0  0  0  0  0  0  0  0  0
   -2.2400    0.6598   -0.2607 H   0  0  0  0  0  0  0  0  0  0  0  0
   -0.1180    0.6379   -0.0531 C   0  0  1  0  0  0  0  0  0  0  0  0
   -0.1978    1.6418   -0.4792 H   0  0  0  0  0  0  0  0  0  0  0  0
    0.3606    0.8060    1.4073 C   0  0  0  0  0  0  0  0  0  0  0  0
    0.3952   -0.1597    1.9207 H   0  0  0  0  0  0  0  0  0  0  0  0
    1.3780    1.2102    1.4255 H   0  0  0  0  0  0  0  0  0  0  0  0
   -0.5458    1.7634    2.1371 C   0  0  0  0  0  0  0  0  0  0  0  0
   -0.5965    3.1348    2.0203 N   0  0  0  0  0  0  0  0  0  0  0  0
    0.0110    3.7148    1.4448 H   0  0  0  0  0  0  0  0  0  0  0  0
   -1.5717    3.6062    2.8793 C   0  0  0  0  0  0  0  0  0  0  0  0
   -1.8381    4.6515    3.0084 H   0  0  0  0  0  0  0  0  0  0  0  0
   -2.1339    2.6068    3.5161 N   0  0  0  0  0  0  0  0  0  0  0  0
   -1.4894    1.4539    3.0796 C   0  0  0  0  0  0  0  0  0  0  0  0
   -1.7132    0.4495    3.4265 H   0  0  0  0  0  0  0  0  0  0  0  0
    0.9166   -0.0903   -0.9436 C   0  0  0  0  0  0  0  0  0  0  0  0
    2.0951   -0.1669   -0.6179 O   0  0  0  0  0  0  0  0  0  0  0  0
    0.5603   -0.4495   -2.2313 N   0  0  0  0  0  0  0  0  0  0  0  0
   -0.4361   -0.4790   -2.4239 H   0  0  0  0  0  0  0  0  0  0  0  0
    1.4662   -1.1452   -3.1373 C   0  0  0  0  0  0  0  0  0  0  0  0
    1.7658   -2.1090   -2.7124 H   0  0  0  0  0  0  0  0  0  0  0  0
    0.9751   -1.3262   -4.0981 H   0  0  0  0  0  0  0  0  0  0  0  0
    2.3643   -0.5450   -3.3176 H   0  0  0  0  0  0  0  0  0  0  0  0
  1  2  1  0  0  0  0
  2  3  1  0  0  0  0
  2  4  1  0  0  0  0
  2  5  1  0  0  0  0
  5  6  2  0  0  0  0
  5  7  1  0  0  0  0
  7  8  1  0  0  0  0
  7  9  1  0  0  0  0
  9 10  1  0  0  0  0
  9 11  1  0  0  0  0
  9 22  1  0  0  0  0
 11 12  1  0  0  0  0
 11 13  1  0  0  0  0
 11 14  1  0  0  0  0
 14 15  1  0  0  0  0
 14 20  2  0  0  0  0
 15 16  1  0  0  0  0
 15 17  1  0  0  0  0
 17 18  1  0  0  0  0
 17 19  2  0  0  0  0
 19 20  1  0  0  0  0
 20 21  1  0  0  0  0
 22 23  2  0  0  0  0
 22 24  1  0  0  0  0
 24 25  1  0  0  0  0
 24 26  1  0  0  0  0
 26 27  1  0  0  0  0
 26 28  1  0  0  0  0
 26 29  1  0  0  0  0
M  END
$$$$

  -OEChem-01062216083D

 29 29  0     1  0  0  0  0  0999 V2000
   -3.3829   -2.4470    1.2423 H   0  0  0  0  0  0  0  0  0  0  0  0
   -3.2796   -1.5069    0.6928 C   0  0  0  0  0  0  0  0  0  0  0  0
   -3.7709   -0.7135    1.2616 H   0  0  0  0  0  0  0  0  0  0  0  0
   -3.7710   -1.6104   -0.2774 H   0  0  0  0  0  0  0  0  0  0  0  0
   -1.8121   -1.1750    0.4980 C   0  0  0  0  0  0  0  0  0  0  0  0
   -0.9637   -1.9728    0.8530 O   0  0  0  0  0  0  0  0  0  0  0  0
   -1.4601    0.0123   -0.1165 N   0  0  0  0  0  0  0  0  0  0  0  0
   -2.2393    0.6438   -0.2772 H   0  0  0  0  0  0  0  0  0  0  0  0
   -0.1179    0.6338   -0.0523 C   0  0  1  0  0  0  0  0  0  0  0  0
   -0.2014    1.6367   -0.4803 H   0  0  0  0  0  0  0  0  0  0  0  0
    0.3682    0.8108    1.4042 C   0  0  0  0  0  0  0  0  0  0  0  0
    0.4089   -0.1523    1.9220 H   0  0  0  0  0  0  0  0  0  0  0  0
    1.3855    1.2161    1.4116 H   0  0  0  0  0  0  0  0  0  0  0  0
   -0.5356    1.7689    2.1363 C   0  0  0  0  0  0  0  0  0  0  0  0
   -0.5939    3.1398    2.0175 N   0  0  0  0  0  0  0  0  0  0  0  0
    0.0079    3.7222    1.4388 H   0  0  0  0  0  0  0  0  0  0  0  0
   -1.5661    3.6076    2.8819 C   0  0  0  0  0  0  0  0  0  0  0  0
   -1.8372    4.6518    3.0110 H   0  0  0  0  0  0  0  0  0  0  0  0
   -2.1195    2.6068    3.5239 N   0  0  0  0  0  0  0  0  0  0  0  0
   -1.4724    1.4562    3.0848 C   0  0  0  0  0  0  0  0  0  0  0  0
   -1.6891    0.4507    3.4336 H   0  0  0  0  0  0  0  0  0  0  0  0
    0.9123   -0.0996   -0.9437 C   0  0  0  0  0  0  0  0  0  0  0  0
    2.0258   -0.3963   -0.5287 O   0  0  0  0  0  0  0  0  0  0  0  0
    0.6737   -0.1856   -2.3042 N   0  0  0  0  0  0  0  0  0  0  0  0
   -0.2806   -0.0173   -2.6064 H   0  0  0  0  0  0  0  0  0  0  0  0
    1.5969   -0.8282   -3.2324 C   0  0  0  0  0  0  0  0  0  0  0  0
    1.7380   -1.8809   -2.9652 H   0  0  0  0  0  0  0  0  0  0  0  0
    1.2032   -0.7782   -4.2521 H   0  0  0  0  0  0  0  0  0  0  0  0
    2.5705   -0.3272   -3.2150 H   0  0  0  0  0  0  0  0  0  0  0  0
  1  2  1  0  0  0  0
  2  3  1  0  0  0  0
  2  4  1  0  0  0  0
  2  5  1  0  0  0  0
  5  6  2  0  0  0  0
  5  7  1  0  0  0  0
  7  8  1  0  0  0  0
  7  9  1  0  0  0  0
  9 10  1  0  0  0  0
  9 11  1  0  0  0  0
  9 22  1  0  0  0  0
 11 12  1  0  0  0  0
 11 13  1  0  0  0  0
 11 14  1  0  0  0  0
 14 15  1  0  0  0  0
 14 20  2  0  0  0  0
 15 16  1  0  0  0  0
 15 17  1  0  0  0  0
 17 18  1  0  0  0  0
 17 19  2  0  0  0  0
 19 20  1  0  0  0  0
 20 21  1  0  0  0  0
 22 23  2  0  0  0  0
 22 24  1  0  0  0  0
 24 25  1  0  0  0  0
 24 26  1  0  0  0  0
 26 27  1  0  0  0  0
 26 28  1  0  0  0  0
 26 29  1  0  0  0  0
M  END
$$$$

  -OEChem-01062216083D

 29 29  0     1  0  0  0  0  0999 V2000
   -3.4045   -2.4599    1.2261 H   0  0  0  0  0  0  0  0  0  0  0  0
   -3.2945   -1.5183    0.6804 C   0  0  0  0  0  0  0  0  0  0  0  0
   -3.7954   -0.7266    1.2430 H   0  0  0  0  0  0  0  0  0  0  0  0
   -3.7706   -1.6211   -0.2975 H   0  0  0  0  0  0  0  0  0  0  0  0
   -1.8247   -1.1836    0.5101 C   0  0  0  0  0  0  0  0  0  0  0  0
   -0.9835   -1.9714    0.9011 O   0  0  0  0  0  0  0  0  0  0  0  0
   -1.4685    0.0004   -0.1091 N   0  0  0  0  0  0  0  0  0  0  0  0
   -2.2488    0.6206   -0.3034 H   0  0  0  0  0  0  0  0  0  0  0  0
   -0.1276    0.6250   -0.0580 C   0  0  1  0  0  0  0  0  0  0  0  0
   -0.2188    1.6280   -0.4843 H   0  0  0  0  0  0  0  0  0  0  0  0
    0.3714    0.8083    1.3929 C   0  0  0  0  0  0  0  0  0  0  0  0
    0.4169   -0.1528    1.9141 H   0  0  0  0  0  0  0  0  0  0  0  0
    1.3893    1.2118    1.3870 H   0  0  0  0  0  0  0  0  0  0  0  0
   -0.5265    1.7673    2.1311 C   0  0  0  0  0  0  0  0  0  0  0  0
   -0.5875    3.1381    2.0081 N   0  0  0  0  0  0  0  0  0  0  0  0
    0.0088    3.7192    1.4226 H   0  0  0  0  0  0  0  0  0  0  0  0
   -1.5510    3.6081    2.8810 C   0  0  0  0  0  0  0  0  0  0  0  0
   -1.8207    4.6525    3.0097 H   0  0  0  0  0  0  0  0  0  0  0  0
   -2.0971    2.6090    3.5316 N   0  0  0  0  0  0  0  0  0  0  0  0
   -1.4537    1.4569    3.0897 C   0  0  0  0  0  0  0  0  0  0  0  0
   -1.6658    0.4525    3.4444 H   0  0  0  0  0  0  0  0  0  0  0  0
    0.9040   -0.1047   -0.9511 C   0  0  0  0  0  0  0  0  0  0  0  0
    1.9151   -0.6145   -0.4854 O   0  0  0  0  0  0  0  0  0  0  0  0
    0.8339    0.0676   -2.3230 N   0  0  0  0  0  0  0  0  0  0  0  0
   -0.0336    0.4401   -2.6950 H   0  0  0  0  0  0  0  0  0  0  0  0
    1.7983   -0.5161   -3.2485 C   0  0  0  0  0  0  0  0  0  0  0  0
    1.8006   -1.6077   -3.1604 H   0  0  0  0  0  0  0  0  0  0  0  0
    1.5421   -0.2513   -4.2786 H   0  0  0  0  0  0  0  0  0  0  0  0
    2.8066   -0.1436   -3.0388 H   0  0  0  0  0  0  0  0  0  0  0  0
  1  2  1  0  0  0  0
  2  3  1  0  0  0  0
  2  4  1  0  0  0  0
  2  5  1  0  0  0  0
  5  6  2  0  0  0  0
  5  7  1  0  0  0  0
  7  8  1  0  0  0  0
  7  9  1  0  0  0  0
  9 10  1  0  0  0  0
  9 11  1  0  0  0  0
  9 22  1  0  0  0  0
 11 12  1  0  0  0  0
 11 13  1  0  0  0  0
 11 14  1  0  0  0  0
 14 15  1  0  0  0  0
 14 20  2  0  0  0  0
 15 16  1  0  0  0  0
 15 17  1  0  0  0  0
 17 18  1  0  0  0  0
 17 19  2  0  0  0  0
 19 20  1  0  0  0  0
 20 21  1  0  0  0  0
 22 23  2  0  0  0  0
 22 24  1  0  0  0  0
 24 25  1  0  0  0  0
 24 26  1  0  0  0  0
 26 27  1  0  0  0  0
 26 28  1  0  0  0  0
 26 29  1  0  0  0  0
M  END
$$$$

  -OEChem-01062216083D

 29 29  0     1  0  0  0  0  0999 V2000
   -3.4298   -2.4931    1.1647 H   0  0  0  0  0  0  0  0  0  0  0  0
   -3.3081   -1.5570    0.6123 C   0  0  0  0  0  0  0  0  0  0  0  0
   -3.8679   -0.7719    1.1263 H   0  0  0  0  0  0  0  0  0  0  0  0
   -3.7125   -1.6882   -0.3941 H   0  0  0  0  0  0  0  0  0  0  0  0
   -1.8397   -1.1831    0.5370 C   0  0  0  0  0  0  0  0  0  0  0  0
   -1.0125   -1.9345    1.0179 O   0  0  0  0  0  0  0  0  0  0  0  0
   -1.4787   -0.0035   -0.0891 N   0  0  0  0  0  0  0  0  0  0  0  0
   -2.2590    0.5813   -0.3715 H   0  0  0  0  0  0  0  0  0  0  0  0
   -0.1425    0.6333   -0.0585 C   0  0  1  0  0  0  0  0  0  0  0  0
   -0.2523    1.6347   -0.4834 H   0  0  0  0  0  0  0  0  0  0  0  0
    0.3836    0.8284    1.3804 C   0  0  0  0  0  0  0  0  0  0  0  0
    0.4488   -0.1290    1.9059 H   0  0  0  0  0  0  0  0  0  0  0  0
    1.3984    1.2381    1.3497 H   0  0  0  0  0  0  0  0  0  0  0  0
   -0.5047    1.7828    2.1362 C   0  0  0  0  0  0  0  0  0  0  0  0
   -0.5800    3.1528    2.0115 N   0  0  0  0  0  0  0  0  0  0  0  0
   -0.0020    3.7380    1.4124 H   0  0  0  0  0  0  0  0  0  0  0  0
   -1.5239    3.6168    2.9087 C   0  0  0  0  0  0  0  0  0  0  0  0
   -1.7971    4.6595    3.0436 H   0  0  0  0  0  0  0  0  0  0  0  0
   -2.0456    2.6152    3.5750 N   0  0  0  0  0  0  0  0  0  0  0  0
   -1.4066    1.4666    3.1171 C   0  0  0  0  0  0  0  0  0  0  0  0
   -1.6019    0.4610    3.4785 H   0  0  0  0  0  0  0  0  0  0  0  0
    0.8907   -0.0905   -0.9550 C   0  0  0  0  0  0  0  0  0  0  0  0
    1.7529   -0.8221   -0.4878 O   0  0  0  0  0  0  0  0  0  0  0  0
    1.0205    0.2999   -2.2777 N   0  0  0  0  0  0  0  0  0  0  0  0
    0.2859    0.8824   -2.6660 H   0  0  0  0  0  0  0  0  0  0  0  0
    2.0169   -0.2650   -3.1814 C   0  0  0  0  0  0  0  0  0  0  0  0
    1.8765   -1.3468   -3.2781 H   0  0  0  0  0  0  0  0  0  0  0  0
    1.9272    0.1862   -4.1741 H   0  0  0  0  0  0  0  0  0  0  0  0
    3.0280   -0.0735   -2.8067 H   0  0  0  0  0  0  0  0  0  0  0  0
  1  2  1  0  0  0  0
  2  3  1  0  0  0  0
  2  4  1  0  0  0  0
  2  5  1  0  0  0  0
  5  6  2  0  0  0  0
  5  7  1  0  0  0  0
  7  8  1  0  0  0  0
  7  9  1  0  0  0  0
  9 10  1  0  0  0  0
  9 11  1  0  0  0  0
  9 22  1  0  0  0  0
 11 12  1  0  0  0  0
 11 13  1  0  0  0  0
 11 14  1  0  0  0  0
 14 15  1  0  0  0  0
 14 20  2  0  0  0  0
 15 16  1  0  0  0  0
 15 17  1  0  0  0  0
 17 18  1  0  0  0  0
 17 19  2  0  0  0  0
 19 20  1  0  0  0  0
 20 21  1  0  0  0  0
 22 23  2  0  0  0  0
 22 24  1  0  0  0  0
 24 25  1  0  0  0  0
 24 26  1  0  0  0  0
 26 27  1  0  0  0  0
 26 28  1  0  0  0  0
 26 29  1  0  0  0  0
M  END
$$$$

  -OEChem-01062216083D

 29 29  0     1  0  0  0  0  0999 V2000
   -3.4419   -2.5562    1.0524 H   0  0  0  0  0  0  0  0  0  0  0  0
   -3.3053   -1.6236    0.4971 C   0  0  0  0  0  0  0  0  0  0  0  0
   -3.9647   -0.8628    0.9217 H   0  0  0  0  0  0  0  0  0  0  0  0
   -3.5775   -1.7945   -0.5470 H   0  0  0  0  0  0  0  0  0  0  0  0
   -1.8611   -1.1680    0.5888 C   0  0  0  0  0  0  0  0  0  0  0  0
   -1.0758   -1.8380    1.2327 O   0  0  0  0  0  0  0  0  0  0  0  0
   -1.4925    0.0036   -0.0498 N   0  0  0  0  0  0  0  0  0  0  0  0
   -2.2515    0.5009   -0.5039 H   0  0  0  0  0  0  0  0  0  0  0  0
   -0.1618    0.6539   -0.0457 C   0  0  1  0  0  0  0  0  0  0  0  0
   -0.2943    1.6506   -0.4750 H   0  0  0  0  0  0  0  0  0  0  0  0
    0.4060    0.8652    1.3740 C   0  0  0  0  0  0  0  0  0  0  0  0
    0.5018   -0.0865    1.9044 H   0  0  0  0  0  0  0  0  0  0  0  0
    1.4145    1.2852    1.3068 H   0  0  0  0  0  0  0  0  0  0  0  0
   -0.4667    1.8154    2.1526 C   0  0  0  0  0  0  0  0  0  0  0  0
   -0.5647    3.1842    2.0277 N   0  0  0  0  0  0  0  0  0  0  0  0
   -0.0171    3.7763    1.4076 H   0  0  0  0  0  0  0  0  0  0  0  0
   -1.4877    3.6369    2.9524 C   0  0  0  0  0  0  0  0  0  0  0  0
   -1.7723    4.6756    3.0940 H   0  0  0  0  0  0  0  0  0  0  0  0
   -1.9738    2.6303    3.6370 N   0  0  0  0  0  0  0  0  0  0  0  0
   -1.3358    1.4888    3.1597 C   0  0  0  0  0  0  0  0  0  0  0  0
   -1.5087    0.4809    3.5261 H   0  0  0  0  0  0  0  0  0  0  0  0
    0.8705   -0.0679   -0.9440 C   0  0  0  0  0  0  0  0  0  0  0  0
    1.5120   -1.0316   -0.5520 O   0  0  0  0  0  0  0  0  0  0  0  0
    1.2165    0.4901   -2.1639 N   0  0  0  0  0  0  0  0  0  0  0  0
    0.6773    1.2850   -2.4910 H   0  0  0  0  0  0  0  0  0  0  0  0
    2.2292   -0.0821   -3.0447 C   0  0  0  0  0  0  0  0  0  0  0  0
    1.9371   -1.0892   -3.3605 H   0  0  0  0  0  0  0  0  0  0  0  0
    2.3505    0.5395   -3.9368 H   0  0  0  0  0  0  0  0  0  0  0  0
    3.1951   -0.1406   -2.5318 H   0  0  0  0  0  0  0  0  0  0  0  0
  1  2  1  0  0  0  0
  2  3  1  0  0  0  0
  2  4  1  0  0  0  0
  2  5  1  0  0  0  0
  5  6  2  0  0  0  0
  5  7  1  0  0  0  0
  7  8  1  0  0  0  0
  7  9  1  0  0  0  0
  9 10  1  0  0  0  0
  9 11  1  0  0  0  0
  9 22  1  0  0  0  0
 11 12  1  0  0  0  0
 11 13  1  0  0  0  0
 11 14  1  0  0  0  0
 14 15  1  0  0  0  0
 14 20  2  0  0  0  0
 15 16  1  0  0  0  0
 15 17  1  0  0  0  0
 17 18  1  0  0  0  0
 17 19  2  0  0  0  0
 19 20  1  0  0  0  0
 20 21  1  0  0  0  0
 22 23  2  0  0  0  0
 22 24  1  0  0  0  0
 24 25  1  0  0  0  0
 24 26  1  0  0  0  0
 26 27  1  0  0  0  0
 26 28  1  0  0  0  0
 26 29  1  0  0  0  0
M  END
$$$$

  -OEChem-01062216083D

 29 29  0     1  0  0  0  0  0999 V2000
   -3.3983   -2.6408    0.9206 H   0  0  0  0  0  0  0  0  0  0  0  0
   -3.2618   -1.7074    0.3670 C   0  0  0  0  0  0  0  0  0  0  0  0
   -4.0242   -0.9935    0.6874 H   0  0  0  0  0  0  0  0  0  0  0  0
   -3.3842   -1.9115   -0.6992 H   0  0  0  0  0  0  0  0  0  0  0  0
   -1.8792   -1.1413    0.6312 C   0  0  0  0  0  0  0  0  0  0  0  0
   -1.1644   -1.7044    1.4402 O   0  0  0  0  0  0  0  0  0  0  0  0
   -1.5095    0.0271   -0.0147 N   0  0  0  0  0  0  0  0  0  0  0  0
   -2.2012    0.3905   -0.6618 H   0  0  0  0  0  0  0  0  0  0  0  0
   -0.1785    0.6780   -0.0160 C   0  0  1  0  0  0  0  0  0  0  0  0
   -0.3207    1.6706   -0.4511 H   0  0  0  0  0  0  0  0  0  0  0  0
    0.4171    0.8999    1.3895 C   0  0  0  0  0  0  0  0  0  0  0  0
    0.5314   -0.0469    1.9241 H   0  0  0  0  0  0  0  0  0  0  0  0
    1.4217    1.3245    1.2985 H   0  0  0  0  0  0  0  0  0  0  0  0
   -0.4385    1.8542    2.1816 C   0  0  0  0  0  0  0  0  0  0  0  0
   -0.5425    3.2225    2.0540 N   0  0  0  0  0  0  0  0  0  0  0  0
   -0.0177    3.8132    1.4139 H   0  0  0  0  0  0  0  0  0  0  0  0
   -1.4451    3.6767    2.9976 C   0  0  0  0  0  0  0  0  0  0  0  0
   -1.7294    4.7152    3.1404 H   0  0  0  0  0  0  0  0  0  0  0  0
   -1.9118    2.6727    3.6988 N   0  0  0  0  0  0  0  0  0  0  0  0
   -1.2858    1.5297    3.2081 C   0  0  0  0  0  0  0  0  0  0  0  0
   -1.4511    0.5225    3.5798 H   0  0  0  0  0  0  0  0  0  0  0  0
    0.8522   -0.0476   -0.9119 C   0  0  0  0  0  0  0  0  0  0  0  0
    1.1732   -1.2115   -0.7248 O   0  0  0  0  0  0  0  0  0  0  0  0
    1.4354    0.6315   -1.9691 N   0  0  0  0  0  0  0  0  0  0  0  0
    1.1617    1.5964   -2.1239 H   0  0  0  0  0  0  0  0  0  0  0  0
    2.4172    0.0269   -2.8632 C   0  0  0  0  0  0  0  0  0  0  0  0
    1.9914   -0.8477   -3.3663 H   0  0  0  0  0  0  0  0  0  0  0  0
    2.7281    0.7465   -3.6264 H   0  0  0  0  0  0  0  0  0  0  0  0
    3.3037   -0.2873   -2.3023 H   0  0  0  0  0  0  0  0  0  0  0  0
  1  2  1  0  0  0  0
  2  3  1  0  0  0  0
  2  4  1  0  0  0  0
  2  5  1  0  0  0  0
  5  6  2  0  0  0  0
  5  7  1  0  0  0  0
  7  8  1  0  0  0  0
  7  9  1  0  0  0  0
  9 10  1  0  0  0  0
  9 11  1  0  0  0  0
  9 22  1  0  0  0  0
 11 12  1  0  0  0  0
 11 13  1  0  0  0  0
 11 14  1  0  0  0  0
 14 15  1  0  0  0  0
 14 20  2  0  0  0  0
 15 16  1  0  0  0  0
 15 17  1  0  0  0  0
 17 18  1  0  0  0  0
 17 19  2  0  0  0  0
 19 20  1  0  0  0  0
 20 21  1  0  0  0  0
 22 23  2  0  0  0  0
 22 24  1  0  0  0  0
 24 25  1  0  0  0  0
 24 26  1  0  0  0  0
 26 27  1  0  0  0  0
 26 28  1  0  0  0  0
 26 29  1  0  0  0  0
M  END
$$$$

  -OEChem-01062216083D

 29 29  0     1  0  0  0  0  0999 V2000
   -3.3504   -2.6902    0.8649 H   0  0  0  0  0  0  0  0  0  0  0  0
   -3.2210   -1.7573    0.3089 C   0  0  0  0  0  0  0  0  0  0  0  0
   -4.0321   -1.0748    0.5730 H   0  0  0  0  0  0  0  0  0  0  0  0
   -3.2682   -1.9779   -0.7600 H   0  0  0  0  0  0  0  0  0  0  0  0
   -1.8832   -1.1281    0.6496 C   0  0  0  0  0  0  0  0  0  0  0  0
   -1.2002   -1.6434    1.5175 O   0  0  0  0  0  0  0  0  0  0  0  0
   -1.5173    0.0412    0.0026 N   0  0  0  0  0  0  0  0  0  0  0  0
   -2.1632    0.3387   -0.7210 H   0  0  0  0  0  0  0  0  0  0  0  0
   -0.1819    0.6836    0.0093 C   0  0  1  0  0  0  0  0  0  0  0  0
   -0.3211    1.6733   -0.4336 H   0  0  0  0  0  0  0  0  0  0  0  0
    0.4168    0.9128    1.4120 C   0  0  0  0  0  0  0  0  0  0  0  0
    0.5303   -0.0295    1.9538 H   0  0  0  0  0  0  0  0  0  0  0  0
    1.4223    1.3343    1.3163 H   0  0  0  0  0  0  0  0  0  0  0  0
   -0.4316    1.8779    2.1989 C   0  0  0  0  0  0  0  0  0  0  0  0
   -0.5298    3.2461    2.0639 N   0  0  0  0  0  0  0  0  0  0  0  0
   -0.0103    3.8310    1.4143 H   0  0  0  0  0  0  0  0  0  0  0  0
   -1.4265    3.7096    3.0088 C   0  0  0  0  0  0  0  0  0  0  0  0
   -1.7050    4.7504    3.1473 H   0  0  0  0  0  0  0  0  0  0  0  0
   -1.8947    2.7119    3.7177 N   0  0  0  0  0  0  0  0  0  0  0  0
   -1.2786    1.5628    3.2288 C   0  0  0  0  0  0  0  0  0  0  0  0
   -1.4484    0.5581    3.6054 H   0  0  0  0  0  0  0  0  0  0  0  0
    0.8484   -0.0471   -0.8840 C   0  0  0  0  0  0  0  0  0  0  0  0
    0.8741   -1.2658   -0.9811 O   0  0  0  0  0  0  0  0  0  0  0  0
    1.6670    0.6905   -1.7235 N   0  0  0  0  0  0  0  0  0  0  0  0
    1.6281    1.7025   -1.6570 H   0  0  0  0  0  0  0  0  0  0  0  0
    2.6209    0.0836   -2.6458 C   0  0  0  0  0  0  0  0  0  0  0  0
    2.1024   -0.5567   -3.3673 H   0  0  0  0  0  0  0  0  0  0  0  0
    3.1606    0.8589   -3.1980 H   0  0  0  0  0  0  0  0  0  0  0  0
    3.3505   -0.5224   -2.0982 H   0  0  0  0  0  0  0  0  0  0  0  0
  1  2  1  0  0  0  0
  2  3  1  0  0  0  0
  2  4  1  0  0  0  0
  2  5  1  0  0  0  0
  5  6  2  0  0  0  0
  5  7  1  0  0  0  0
  7  8  1  0  0  0  0
  7  9  1  0  0  0  0
  9 10  1  0  0  0  0
  9 11  1  0  0  0  0
  9 22  1  0  0  0  0
 11 12  1  0  0  0  0
 11 13  1  0  0  0  0
 11 14  1  0  0  0  0
 14 15  1  0  0  0  0
 14 20  2  0  0  0  0
 15 16  1  0  0  0  0
 15 17  1  0  0  0  0
 17 18  1  0  0  0  0
 17 19  2  0  0  0  0
 19 20  1  0  0  0  0
 20 21  1  0  0  0  0
 22 23  2  0  0  0  0
 22 24  1  0  0  0  0
 24 25  1  0  0  0  0
 24 26  1  0  0  0  0
 26 27  1  0  0  0  0
 26 28  1  0  0  0  0
 26 29  1  0  0  0  0
M  END
$$$$

  -OEChem-01062216083D

 29 29  0     1  0  0  0  0  0999 V2000
   -3.3436   -2.6974    0.8596 H   0  0  0  0  0  0  0  0  0  0  0  0
   -3.2159   -1.7610    0.3091 C   0  0  0  0  0  0  0  0  0  0  0  0
   -4.0273   -1.0805    0.5776 H   0  0  0  0  0  0  0  0  0  0  0  0
   -3.2641   -1.9749   -0.7612 H   0  0  0  0  0  0  0  0  0  0  0  0
   -1.8784   -1.1323    0.6510 C   0  0  0  0  0  0  0  0  0  0  0  0
   -1.1831   -1.6584    1.5035 O   0  0  0  0  0  0  0  0  0  0  0  0
   -1.5140    0.0401    0.0102 N   0  0  0  0  0  0  0  0  0  0  0  0
   -2.1431    0.3215   -0.7344 H   0  0  0  0  0  0  0  0  0  0  0  0
   -0.1756    0.6751    0.0243 C   0  0  1  0  0  0  0  0  0  0  0  0
   -0.3091    1.6641   -0.4226 H   0  0  0  0  0  0  0  0  0  0  0  0
    0.4162    0.9075    1.4306 C   0  0  0  0  0  0  0  0  0  0  0  0
    0.5212   -0.0316    1.9792 H   0  0  0  0  0  0  0  0  0  0  0  0
    1.4240    1.3244    1.3420 H   0  0  0  0  0  0  0  0  0  0  0  0
   -0.4345    1.8806    2.2045 C   0  0  0  0  0  0  0  0  0  0  0  0
   -0.5262    3.2485    2.0606 N   0  0  0  0  0  0  0  0  0  0  0  0
   -0.0078    3.8263    1.4038 H   0  0  0  0  0  0  0  0  0  0  0  0
   -1.4293    3.7212    2.9949 C   0  0  0  0  0  0  0  0  0  0  0  0
   -1.7081    4.7633    3.1225 H   0  0  0  0  0  0  0  0  0  0  0  0
   -1.9033    2.7299    3.7090 N   0  0  0  0  0  0  0  0  0  0  0  0
   -1.2874    1.5757    3.2326 C   0  0  0  0  0  0  0  0  0  0  0  0
   -1.4614    0.5747    3.6169 H   0  0  0  0  0  0  0  0  0  0  0  0
    0.8530   -0.0557   -0.8720 C   0  0  0  0  0  0  0  0  0  0  0  0
    0.6785   -1.2079   -1.2466 O   0  0  0  0  0  0  0  0  0  0  0  0
    1.8768    0.6685   -1.4605 N   0  0  0  0  0  0  0  0  0  0  0  0
    2.0084    1.6302   -1.1642 H   0  0  0  0  0  0  0  0  0  0  0  0
    2.8350    0.0848   -2.3930 C   0  0  0  0  0  0  0  0  0  0  0  0
    2.3207   -0.3035   -3.2785 H   0  0  0  0  0  0  0  0  0  0  0  0
    3.5568    0.8402   -2.7178 H   0  0  0  0  0  0  0  0  0  0  0  0
    3.3831   -0.7349   -1.9163 H   0  0  0  0  0  0  0  0  0  0  0  0
  1  2  1  0  0  0  0
  2  3  1  0  0  0  0
  2  4  1  0  0  0  0
  2  5  1  0  0  0  0
  5  6  2  0  0  0  0
  5  7  1  0  0  0  0
  7  8  1  0  0  0  0
  7  9  1  0  0  0  0
  9 10  1  0  0  0  0
  9 11  1  0  0  0  0
  9 22  1  0  0  0  0
 11 12  1  0  0  0  0
 11 13  1  0  0  0  0
 11 14  1  0  0  0  0
 14 15  1  0  0  0  0
 14 20  2  0  0  0  0
 15 16  1  0  0  0  0
 15 17  1  0  0  0  0
 17 18  1  0  0  0  0
 17 19  2  0  0  0  0
 19 20  1  0  0  0  0
 20 21  1  0  0  0  0
 22 23  2  0  0  0  0
 22 24  1  0  0  0  0
 24 25  1  0  0  0  0
 24 26  1  0  0  0  0
 26 27  1  0  0  0  0
 26 28  1  0  0  0  0
 26 29  1  0  0  0  0
M  END
$$$$

  -OEChem-01062216083D

 29 29  0     1  0  0  0  0  0999 V2000
   -3.3292   -2.7010    0.8547 H   0  0  0  0  0  0  0  0  0  0  0  0
   -3.2055   -1.7610    0.3097 C   0  0  0  0  0  0  0  0  0  0  0  0
   -4.0172   -1.0841    0.5861 H   0  0  0  0  0  0  0  0  0  0  0  0
   -3.2576   -1.9681   -0.7618 H   0  0  0  0  0  0  0  0  0  0  0  0
   -1.8669   -1.1327    0.6494 C   0  0  0  0  0  0  0  0  0  0  0  0
   -1.1508   -1.6799    1.4714 O   0  0  0  0  0  0  0  0  0  0  0  0
   -1.5058    0.0458    0.0193 N   0  0  0  0  0  0  0  0  0  0  0  0
   -2.1313    0.3298   -0.7277 H   0  0  0  0  0  0  0  0  0  0  0  0
   -0.1660    0.6775    0.0391 C   0  0  1  0  0  0  0  0  0  0  0  0
   -0.2915    1.6679   -0.4070 H   0  0  0  0  0  0  0  0  0  0  0  0
    0.4140    0.9082    1.4527 C   0  0  0  0  0  0  0  0  0  0  0  0
    0.5100   -0.0304    2.0037 H   0  0  0  0  0  0  0  0  0  0  0  0
    1.4230    1.3241    1.3785 H   0  0  0  0  0  0  0  0  0  0  0  0
   -0.4427    1.8837    2.2165 C   0  0  0  0  0  0  0  0  0  0  0  0
   -0.5287    3.2515    2.0692 N   0  0  0  0  0  0  0  0  0  0  0  0
   -0.0045    3.8262    1.4142 H   0  0  0  0  0  0  0  0  0  0  0  0
   -1.4426    3.7289    2.9905 C   0  0  0  0  0  0  0  0  0  0  0  0
   -1.7209    4.7719    3.1119 H   0  0  0  0  0  0  0  0  0  0  0  0
   -1.9281    2.7404    3.7008 N   0  0  0  0  0  0  0  0  0  0  0  0
   -1.3096    1.5837    3.2342 C   0  0  0  0  0  0  0  0  0  0  0  0
   -1.4920    0.5840    3.6178 H   0  0  0  0  0  0  0  0  0  0  0  0
    0.8536   -0.0539   -0.8683 C   0  0  0  0  0  0  0  0  0  0  0  0
    0.5486   -1.0717   -1.4783 O   0  0  0  0  0  0  0  0  0  0  0  0
    2.0437    0.5699   -1.2055 N   0  0  0  0  0  0  0  0  0  0  0  0
    2.2874    1.4227   -0.7122 H   0  0  0  0  0  0  0  0  0  0  0  0
    3.0144   -0.0075   -2.1288 C   0  0  0  0  0  0  0  0  0  0  0  0
    2.5671   -0.1442   -3.1191 H   0  0  0  0  0  0  0  0  0  0  0  0
    3.8809    0.6529   -2.2300 H   0  0  0  0  0  0  0  0  0  0  0  0
    3.3609   -0.9795   -1.7616 H   0  0  0  0  0  0  0  0  0  0  0  0
  1  2  1  0  0  0  0
  2  3  1  0  0  0  0
  2  4  1  0  0  0  0
  2  5  1  0  0  0  0
  5  6  2  0  0  0  0
  5  7  1  0  0  0  0
  7  8  1  0  0  0  0
  7  9  1  0  0  0  0
  9 10  1  0  0  0  0
  9 11  1  0  0  0  0
  9 22  1  0  0  0  0
 11 12  1  0  0  0  0
 11 13  1  0  0  0  0
 11 14  1  0  0  0  0
 14 15  1  0  0  0  0
 14 20  2  0  0  0  0
 15 16  1  0  0  0  0
 15 17  1  0  0  0  0
 17 18  1  0  0  0  0
 17 19  2  0  0  0  0
 19 20  1  0  0  0  0
 20 21  1  0  0  0  0
 22 23  2  0  0  0  0
 22 24  1  0  0  0  0
 24 25  1  0  0  0  0
 24 26  1  0  0  0  0
 26 27  1  0  0  0  0
 26 28  1  0  0  0  0
 26 29  1  0  0  0  0
M  END
$$$$

  -OEChem-01062216083D

 29 29  0     1  0  0  0  0  0999 V2000
   -3.4144   -2.6728    0.7666 H   0  0  0  0  0  0  0  0  0  0  0  0
   -3.2548   -1.7154    0.2624 C   0  0  0  0  0  0  0  0  0  0  0  0
   -4.0215   -1.0111    0.5935 H   0  0  0  0  0  0  0  0  0  0  0  0
   -3.3467   -1.8668   -0.8158 H   0  0  0  0  0  0  0  0  0  0  0  0
   -1.8767   -1.1730    0.5919 C   0  0  0  0  0  0  0  0  0  0  0  0
   -1.1575   -1.8168    1.3369 O   0  0  0  0  0  0  0  0  0  0  0  0
   -1.4789    0.0166    0.0073 N   0  0  0  0  0  0  0  0  0  0  0  0
   -2.1004    0.3432   -0.7266 H   0  0  0  0  0  0  0  0  0  0  0  0
   -0.1415    0.6551    0.0519 C   0  0  1  0  0  0  0  0  0  0  0  0
   -0.3109    1.7197   -0.1327 H   0  0  0  0  0  0  0  0  0  0  0  0
    0.5993    0.5792    1.4082 C   0  0  0  0  0  0  0  0  0  0  0  0
    0.7696   -0.4561    1.7131 H   0  0  0  0  0  0  0  0  0  0  0  0
    1.5883    1.0368    1.3221 H   0  0  0  0  0  0  0  0  0  0  0  0
   -0.1625    1.3350    2.4663 C   0  0  0  0  0  0  0  0  0  0  0  0
   -0.2610    2.6995    2.6364 N   0  0  0  0  0  0  0  0  0  0  0  0
    0.1709    3.4165    2.0587 H   0  0  0  0  0  0  0  0  0  0  0  0
   -1.0456    2.9413    3.7488 C   0  0  0  0  0  0  0  0  0  0  0  0
   -1.3021    3.9257    4.1298 H   0  0  0  0  0  0  0  0  0  0  0  0
   -1.4369    1.8101    4.2818 N   0  0  0  0  0  0  0  0  0  0  0  0
   -0.8893    0.7985    3.4971 C   0  0  0  0  0  0  0  0  0  0  0  0
   -1.0202   -0.2648    3.6762 H   0  0  0  0  0  0  0  0  0  0  0  0
    0.7484    0.1807   -1.1237 C   0  0  0  0  0  0  0  0  0  0  0  0
    0.2690   -0.4762   -2.0410 O   0  0  0  0  0  0  0  0  0  0  0  0
    2.0419    0.6545   -1.2710 N   0  0  0  0  0  0  0  0  0  0  0  0
    2.4385    1.1907   -0.5058 H   0  0  0  0  0  0  0  0  0  0  0  0
    2.9035    0.2921   -2.3911 C   0  0  0  0  0  0  0  0  0  0  0  0
    2.4519    0.6026   -3.3392 H   0  0  0  0  0  0  0  0  0  0  0  0
    3.8759    0.7846   -2.2958 H   0  0  0  0  0  0  0  0  0  0  0  0
    3.0644   -0.7908   -2.4156 H   0  0  0  0  0  0  0  0  0  0  0  0
  1  2  1  0  0  0  0
  2  3  1  0  0  0  0
  2  4  1  0  0  0  0
  2  5  1  0  0  0  0
  5  6  2  0  0  0  0
  5  7  1  0  0  0  0
  7  8  1  0  0  0  0
  7  9  1  0  0  0  0
  9 10  1  0  0  0  0
  9 11  1  0  0  0  0
  9 22  1  0  0  0  0
 11 12  1  0  0  0  0
 11 13  1  0  0  0  0
 11 14  1  0  0  0  0
 14 15  1  0  0  0  0
 14 20  2  0  0  0  0
 15 16  1  0  0  0  0
 15 17  1  0  0  0  0
 17 18  1  0  0  0  0
 17 19  2  0  0  0  0
 19 20  1  0  0  0  0
 20 21  1  0  0  0  0
 22 23  2  0  0  0  0
 22 24  1  0  0  0  0
 24 25  1  0  0  0  0
 24 26  1  0  0  0  0
 26 27  1  0  0  0  0
 26 28  1  0  0  0  0
 26 29  1  0  0  0  0
M  END
$$$$

  -OEChem-01062216083D

 29 29  0     1  0  0  0  0  0999 V2000
   -3.3953   -2.6663    0.7682 H   0  0  0  0  0  0  0  0  0  0  0  0
   -3.2369   -1.7061    0.2691 C   0  0  0  0  0  0  0  0  0  0  0  0
   -3.9936   -0.9994    0.6178 H   0  0  0  0  0  0  0  0  0  0  0  0
   -3.3470   -1.8476   -0.8088 H   0  0  0  0  0  0  0  0  0  0  0  0
   -1.8506   -1.1755    0.5816 C   0  0  0  0  0  0  0  0  0  0  0  0
   -1.1149   -1.8386    1.2930 O   0  0  0  0  0  0  0  0  0  0  0  0
   -1.4560    0.0209    0.0106 N   0  0  0  0  0  0  0  0  0  0  0  0
   -2.0841    0.3667   -0.7093 H   0  0  0  0  0  0  0  0  0  0  0  0
   -0.1227    0.6652    0.0681 C   0  0  1  0  0  0  0  0  0  0  0  0
   -0.2918    1.7300   -0.1150 H   0  0  0  0  0  0  0  0  0  0  0  0
    0.6012    0.5895    1.4344 C   0  0  0  0  0  0  0  0  0  0  0  0
    0.7740   -0.4448    1.7408 H   0  0  0  0  0  0  0  0  0  0  0  0
    1.5864    1.0574    1.3634 H   0  0  0  0  0  0  0  0  0  0  0  0
   -0.1779    1.3405    2.4826 C   0  0  0  0  0  0  0  0  0  0  0  0
   -0.2841    2.7042    2.6527 N   0  0  0  0  0  0  0  0  0  0  0  0
    0.1522    3.4234    2.0807 H   0  0  0  0  0  0  0  0  0  0  0  0
   -1.0879    2.9417    3.7524 C   0  0  0  0  0  0  0  0  0  0  0  0
   -1.3550    3.9245    4.1301 H   0  0  0  0  0  0  0  0  0  0  0  0
   -1.4835    1.8081    4.2776 N   0  0  0  0  0  0  0  0  0  0  0  0
   -0.9198    0.7998    3.5003 C   0  0  0  0  0  0  0  0  0  0  0  0
   -1.0513   -0.2642    3.6743 H   0  0  0  0  0  0  0  0  0  0  0  0
    0.7623    0.1953   -1.1137 C   0  0  0  0  0  0  0  0  0  0  0  0
    0.2364   -0.2253   -2.1385 O   0  0  0  0  0  0  0  0  0  0  0  0
    2.1323    0.4020   -1.1234 N   0  0  0  0  0  0  0  0  0  0  0  0
    2.5672    0.7048   -0.2579 H   0  0  0  0  0  0  0  0  0  0  0  0
    2.9924   -0.0055   -2.2287 C   0  0  0  0  0  0  0  0  0  0  0  0
    2.6968    0.5024   -3.1529 H   0  0  0  0  0  0  0  0  0  0  0  0
    4.0337    0.2522   -2.0125 H   0  0  0  0  0  0  0  0  0  0  0  0
    2.9284   -1.0876   -2.3851 H   0  0  0  0  0  0  0  0  0  0  0  0
  1  2  1  0  0  0  0
  2  3  1  0  0  0  0
  2  4  1  0  0  0  0
  2  5  1  0  0  0  0
  5  6  2  0  0  0  0
  5  7  1  0  0  0  0
  7  8  1  0  0  0  0
  7  9  1  0  0  0  0
  9 10  1  0  0  0  0
  9 11  1  0  0  0  0
  9 22  1  0  0  0  0
 11 12  1  0  0  0  0
 11 13  1  0  0  0  0
 11 14  1  0  0  0  0
 14 15  1  0  0  0  0
 14 20  2  0  0  0  0
 15 16  1  0  0  0  0
 15 17  1  0  0  0  0
 17 18  1  0  0  0  0
 17 19  2  0  0  0  0
 19 20  1  0  0  0  0
 20 21  1  0  0  0  0
 22 23  2  0  0  0  0
 22 24  1  0  0  0  0
 24 25  1  0  0  0  0
 24 26  1  0  0  0  0
 26 27  1  0  0  0  0
 26 28  1  0  0  0  0
 26 29  1  0  0  0  0
M  END
$$$$

  -OEChem-01062216083D

 29 29  0     1  0  0  0  0  0999 V2000
   -3.3884   -2.6562    0.7802 H   0  0  0  0  0  0  0  0  0  0  0  0
   -3.2329   -1.6921    0.2879 C   0  0  0  0  0  0  0  0  0  0  0  0
   -3.9693   -0.9801    0.6682 H   0  0  0  0  0  0  0  0  0  0  0  0
   -3.3777   -1.8187   -0.7877 H   0  0  0  0  0  0  0  0  0  0  0  0
   -1.8310   -1.1831    0.5649 C   0  0  0  0  0  0  0  0  0  0  0  0
   -1.0766   -1.8669    1.2363 O   0  0  0  0  0  0  0  0  0  0  0  0
   -1.4361    0.0169    0.0031 N   0  0  0  0  0  0  0  0  0  0  0  0
   -2.0820    0.3985   -0.6823 H   0  0  0  0  0  0  0  0  0  0  0  0
   -0.1067    0.6650    0.0762 C   0  0  1  0  0  0  0  0  0  0  0  0
   -0.2754    1.7299   -0.1085 H   0  0  0  0  0  0  0  0  0  0  0  0
    0.6011    0.5939    1.4508 C   0  0  0  0  0  0  0  0  0  0  0  0
    0.7741   -0.4391    1.7624 H   0  0  0  0  0  0  0  0  0  0  0  0
    1.5842    1.0687    1.3873 H   0  0  0  0  0  0  0  0  0  0  0  0
   -0.1929    1.3435    2.4882 C   0  0  0  0  0  0  0  0  0  0  0  0
   -0.3052    2.7070    2.6543 N   0  0  0  0  0  0  0  0  0  0  0  0
    0.1355    3.4260    2.0854 H   0  0  0  0  0  0  0  0  0  0  0  0
   -1.1217    2.9440    3.7445 C   0  0  0  0  0  0  0  0  0  0  0  0
   -1.3960    3.9269    4.1174 H   0  0  0  0  0  0  0  0  0  0  0  0
   -1.5192    1.8099    4.2678 N   0  0  0  0  0  0  0  0  0  0  0  0
   -0.9428    0.8022    3.4993 C   0  0  0  0  0  0  0  0  0  0  0  0
   -1.0709   -0.2620    3.6749 H   0  0  0  0  0  0  0  0  0  0  0  0
    0.7827    0.1977   -1.1018 C   0  0  0  0  0  0  0  0  0  0  0  0
    0.2709    0.0142   -2.2005 O   0  0  0  0  0  0  0  0  0  0  0  0
    2.1617    0.1162   -0.9970 N   0  0  0  0  0  0  0  0  0  0  0  0
    2.5606    0.1742   -0.0653 H   0  0  0  0  0  0  0  0  0  0  0  0
    3.0178   -0.3275   -2.0911 C   0  0  0  0  0  0  0  0  0  0  0  0
    2.8997    0.3279   -2.9603 H   0  0  0  0  0  0  0  0  0  0  0  0
    4.0674   -0.3045   -1.7828 H   0  0  0  0  0  0  0  0  0  0  0  0
    2.7647   -1.3515   -2.3849 H   0  0  0  0  0  0  0  0  0  0  0  0
  1  2  1  0  0  0  0
  2  3  1  0  0  0  0
  2  4  1  0  0  0  0
  2  5  1  0  0  0  0
  5  6  2  0  0  0  0
  5  7  1  0  0  0  0
  7  8  1  0  0  0  0
  7  9  1  0  0  0  0
  9 10  1  0  0  0  0
  9 11  1  0  0  0  0
  9 22  1  0  0  0  0
 11 12  1  0  0  0  0
 11 13  1  0  0  0  0
 11 14  1  0  0  0  0
 14 15  1  0  0  0  0
 14 20  2  0  0  0  0
 15 16  1  0  0  0  0
 15 17  1  0  0  0  0
 17 18  1  0  0  0  0
 17 19  2  0  0  0  0
 19 20  1  0  0  0  0
 20 21  1  0  0  0  0
 22 23  2  0  0  0  0
 22 24  1  0  0  0  0
 24 25  1  0  0  0  0
 24 26  1  0  0  0  0
 26 27  1  0  0  0  0
 26 28  1  0  0  0  0
 26 29  1  0  0  0  0
M  END
$$$$

  -OEChem-01062216083D

 29 29  0     1  0  0  0  0  0999 V2000
   -3.3916   -2.6342    0.8142 H   0  0  0  0  0  0  0  0  0  0  0  0
   -3.2357   -1.6696    0.3230 C   0  0  0  0  0  0  0  0  0  0  0  0
   -3.9417   -0.9461    0.7378 H   0  0  0  0  0  0  0  0  0  0  0  0
   -3.4268   -1.7847   -0.7466 H   0  0  0  0  0  0  0  0  0  0  0  0
   -1.8139   -1.1911    0.5475 C   0  0  0  0  0  0  0  0  0  0  0  0
   -1.0414   -1.8979    1.1731 O   0  0  0  0  0  0  0  0  0  0  0  0
   -1.4175    0.0101   -0.0092 N   0  0  0  0  0  0  0  0  0  0  0  0
   -2.0867    0.4346   -0.6453 H   0  0  0  0  0  0  0  0  0  0  0  0
   -0.0909    0.6590    0.0782 C   0  0  1  0  0  0  0  0  0  0  0  0
   -0.2579    1.7239   -0.1090 H   0  0  0  0  0  0  0  0  0  0  0  0
    0.6019    0.5905    1.4597 C   0  0  0  0  0  0  0  0  0  0  0  0
    0.7682   -0.4412    1.7780 H   0  0  0  0  0  0  0  0  0  0  0  0
    1.5869    1.0634    1.4012 H   0  0  0  0  0  0  0  0  0  0  0  0
   -0.2046    1.3408    2.4864 C   0  0  0  0  0  0  0  0  0  0  0  0
   -0.3200    2.7044    2.6482 N   0  0  0  0  0  0  0  0  0  0  0  0
    0.1294    3.4225    2.0845 H   0  0  0  0  0  0  0  0  0  0  0  0
   -1.1510    2.9426    3.7269 C   0  0  0  0  0  0  0  0  0  0  0  0
   -1.4310    3.9259    4.0935 H   0  0  0  0  0  0  0  0  0  0  0  0
   -1.5548    1.8090    4.2468 N   0  0  0  0  0  0  0  0  0  0  0  0
   -0.9669    0.8006    3.4885 C   0  0  0  0  0  0  0  0  0  0  0  0
   -1.0966   -0.2635    3.6635 H   0  0  0  0  0  0  0  0  0  0  0  0
    0.8062    0.1925   -1.0910 C   0  0  0  0  0  0  0  0  0  0  0  0
    0.3608    0.2401   -2.2317 O   0  0  0  0  0  0  0  0  0  0  0  0
    2.1267   -0.1823   -0.9069 N   0  0  0  0  0  0  0  0  0  0  0  0
    2.4285   -0.3492    0.0485 H   0  0  0  0  0  0  0  0  0  0  0  0
    2.9746   -0.6572   -1.9942 C   0  0  0  0  0  0  0  0  0  0  0  0
    3.0514    0.1013   -2.7804 H   0  0  0  0  0  0  0  0  0  0  0  0
    3.9819   -0.8701   -1.6234 H   0  0  0  0  0  0  0  0  0  0  0  0
    2.5628   -1.5743   -2.4283 H   0  0  0  0  0  0  0  0  0  0  0  0
  1  2  1  0  0  0  0
  2  3  1  0  0  0  0
  2  4  1  0  0  0  0
  2  5  1  0  0  0  0
  5  6  2  0  0  0  0
  5  7  1  0  0  0  0
  7  8  1  0  0  0  0
  7  9  1  0  0  0  0
  9 10  1  0  0  0  0
  9 11  1  0  0  0  0
  9 22  1  0  0  0  0
 11 12  1  0  0  0  0
 11 13  1  0  0  0  0
 11 14  1  0  0  0  0
 14 15  1  0  0  0  0
 14 20  2  0  0  0  0
 15 16  1  0  0  0  0
 15 17  1  0  0  0  0
 17 18  1  0  0  0  0
 17 19  2  0  0  0  0
 19 20  1  0  0  0  0
 20 21  1  0  0  0  0
 22 23  2  0  0  0  0
 22 24  1  0  0  0  0
 24 25  1  0  0  0  0
 24 26  1  0  0  0  0
 26 27  1  0  0  0  0
 26 28  1  0  0  0  0
 26 29  1  0  0  0  0
M  END
$$$$

  -OEChem-01062216083D

 29 29  0     1  0  0  0  0  0999 V2000
   -3.3950   -2.5944    0.8868 H   0  0  0  0  0  0  0  0  0  0  0  0
   -3.2407   -1.6384    0.3787 C   0  0  0  0  0  0  0  0  0  0  0  0
   -3.9040   -0.8931    0.8243 H   0  0  0  0  0  0  0  0  0  0  0  0
   -3.4918   -1.7564   -0.6782 H   0  0  0  0  0  0  0  0  0  0  0  0
   -1.7969   -1.1965    0.5224 C   0  0  0  0  0  0  0  0  0  0  0  0
   -0.9995   -1.9325    1.0800 O   0  0  0  0  0  0  0  0  0  0  0  0
   -1.4029    0.0054   -0.0335 N   0  0  0  0  0  0  0  0  0  0  0  0
   -2.1072    0.4880   -0.5844 H   0  0  0  0  0  0  0  0  0  0  0  0
   -0.0782    0.6534    0.0676 C   0  0  1  0  0  0  0  0  0  0  0  0
   -0.2426    1.7188   -0.1197 H   0  0  0  0  0  0  0  0  0  0  0  0
    0.6022    0.5823    1.4545 C   0  0  0  0  0  0  0  0  0  0  0  0
    0.7615   -0.4495    1.7757 H   0  0  0  0  0  0  0  0  0  0  0  0
    1.5902    1.0503    1.4005 H   0  0  0  0  0  0  0  0  0  0  0  0
   -0.2151    1.3314    2.4734 C   0  0  0  0  0  0  0  0  0  0  0  0
   -0.3333    2.6946    2.6357 N   0  0  0  0  0  0  0  0  0  0  0  0
    0.1229    3.4136    2.0781 H   0  0  0  0  0  0  0  0  0  0  0  0
   -1.1778    2.9311    3.7046 C   0  0  0  0  0  0  0  0  0  0  0  0
   -1.4634    3.9135    4.0696 H   0  0  0  0  0  0  0  0  0  0  0  0
   -1.5876    1.7960    4.2172 N   0  0  0  0  0  0  0  0  0  0  0  0
   -0.9884    0.7893    3.4660 C   0  0  0  0  0  0  0  0  0  0  0  0
   -1.1190   -0.2752    3.6387 H   0  0  0  0  0  0  0  0  0  0  0  0
    0.8303    0.1877   -1.0898 C   0  0  0  0  0  0  0  0  0  0  0  0
    0.5078    0.4592   -2.2399 O   0  0  0  0  0  0  0  0  0  0  0  0
    2.0282   -0.4674   -0.8612 N   0  0  0  0  0  0  0  0  0  0  0  0
    2.1705   -0.8354    0.0755 H   0  0  0  0  0  0  0  0  0  0  0  0
    2.8658   -0.9801   -1.9388 C   0  0  0  0  0  0  0  0  0  0  0  0
    3.1573   -0.1710   -2.6170 H   0  0  0  0  0  0  0  0  0  0  0  0
    3.7760   -1.4282   -1.5292 H   0  0  0  0  0  0  0  0  0  0  0  0
    2.3289   -1.7441   -2.5110 H   0  0  0  0  0  0  0  0  0  0  0  0
  1  2  1  0  0  0  0
  2  3  1  0  0  0  0
  2  4  1  0  0  0  0
  2  5  1  0  0  0  0
  5  6  2  0  0  0  0
  5  7  1  0  0  0  0
  7  8  1  0  0  0  0
  7  9  1  0  0  0  0
  9 10  1  0  0  0  0
  9 11  1  0  0  0  0
  9 22  1  0  0  0  0
 11 12  1  0  0  0  0
 11 13  1  0  0  0  0
 11 14  1  0  0  0  0
 14 15  1  0  0  0  0
 14 20  2  0  0  0  0
 15 16  1  0  0  0  0
 15 17  1  0  0  0  0
 17 18  1  0  0  0  0
 17 19  2  0  0  0  0
 19 20  1  0  0  0  0
 20 21  1  0  0  0  0
 22 23  2  0  0  0  0
 22 24  1  0  0  0  0
 24 25  1  0  0  0  0
 24 26  1  0  0  0  0
 26 27  1  0  0  0  0
 26 28  1  0  0  0  0
 26 29  1  0  0  0  0
M  END
$$$$

  -OEChem-01062216083D

 29 29  0     1  0  0  0  0  0999 V2000
   -3.3871   -2.5572    0.9697 H   0  0  0  0  0  0  0  0  0  0  0  0
   -3.2399   -1.6185    0.4284 C   0  0  0  0  0  0  0  0  0  0  0  0
   -3.8685   -0.8493    0.8835 H   0  0  0  0  0  0  0  0  0  0  0  0
   -3.5423   -1.7601   -0.6120 H   0  0  0  0  0  0  0  0  0  0  0  0
   -1.7829   -1.2020    0.4917 C   0  0  0  0  0  0  0  0  0  0  0  0
   -0.9587   -1.9681    0.9650 O   0  0  0  0  0  0  0  0  0  0  0  0
   -1.3968    0.0027   -0.0631 N   0  0  0  0  0  0  0  0  0  0  0  0
   -2.1332    0.5437   -0.5074 H   0  0  0  0  0  0  0  0  0  0  0  0
   -0.0718    0.6446    0.0561 C   0  0  1  0  0  0  0  0  0  0  0  0
   -0.2318    1.7114   -0.1292 H   0  0  0  0  0  0  0  0  0  0  0  0
    0.5971    0.5695    1.4476 C   0  0  0  0  0  0  0  0  0  0  0  0
    0.7464   -0.4631    1.7714 H   0  0  0  0  0  0  0  0  0  0  0  0
    1.5898    1.0287    1.3976 H   0  0  0  0  0  0  0  0  0  0  0  0
   -0.2256    1.3199    2.4611 C   0  0  0  0  0  0  0  0  0  0  0  0
   -0.3375    2.6838    2.6208 N   0  0  0  0  0  0  0  0  0  0  0  0
    0.1317    3.3991    2.0691 H   0  0  0  0  0  0  0  0  0  0  0  0
   -1.1873    2.9264    3.6840 C   0  0  0  0  0  0  0  0  0  0  0  0
   -1.4678    3.9111    4.0470 H   0  0  0  0  0  0  0  0  0  0  0  0
   -1.6092    1.7941    4.1934 N   0  0  0  0  0  0  0  0  0  0  0  0
   -1.0097    0.7835    3.4479 C   0  0  0  0  0  0  0  0  0  0  0  0
   -1.1482   -0.2801    3.6199 H   0  0  0  0  0  0  0  0  0  0  0  0
    0.8481    0.1805   -1.0892 C   0  0  0  0  0  0  0  0  0  0  0  0
    0.7070    0.6674   -2.2040 O   0  0  0  0  0  0  0  0  0  0  0  0
    1.8624   -0.7326   -0.8634 N   0  0  0  0  0  0  0  0  0  0  0  0
    1.7933   -1.2644    0.0017 H   0  0  0  0  0  0  0  0  0  0  0  0
    2.6894   -1.2703   -1.9365 C   0  0  0  0  0  0  0  0  0  0  0  0
    3.1943   -0.4613   -2.4751 H   0  0  0  0  0  0  0  0  0  0  0  0
    3.4529   -1.9378   -1.5258 H   0  0  0  0  0  0  0  0  0  0  0  0
    2.0763   -1.8366   -2.6454 H   0  0  0  0  0  0  0  0  0  0  0  0
  1  2  1  0  0  0  0
  2  3  1  0  0  0  0
  2  4  1  0  0  0  0
  2  5  1  0  0  0  0
  5  6  2  0  0  0  0
  5  7  1  0  0  0  0
  7  8  1  0  0  0  0
  7  9  1  0  0  0  0
  9 10  1  0  0  0  0
  9 11  1  0  0  0  0
  9 22  1  0  0  0  0
 11 12  1  0  0  0  0
 11 13  1  0  0  0  0
 11 14  1  0  0  0  0
 14 15  1  0  0  0  0
 14 20  2  0  0  0  0
 15 16  1  0  0  0  0
 15 17  1  0  0  0  0
 17 18  1  0  0  0  0
 17 19  2  0  0  0  0
 19 20  1  0  0  0  0
 20 21  1  0  0  0  0
 22 23  2  0  0  0  0
 22 24  1  0  0  0  0
 24 25  1  0  0  0  0
 24 26  1  0  0  0  0
 26 27  1  0  0  0  0
 26 28  1  0  0  0  0
 26 29  1  0  0  0  0
M  END
$$$$

  -OEChem-01062216083D

 29 29  0     1  0  0  0  0  0999 V2000
   -3.3631   -2.5457    1.0068 H   0  0  0  0  0  0  0  0  0  0  0  0
   -3.2399   -1.5786    0.5112 C   0  0  0  0  0  0  0  0  0  0  0  0
   -3.7987   -0.8243    1.0709 H   0  0  0  0  0  0  0  0  0  0  0  0
   -3.6448   -1.6469   -0.5014 H   0  0  0  0  0  0  0  0  0  0  0  0
   -1.7718   -1.2022    0.4587 C   0  0  0  0  0  0  0  0  0  0  0  0
   -0.9270   -1.9969    0.8419 O   0  0  0  0  0  0  0  0  0  0  0  0
   -1.3955    0.0009   -0.1052 N   0  0  0  0  0  0  0  0  0  0  0  0
   -2.1550    0.5875   -0.4387 H   0  0  0  0  0  0  0  0  0  0  0  0
   -0.0699    0.6383    0.0289 C   0  0  1  0  0  0  0  0  0  0  0  0
   -0.2241    1.7060   -0.1576 H   0  0  0  0  0  0  0  0  0  0  0  0
    0.5893    0.5546    1.4239 C   0  0  0  0  0  0  0  0  0  0  0  0
    0.7345   -0.4798    1.7442 H   0  0  0  0  0  0  0  0  0  0  0  0
    1.5838    1.0109    1.3814 H   0  0  0  0  0  0  0  0  0  0  0  0
   -0.2392    1.3021    2.4348 C   0  0  0  0  0  0  0  0  0  0  0  0
   -0.3492    2.6654    2.5997 N   0  0  0  0  0  0  0  0  0  0  0  0
    0.1291    3.3816    2.0566 H   0  0  0  0  0  0  0  0  0  0  0  0
   -1.2072    2.9055    3.6568 C   0  0  0  0  0  0  0  0  0  0  0  0
   -1.4883    3.8893    4.0219 H   0  0  0  0  0  0  0  0  0  0  0  0
   -1.6365    1.7716    4.1568 N   0  0  0  0  0  0  0  0  0  0  0  0
   -1.0309    0.7632    3.4140 C   0  0  0  0  0  0  0  0  0  0  0  0
   -1.1716   -0.3007    3.5815 H   0  0  0  0  0  0  0  0  0  0  0  0
    0.8622    0.1656   -1.1003 C   0  0  0  0  0  0  0  0  0  0  0  0
    0.9507    0.8204   -2.1311 O   0  0  0  0  0  0  0  0  0  0  0  0
    1.6462   -0.9590   -0.9227 N   0  0  0  0  0  0  0  0  0  0  0  0
    1.3580   -1.5740   -0.1614 H   0  0  0  0  0  0  0  0  0  0  0  0
    2.4762   -1.5153   -1.9834 C   0  0  0  0  0  0  0  0  0  0  0  0
    3.1915   -0.7682   -2.3430 H   0  0  0  0  0  0  0  0  0  0  0  0
    3.0385   -2.3766   -1.6100 H   0  0  0  0  0  0  0  0  0  0  0  0
    1.8553   -1.8418   -2.8241 H   0  0  0  0  0  0  0  0  0  0  0  0
  1  2  1  0  0  0  0
  2  3  1  0  0  0  0
  2  4  1  0  0  0  0
  2  5  1  0  0  0  0
  5  6  2  0  0  0  0
  5  7  1  0  0  0  0
  7  8  1  0  0  0  0
  7  9  1  0  0  0  0
  9 10  1  0  0  0  0
  9 11  1  0  0  0  0
  9 22  1  0  0  0  0
 11 12  1  0  0  0  0
 11 13  1  0  0  0  0
 11 14  1  0  0  0  0
 14 15  1  0  0  0  0
 14 20  2  0  0  0  0
 15 16  1  0  0  0  0
 15 17  1  0  0  0  0
 17 18  1  0  0  0  0
 17 19  2  0  0  0  0
 19 20  1  0  0  0  0
 20 21  1  0  0  0  0
 22 23  2  0  0  0  0
 22 24  1  0  0  0  0
 24 25  1  0  0  0  0
 24 26  1  0  0  0  0
 26 27  1  0  0  0  0
 26 28  1  0  0  0  0
 26 29  1  0  0  0  0
M  END
$$$$

  -OEChem-01062216083D

 29 29  0     1  0  0  0  0  0999 V2000
   -3.3687   -2.5068    1.0777 H   0  0  0  0  0  0  0  0  0  0  0  0
   -3.2505   -1.5425    0.5758 C   0  0  0  0  0  0  0  0  0  0  0  0
   -3.7619   -0.7766    1.1642 H   0  0  0  0  0  0  0  0  0  0  0  0
   -3.7098   -1.6012   -0.4138 H   0  0  0  0  0  0  0  0  0  0  0  0
   -1.7796   -1.1981    0.4449 C   0  0  0  0  0  0  0  0  0  0  0  0
   -0.9318   -2.0176    0.7653 O   0  0  0  0  0  0  0  0  0  0  0  0
   -1.4046    0.0000   -0.1304 N   0  0  0  0  0  0  0  0  0  0  0  0
   -2.1720    0.6097   -0.3982 H   0  0  0  0  0  0  0  0  0  0  0  0
   -0.0761    0.6343    0.0053 C   0  0  1  0  0  0  0  0  0  0  0  0
   -0.2248    1.7029   -0.1805 H   0  0  0  0  0  0  0  0  0  0  0  0
    0.5825    0.5379    1.3985 C   0  0  0  0  0  0  0  0  0  0  0  0
    0.7240   -0.5004    1.7089 H   0  0  0  0  0  0  0  0  0  0  0  0
    1.5786    0.9907    1.3594 H   0  0  0  0  0  0  0  0  0  0  0  0
   -0.2458    1.2805    2.4131 C   0  0  0  0  0  0  0  0  0  0  0  0
   -0.3509    2.6431    2.5851 N   0  0  0  0  0  0  0  0  0  0  0  0
    0.1363    3.3598    2.0506 H   0  0  0  0  0  0  0  0  0  0  0  0
   -1.2138    2.8809    3.6386 C   0  0  0  0  0  0  0  0  0  0  0  0
   -1.4929    3.8638    4.0076 H   0  0  0  0  0  0  0  0  0  0  0  0
   -1.6513    1.7459    4.1291 N   0  0  0  0  0  0  0  0  0  0  0  0
   -1.0442    0.7394    3.3853 C   0  0  0  0  0  0  0  0  0  0  0  0
   -1.1902   -0.3248    3.5457 H   0  0  0  0  0  0  0  0  0  0  0  0
    0.8658    0.1547   -1.1108 C   0  0  0  0  0  0  0  0  0  0  0  0
    1.1823    0.9130   -2.0183 O   0  0  0  0  0  0  0  0  0  0  0  0
    1.4011   -1.1172   -1.0425 N   0  0  0  0  0  0  0  0  0  0  0  0
    0.9557   -1.7458   -0.3701 H   0  0  0  0  0  0  0  0  0  0  0  0
    2.2297   -1.6897   -2.0946 C   0  0  0  0  0  0  0  0  0  0  0  0
    3.1077   -1.0610   -2.2765 H   0  0  0  0  0  0  0  0  0  0  0  0
    2.5752   -2.6858   -1.8017 H   0  0  0  0  0  0  0  0  0  0  0  0
    1.6594   -1.7779   -3.0250 H   0  0  0  0  0  0  0  0  0  0  0  0
  1  2  1  0  0  0  0
  2  3  1  0  0  0  0
  2  4  1  0  0  0  0
  2  5  1  0  0  0  0
  5  6  2  0  0  0  0
  5  7  1  0  0  0  0
  7  8  1  0  0  0  0
  7  9  1  0  0  0  0
  9 10  1  0  0  0  0
  9 11  1  0  0  0  0
  9 22  1  0  0  0  0
 11 12  1  0  0  0  0
 11 13  1  0  0  0  0
 11 14  1  0  0  0  0
 14 15  1  0  0  0  0
 14 20  2  0  0  0  0
 15 16  1  0  0  0  0
 15 17  1  0  0  0  0
 17 18  1  0  0  0  0
 17 19  2  0  0  0  0
 19 20  1  0  0  0  0
 20 21  1  0  0  0  0
 22 23  2  0  0  0  0
 22 24  1  0  0  0  0
 24 25  1  0  0  0  0
 24 26  1  0  0  0  0
 26 27  1  0  0  0  0
 26 28  1  0  0  0  0
 26 29  1  0  0  0  0
M  END
$$$$

  -OEChem-01062216083D

 29 29  0     1  0  0  0  0  0999 V2000
   -3.4112   -2.4731    1.1299 H   0  0  0  0  0  0  0  0  0  0  0  0
   -3.2889   -1.5102    0.6260 C   0  0  0  0  0  0  0  0  0  0  0  0
   -3.7647   -0.7352    1.2321 H   0  0  0  0  0  0  0  0  0  0  0  0
   -3.7815   -1.5566   -0.3483 H   0  0  0  0  0  0  0  0  0  0  0  0
   -1.8158   -1.1963    0.4489 C   0  0  0  0  0  0  0  0  0  0  0  0
   -0.9759   -2.0346    0.7386 O   0  0  0  0  0  0  0  0  0  0  0  0
   -1.4341   -0.0072   -0.1405 N   0  0  0  0  0  0  0  0  0  0  0  0
   -2.2021    0.6133   -0.3804 H   0  0  0  0  0  0  0  0  0  0  0  0
   -0.1007    0.6245   -0.0210 C   0  0  1  0  0  0  0  0  0  0  0  0
   -0.2470    1.6931   -0.2084 H   0  0  0  0  0  0  0  0  0  0  0  0
    0.5676    0.5209    1.3656 C   0  0  0  0  0  0  0  0  0  0  0  0
    0.7065   -0.5203    1.6680 H   0  0  0  0  0  0  0  0  0  0  0  0
    1.5660    0.9688    1.3205 H   0  0  0  0  0  0  0  0  0  0  0  0
   -0.2492    1.2630    2.3903 C   0  0  0  0  0  0  0  0  0  0  0  0
   -0.3479    2.6254    2.5689 N   0  0  0  0  0  0  0  0  0  0  0  0
    0.1366    3.3426    2.0324 H   0  0  0  0  0  0  0  0  0  0  0  0
   -1.1979    2.8621    3.6333 C   0  0  0  0  0  0  0  0  0  0  0  0
   -1.4705    3.8442    4.0094 H   0  0  0  0  0  0  0  0  0  0  0  0
   -1.6328    1.7265    4.1248 N   0  0  0  0  0  0  0  0  0  0  0  0
   -1.0359    0.7208    3.3713 C   0  0  0  0  0  0  0  0  0  0  0  0
   -1.1804   -0.3436    3.5318 H   0  0  0  0  0  0  0  0  0  0  0  0
    0.8464    0.1390   -1.1306 C   0  0  0  0  0  0  0  0  0  0  0  0
    1.3708    0.9443   -1.8887 O   0  0  0  0  0  0  0  0  0  0  0  0
    1.1408   -1.2068   -1.2290 N   0  0  0  0  0  0  0  0  0  0  0  0
    0.6191   -1.8299   -0.6070 H   0  0  0  0  0  0  0  0  0  0  0  0
    1.9972   -1.7770   -2.2591 C   0  0  0  0  0  0  0  0  0  0  0  0
    2.9924   -1.3214   -2.2255 H   0  0  0  0  0  0  0  0  0  0  0  0
    2.1058   -2.8547   -2.1038 H   0  0  0  0  0  0  0  0  0  0  0  0
    1.5650   -1.6098   -3.2512 H   0  0  0  0  0  0  0  0  0  0  0  0
  1  2  1  0  0  0  0
  2  3  1  0  0  0  0
  2  4  1  0  0  0  0
  2  5  1  0  0  0  0
  5  6  2  0  0  0  0
  5  7  1  0  0  0  0
  7  8  1  0  0  0  0
  7  9  1  0  0  0  0
  9 10  1  0  0  0  0
  9 11  1  0  0  0  0
  9 22  1  0  0  0  0
 11 12  1  0  0  0  0
 11 13  1  0  0  0  0
 11 14  1  0  0  0  0
 14 15  1  0  0  0  0
 14 20  2  0  0  0  0
 15 16  1  0  0  0  0
 15 17  1  0  0  0  0
 17 18  1  0  0  0  0
 17 19  2  0  0  0  0
 19 20  1  0  0  0  0
 20 21  1  0  0  0  0
 22 23  2  0  0  0  0
 22 24  1  0  0  0  0
 24 25  1  0  0  0  0
 24 26  1  0  0  0  0
 26 27  1  0  0  0  0
 26 28  1  0  0  0  0
 26 29  1  0  0  0  0
M  END
$$$$

  -OEChem-01062216083D

 29 29  0     1  0  0  0  0  0999 V2000
   -3.4458   -2.4587    1.1815 H   0  0  0  0  0  0  0  0  0  0  0  0
   -3.3285   -1.4821    0.7034 C   0  0  0  0  0  0  0  0  0  0  0  0
   -3.7493   -0.7176    1.3615 H   0  0  0  0  0  0  0  0  0  0  0  0
   -3.8773   -1.4835   -0.2413 H   0  0  0  0  0  0  0  0  0  0  0  0
   -1.8604   -1.1968    0.4515 C   0  0  0  0  0  0  0  0  0  0  0  0
   -1.0237   -2.0553    0.6838 O   0  0  0  0  0  0  0  0  0  0  0  0
   -1.4838   -0.0110   -0.1473 N   0  0  0  0  0  0  0  0  0  0  0  0
   -2.2538    0.6244   -0.3371 H   0  0  0  0  0  0  0  0  0  0  0  0
   -0.1434    0.6135   -0.0545 C   0  0  1  0  0  0  0  0  0  0  0  0
   -0.2886    1.6830   -0.2372 H   0  0  0  0  0  0  0  0  0  0  0  0
    0.5439    0.4985    1.3212 C   0  0  0  0  0  0  0  0  0  0  0  0
    0.6768   -0.5459    1.6152 H   0  0  0  0  0  0  0  0  0  0  0  0
    1.5455    0.9379    1.2651 H   0  0  0  0  0  0  0  0  0  0  0  0
   -0.2534    1.2427    2.3596 C   0  0  0  0  0  0  0  0  0  0  0  0
   -0.3383    2.6051    2.5430 N   0  0  0  0  0  0  0  0  0  0  0  0
    0.1452    3.3194    2.0017 H   0  0  0  0  0  0  0  0  0  0  0  0
   -1.1711    2.8456    3.6199 C   0  0  0  0  0  0  0  0  0  0  0  0
   -1.4302    3.8289    4.0020 H   0  0  0  0  0  0  0  0  0  0  0  0
   -1.6086    1.7123    4.1145 N   0  0  0  0  0  0  0  0  0  0  0  0
   -1.0299    0.7041    3.3507 C   0  0  0  0  0  0  0  0  0  0  0  0
   -1.1803   -0.3595    3.5112 H   0  0  0  0  0  0  0  0  0  0  0  0
    0.7975    0.1344   -1.1736 C   0  0  0  0  0  0  0  0  0  0  0  0
    1.5207    0.9378   -1.7480 O   0  0  0  0  0  0  0  0  0  0  0  0
    0.8637   -1.2091   -1.4878 N   0  0  0  0  0  0  0  0  0  0  0  0
    0.3116   -1.8369   -0.8980 H   0  0  0  0  0  0  0  0  0  0  0  0
    1.7982   -1.7717   -2.4524 C   0  0  0  0  0  0  0  0  0  0  0  0
    2.8304   -1.5940   -2.1333 H   0  0  0  0  0  0  0  0  0  0  0  0
    1.6429   -2.8512   -2.5418 H   0  0  0  0  0  0  0  0  0  0  0  0
    1.6503   -1.3186   -3.4382 H   0  0  0  0  0  0  0  0  0  0  0  0
  1  2  1  0  0  0  0
  2  3  1  0  0  0  0
  2  4  1  0  0  0  0
  2  5  1  0  0  0  0
  5  6  2  0  0  0  0
  5  7  1  0  0  0  0
  7  8  1  0  0  0  0
  7  9  1  0  0  0  0
  9 10  1  0  0  0  0
  9 11  1  0  0  0  0
  9 22  1  0  0  0  0
 11 12  1  0  0  0  0
 11 13  1  0  0  0  0
 11 14  1  0  0  0  0
 14 15  1  0  0  0  0
 14 20  2  0  0  0  0
 15 16  1  0  0  0  0
 15 17  1  0  0  0  0
 17 18  1  0  0  0  0
 17 19  2  0  0  0  0
 19 20  1  0  0  0  0
 20 21  1  0  0  0  0
 22 23  2  0  0  0  0
 22 24  1  0  0  0  0
 24 25  1  0  0  0  0
 24 26  1  0  0  0  0
 26 27  1  0  0  0  0
 26 28  1  0  0  0  0
 26 29  1  0  0  0  0
M  END
$$$$

  -OEChem-01062216083D

 29 29  0     1  0  0  0  0  0999 V2000
   -3.4495   -2.4433    1.2309 H   0  0  0  0  0  0  0  0  0  0  0  0
   -3.3381   -1.4644    0.7562 C   0  0  0  0  0  0  0  0  0  0  0  0
   -3.7243   -0.7001    1.4355 H   0  0  0  0  0  0  0  0  0  0  0  0
   -3.9220   -1.4516   -0.1673 H   0  0  0  0  0  0  0  0  0  0  0  0
   -1.8769   -1.1945    0.4523 C   0  0  0  0  0  0  0  0  0  0  0  0
   -1.0440   -2.0682    0.6311 O   0  0  0  0  0  0  0  0  0  0  0  0
   -1.5053   -0.0105   -0.1519 N   0  0  0  0  0  0  0  0  0  0  0  0
   -2.2753    0.6340   -0.3074 H   0  0  0  0  0  0  0  0  0  0  0  0
   -0.1614    0.6108   -0.0714 C   0  0  1  0  0  0  0  0  0  0  0  0
   -0.3044    1.6806   -0.2528 H   0  0  0  0  0  0  0  0  0  0  0  0
    0.5285    0.4881    1.3032 C   0  0  0  0  0  0  0  0  0  0  0  0
    0.6556   -0.5587    1.5922 H   0  0  0  0  0  0  0  0  0  0  0  0
    1.5327    0.9219    1.2478 H   0  0  0  0  0  0  0  0  0  0  0  0
   -0.2619    1.2329    2.3469 C   0  0  0  0  0  0  0  0  0  0  0  0
   -0.3385    2.5951    2.5350 N   0  0  0  0  0  0  0  0  0  0  0  0
    0.1519    3.3078    1.9979 H   0  0  0  0  0  0  0  0  0  0  0  0
   -1.1677    2.8373    3.6144 C   0  0  0  0  0  0  0  0  0  0  0  0
   -1.4203    3.8211    4.0000 H   0  0  0  0  0  0  0  0  0  0  0  0
   -1.6103    1.7048    4.1064 N   0  0  0  0  0  0  0  0  0  0  0  0
   -1.0372    0.6957    3.3396 C   0  0  0  0  0  0  0  0  0  0  0  0
   -1.1914   -0.3676    3.4991 H   0  0  0  0  0  0  0  0  0  0  0  0
    0.7813    0.1363   -1.1933 C   0  0  0  0  0  0  0  0  0  0  0  0
    1.6562    0.8869   -1.6059 O   0  0  0  0  0  0  0  0  0  0  0  0
    0.6445   -1.1300   -1.7287 N   0  0  0  0  0  0  0  0  0  0  0  0
    0.0315   -1.7601   -1.2075 H   0  0  0  0  0  0  0  0  0  0  0  0
    1.5771   -1.6958   -2.6939 C   0  0  0  0  0  0  0  0  0  0  0  0
    2.5739   -1.7927   -2.2516 H   0  0  0  0  0  0  0  0  0  0  0  0
    1.2377   -2.6873   -3.0086 H   0  0  0  0  0  0  0  0  0  0  0  0
    1.6451   -1.0580   -3.5815 H   0  0  0  0  0  0  0  0  0  0  0  0
  1  2  1  0  0  0  0
  2  3  1  0  0  0  0
  2  4  1  0  0  0  0
  2  5  1  0  0  0  0
  5  6  2  0  0  0  0
  5  7  1  0  0  0  0
  7  8  1  0  0  0  0
  7  9  1  0  0  0  0
  9 10  1  0  0  0  0
  9 11  1  0  0  0  0
  9 22  1  0  0  0  0
 11 12  1  0  0  0  0
 11 13  1  0  0  0  0
 11 14  1  0  0  0  0
 14 15  1  0  0  0  0
 14 20  2  0  0  0  0
 15 16  1  0  0  0  0
 15 17  1  0  0  0  0
 17 18  1  0  0  0  0
 17 19  2  0  0  0  0
 19 20  1  0  0  0  0
 20 21  1  0  0  0  0
 22 23  2  0  0  0  0
 22 24  1  0  0  0  0
 24 25  1  0  0  0  0
 24 26  1  0  0  0  0
 26 27  1  0  0  0  0
 26 28  1  0  0  0  0
 26 29  1  0  0  0  0
M  END
$$$$

  -OEChem-01062216083D

 29 29  0     1  0  0  0  0  0999 V2000
   -3.4385   -2.4131    1.3065 H   0  0  0  0  0  0  0  0  0  0  0  0
   -3.3350   -1.4525    0.7940 C   0  0  0  0  0  0  0  0  0  0  0  0
   -3.7103   -0.6635    1.4509 H   0  0  0  0  0  0  0  0  0  0  0  0
   -3.9337   -1.4732   -0.1196 H   0  0  0  0  0  0  0  0  0  0  0  0
   -1.8792   -1.1954    0.4555 C   0  0  0  0  0  0  0  0  0  0  0  0
   -1.0513   -2.0785    0.6026 O   0  0  0  0  0  0  0  0  0  0  0  0
   -1.5118   -0.0115   -0.1507 N   0  0  0  0  0  0  0  0  0  0  0  0
   -2.2812    0.6407   -0.2749 H   0  0  0  0  0  0  0  0  0  0  0  0
   -0.1651    0.6064   -0.0767 C   0  0  1  0  0  0  0  0  0  0  0  0
   -0.3056    1.6765   -0.2571 H   0  0  0  0  0  0  0  0  0  0  0  0
    0.5200    0.4780    1.3011 C   0  0  0  0  0  0  0  0  0  0  0  0
    0.6409   -0.5700    1.5882 H   0  0  0  0  0  0  0  0  0  0  0  0
    1.5264    0.9072    1.2524 H   0  0  0  0  0  0  0  0  0  0  0  0
   -0.2693    1.2251    2.3437 C   0  0  0  0  0  0  0  0  0  0  0  0
   -0.3391    2.5873    2.5341 N   0  0  0  0  0  0  0  0  0  0  0  0
    0.1631    3.2980    2.0051 H   0  0  0  0  0  0  0  0  0  0  0  0
   -1.1707    2.8314    3.6111 C   0  0  0  0  0  0  0  0  0  0  0  0
   -1.4178    3.8156    3.9987 H   0  0  0  0  0  0  0  0  0  0  0  0
   -1.6227    1.7004    4.0983 N   0  0  0  0  0  0  0  0  0  0  0  0
   -1.0522    0.6900    3.3314 C   0  0  0  0  0  0  0  0  0  0  0  0
   -1.2140   -0.3728    3.4865 H   0  0  0  0  0  0  0  0  0  0  0  0
    0.7786    0.1364   -1.2018 C   0  0  0  0  0  0  0  0  0  0  0  0
    1.7791    0.7925   -1.4625 O   0  0  0  0  0  0  0  0  0  0  0  0
    0.4734   -0.9811   -1.9551 N   0  0  0  0  0  0  0  0  0  0  0  0
   -0.2341   -1.5921   -1.5476 H   0  0  0  0  0  0  0  0  0  0  0  0
    1.3769   -1.5335   -2.9557 C   0  0  0  0  0  0  0  0  0  0  0  0
    2.3128   -1.8579   -2.4893 H   0  0  0  0  0  0  0  0  0  0  0  0
    0.9149   -2.3958   -3.4460 H   0  0  0  0  0  0  0  0  0  0  0  0
    1.6052   -0.7843   -3.7211 H   0  0  0  0  0  0  0  0  0  0  0  0
  1  2  1  0  0  0  0
  2  3  1  0  0  0  0
  2  4  1  0  0  0  0
  2  5  1  0  0  0  0
  5  6  2  0  0  0  0
  5  7  1  0  0  0  0
  7  8  1  0  0  0  0
  7  9  1  0  0  0  0
  9 10  1  0  0  0  0
  9 11  1  0  0  0  0
  9 22  1  0  0  0  0
 11 12  1  0  0  0  0
 11 13  1  0  0  0  0
 11 14  1  0  0  0  0
 14 15  1  0  0  0  0
 14 20  2  0  0  0  0
 15 16  1  0  0  0  0
 15 17  1  0  0  0  0
 17 18  1  0  0  0  0
 17 19  2  0  0  0  0
 19 20  1  0  0  0  0
 20 21  1  0  0  0  0
 22 23  2  0  0  0  0
 22 24  1  0  0  0  0
 24 25  1  0  0  0  0
 24 26  1  0  0  0  0
 26 27  1  0  0  0  0
 26 28  1  0  0  0  0
 26 29  1  0  0  0  0
M  END
$$$$

  -OEChem-01062216083D

 29 29  0     1  0  0  0  0  0999 V2000
   -3.4292   -2.4418    1.2878 H   0  0  0  0  0  0  0  0  0  0  0  0
   -3.3258   -1.4669    0.8030 C   0  0  0  0  0  0  0  0  0  0  0  0
   -3.6928   -0.6964    1.4858 H   0  0  0  0  0  0  0  0  0  0  0  0
   -3.9315   -1.4590   -0.1063 H   0  0  0  0  0  0  0  0  0  0  0  0
   -1.8711   -1.2061    0.4622 C   0  0  0  0  0  0  0  0  0  0  0  0
   -1.0426   -2.0853    0.6208 O   0  0  0  0  0  0  0  0  0  0  0  0
   -1.5086   -0.0178   -0.1403 N   0  0  0  0  0  0  0  0  0  0  0  0
   -2.2790    0.6362   -0.2480 H   0  0  0  0  0  0  0  0  0  0  0  0
   -0.1607    0.5999   -0.0723 C   0  0  1  0  0  0  0  0  0  0  0  0
   -0.3023    1.6699   -0.2510 H   0  0  0  0  0  0  0  0  0  0  0  0
    0.5225    0.4737    1.3085 C   0  0  0  0  0  0  0  0  0  0  0  0
    0.6422   -0.5738    1.5979 H   0  0  0  0  0  0  0  0  0  0  0  0
    1.5297    0.9012    1.2641 H   0  0  0  0  0  0  0  0  0  0  0  0
   -0.2684    1.2258    2.3471 C   0  0  0  0  0  0  0  0  0  0  0  0
   -0.3362    2.5889    2.5330 N   0  0  0  0  0  0  0  0  0  0  0  0
    0.1744    3.2960    2.0073 H   0  0  0  0  0  0  0  0  0  0  0  0
   -1.1731    2.8383    3.6048 C   0  0  0  0  0  0  0  0  0  0  0  0
   -1.4203    3.8241    3.9887 H   0  0  0  0  0  0  0  0  0  0  0  0
   -1.6307    1.7099    4.0925 N   0  0  0  0  0  0  0  0  0  0  0  0
   -1.0574    0.6956    3.3327 C   0  0  0  0  0  0  0  0  0  0  0  0
   -1.2227   -0.3662    3.4903 H   0  0  0  0  0  0  0  0  0  0  0  0
    0.7776    0.1381   -1.2075 C   0  0  0  0  0  0  0  0  0  0  0  0
    1.8819    0.6535   -1.3286 O   0  0  0  0  0  0  0  0  0  0  0  0
    0.3428   -0.7659   -2.1586 N   0  0  0  0  0  0  0  0  0  0  0  0
   -0.4864   -1.2961   -1.9006 H   0  0  0  0  0  0  0  0  0  0  0  0
    1.2128   -1.2991   -3.1993 C   0  0  0  0  0  0  0  0  0  0  0  0
    2.0438   -1.8569   -2.7549 H   0  0  0  0  0  0  0  0  0  0  0  0
    0.6506   -1.9734   -3.8523 H   0  0  0  0  0  0  0  0  0  0  0  0
    1.6204   -0.4880   -3.8120 H   0  0  0  0  0  0  0  0  0  0  0  0
  1  2  1  0  0  0  0
  2  3  1  0  0  0  0
  2  4  1  0  0  0  0
  2  5  1  0  0  0  0
  5  6  2  0  0  0  0
  5  7  1  0  0  0  0
  7  8  1  0  0  0  0
  7  9  1  0  0  0  0
  9 10  1  0  0  0  0
  9 11  1  0  0  0  0
  9 22  1  0  0  0  0
 11 12  1  0  0  0  0
 11 13  1  0  0  0  0
 11 14  1  0  0  0  0
 14 15  1  0  0  0  0
 14 20  2  0  0  0  0
 15 16  1  0  0  0  0
 15 17  1  0  0  0  0
 17 18  1  0  0  0  0
 17 19  2  0  0  0  0
 19 20  1  0  0  0  0
 20 21  1  0  0  0  0
 22 23  2  0  0  0  0
 22 24  1  0  0  0  0
 24 25  1  0  0  0  0
 24 26  1  0  0  0  0
 26 27  1  0  0  0  0
 26 28  1  0  0  0  0
 26 29  1  0  0  0  0
M  END
$$$$

  -OEChem-01062216083D

 29 29  0     1  0  0  0  0  0999 V2000
   -3.4139   -2.4805    1.2312 H   0  0  0  0  0  0  0  0  0  0  0  0
   -3.3055   -1.4881    0.7844 C   0  0  0  0  0  0  0  0  0  0  0  0
   -3.6757   -0.7430    1.4933 H   0  0  0  0  0  0  0  0  0  0  0  0
   -3.9052   -1.4450   -0.1278 H   0  0  0  0  0  0  0  0  0  0  0  0
   -1.8483   -1.2174    0.4629 C   0  0  0  0  0  0  0  0  0  0  0  0
   -1.0162   -2.0868    0.6508 O   0  0  0  0  0  0  0  0  0  0  0  0
   -1.4907   -0.0232   -0.1330 N   0  0  0  0  0  0  0  0  0  0  0  0
   -2.2641    0.6288   -0.2317 H   0  0  0  0  0  0  0  0  0  0  0  0
   -0.1443    0.5981   -0.0638 C   0  0  1  0  0  0  0  0  0  0  0  0
   -0.2880    1.6677   -0.2421 H   0  0  0  0  0  0  0  0  0  0  0  0
    0.5333    0.4762    1.3219 C   0  0  0  0  0  0  0  0  0  0  0  0
    0.6572   -0.5698    1.6149 H   0  0  0  0  0  0  0  0  0  0  0  0
    1.5385    0.9089    1.2848 H   0  0  0  0  0  0  0  0  0  0  0  0
   -0.2663    1.2296    2.3528 C   0  0  0  0  0  0  0  0  0  0  0  0
   -0.3385    2.5928    2.5337 N   0  0  0  0  0  0  0  0  0  0  0  0
    0.1745    3.2992    2.0096 H   0  0  0  0  0  0  0  0  0  0  0  0
   -1.1822    2.8436    3.5998 C   0  0  0  0  0  0  0  0  0  0  0  0
   -1.4335    3.8301    3.9786 H   0  0  0  0  0  0  0  0  0  0  0  0
   -1.6409    1.7159    4.0880 N   0  0  0  0  0  0  0  0  0  0  0  0
   -1.0604    0.7003    3.3348 C   0  0  0  0  0  0  0  0  0  0  0  0
   -1.2235   -0.3615    3.4946 H   0  0  0  0  0  0  0  0  0  0  0  0
    0.7853    0.1393   -1.2099 C   0  0  0  0  0  0  0  0  0  0  0  0
    1.9666    0.4623   -1.2137 O   0  0  0  0  0  0  0  0  0  0  0  0
    0.2619   -0.5022   -2.3176 N   0  0  0  0  0  0  0  0  0  0  0  0
   -0.6742   -0.8796   -2.2005 H   0  0  0  0  0  0  0  0  0  0  0  0
    1.0902   -1.0156   -3.4017 C   0  0  0  0  0  0  0  0  0  0  0  0
    1.7816   -1.7776   -3.0269 H   0  0  0  0  0  0  0  0  0  0  0  0
    0.4622   -1.4666   -4.1758 H   0  0  0  0  0  0  0  0  0  0  0  0
    1.6705   -0.2068   -3.8581 H   0  0  0  0  0  0  0  0  0  0  0  0
  1  2  1  0  0  0  0
  2  3  1  0  0  0  0
  2  4  1  0  0  0  0
  2  5  1  0  0  0  0
  5  6  2  0  0  0  0
  5  7  1  0  0  0  0
  7  8  1  0  0  0  0
  7  9  1  0  0  0  0
  9 10  1  0  0  0  0
  9 11  1  0  0  0  0
  9 22  1  0  0  0  0
 11 12  1  0  0  0  0
 11 13  1  0  0  0  0
 11 14  1  0  0  0  0
 14 15  1  0  0  0  0
 14 20  2  0  0  0  0
 15 16  1  0  0  0  0
 15 17  1  0  0  0  0
 17 18  1  0  0  0  0
 17 19  2  0  0  0  0
 19 20  1  0  0  0  0
 20 21  1  0  0  0  0
 22 23  2  0  0  0  0
 22 24  1  0  0  0  0
 24 25  1  0  0  0  0
 24 26  1  0  0  0  0
 26 27  1  0  0  0  0
 26 28  1  0  0  0  0
 26 29  1  0  0  0  0
M  END
$$$$

  -OEChem-01062216083D

 29 29  0     1  0  0  0  0  0999 V2000
   -3.3973   -2.4862    1.2338 H   0  0  0  0  0  0  0  0  0  0  0  0
   -3.2921   -1.5063    0.7590 C   0  0  0  0  0  0  0  0  0  0  0  0
   -3.6855   -0.7451    1.4375 H   0  0  0  0  0  0  0  0  0  0  0  0
   -3.8739   -1.4988   -0.1657 H   0  0  0  0  0  0  0  0  0  0  0  0
   -1.8316   -1.2266    0.4587 C   0  0  0  0  0  0  0  0  0  0  0  0
   -0.9985   -2.0889    0.6723 O   0  0  0  0  0  0  0  0  0  0  0  0
   -1.4744   -0.0289   -0.1318 N   0  0  0  0  0  0  0  0  0  0  0  0
   -2.2494    0.6213   -0.2271 H   0  0  0  0  0  0  0  0  0  0  0  0
   -0.1293    0.5941   -0.0587 C   0  0  1  0  0  0  0  0  0  0  0  0
   -0.2728    1.6637   -0.2374 H   0  0  0  0  0  0  0  0  0  0  0  0
    0.5425    0.4773    1.3311 C   0  0  0  0  0  0  0  0  0  0  0  0
    0.6671   -0.5676    1.6272 H   0  0  0  0  0  0  0  0  0  0  0  0
    1.5474    0.9110    1.2978 H   0  0  0  0  0  0  0  0  0  0  0  0
   -0.2621    1.2331    2.3571 C   0  0  0  0  0  0  0  0  0  0  0  0
   -0.3376    2.5967    2.5356 N   0  0  0  0  0  0  0  0  0  0  0  0
    0.1797    3.3033    2.0164 H   0  0  0  0  0  0  0  0  0  0  0  0
   -1.1855    2.8473    3.5983 C   0  0  0  0  0  0  0  0  0  0  0  0
   -1.4381    3.8339    3.9765 H   0  0  0  0  0  0  0  0  0  0  0  0
   -1.6463    1.7198    4.0847 N   0  0  0  0  0  0  0  0  0  0  0  0
   -1.0618    0.7041    3.3347 C   0  0  0  0  0  0  0  0  0  0  0  0
   -1.2261   -0.3577    3.4937 H   0  0  0  0  0  0  0  0  0  0  0  0
    0.7925    0.1337   -1.2113 C   0  0  0  0  0  0  0  0  0  0  0  0
    2.0094    0.2400   -1.1232 O   0  0  0  0  0  0  0  0  0  0  0  0
    0.2427   -0.2145   -2.4321 N   0  0  0  0  0  0  0  0  0  0  0  0
   -0.7511   -0.4236   -2.4227 H   0  0  0  0  0  0  0  0  0  0  0  0
    1.0436   -0.6871   -3.5552 C   0  0  0  0  0  0  0  0  0  0  0  0
    1.5728   -1.6073   -3.2862 H   0  0  0  0  0  0  0  0  0  0  0  0
    0.4017   -0.8938   -4.4169 H   0  0  0  0  0  0  0  0  0  0  0  0
    1.7793    0.0693   -3.8483 H   0  0  0  0  0  0  0  0  0  0  0  0
  1  2  1  0  0  0  0
  2  3  1  0  0  0  0
  2  4  1  0  0  0  0
  2  5  1  0  0  0  0
  5  6  2  0  0  0  0
  5  7  1  0  0  0  0
  7  8  1  0  0  0  0
  7  9  1  0  0  0  0
  9 10  1  0  0  0  0
  9 11  1  0  0  0  0
  9 22  1  0  0  0  0
 11 12  1  0  0  0  0
 11 13  1  0  0  0  0
 11 14  1  0  0  0  0
 14 15  1  0  0  0  0
 14 20  2  0  0  0  0
 15 16  1  0  0  0  0
 15 17  1  0  0  0  0
 17 18  1  0  0  0  0
 17 19  2  0  0  0  0
 19 20  1  0  0  0  0
 20 21  1  0  0  0  0
 22 23  2  0  0  0  0
 22 24  1  0  0  0  0
 24 25  1  0  0  0  0
 24 26  1  0  0  0  0
 26 27  1  0  0  0  0
 26 28  1  0  0  0  0
 26 29  1  0  0  0  0
M  END
$$$$

  -OEChem-01062216083D

 29 29  0     1  0  0  0  0  0999 V2000
   -3.3945   -2.4800    1.2450 H   0  0  0  0  0  0  0  0  0  0  0  0
   -3.2865   -1.5214    0.7296 C   0  0  0  0  0  0  0  0  0  0  0  0
   -3.7103   -0.7362    1.3605 H   0  0  0  0  0  0  0  0  0  0  0  0
   -3.8386   -1.5637   -0.2120 H   0  0  0  0  0  0  0  0  0  0  0  0
   -1.8212   -1.2363    0.4608 C   0  0  0  0  0  0  0  0  0  0  0  0
   -0.9902   -2.0908    0.7095 O   0  0  0  0  0  0  0  0  0  0  0  0
   -1.4611   -0.0376   -0.1269 N   0  0  0  0  0  0  0  0  0  0  0  0
   -2.2382    0.6071   -0.2373 H   0  0  0  0  0  0  0  0  0  0  0  0
   -0.1180    0.5878   -0.0537 C   0  0  1  0  0  0  0  0  0  0  0  0
   -0.2615    1.6571   -0.2324 H   0  0  0  0  0  0  0  0  0  0  0  0
    0.5536    0.4773    1.3364 C   0  0  0  0  0  0  0  0  0  0  0  0
    0.6813   -0.5661    1.6365 H   0  0  0  0  0  0  0  0  0  0  0  0
    1.5570    0.9141    1.3003 H   0  0  0  0  0  0  0  0  0  0  0  0
   -0.2541    1.2352    2.3584 C   0  0  0  0  0  0  0  0  0  0  0  0
   -0.3345    2.5992    2.5328 N   0  0  0  0  0  0  0  0  0  0  0  0
    0.1829    3.3061    2.0141 H   0  0  0  0  0  0  0  0  0  0  0  0
   -1.1863    2.8500    3.5922 C   0  0  0  0  0  0  0  0  0  0  0  0
   -1.4427    3.8370    3.9667 H   0  0  0  0  0  0  0  0  0  0  0  0
   -1.6451    1.7225    4.0805 N   0  0  0  0  0  0  0  0  0  0  0  0
   -1.0553    0.7062    3.3351 C   0  0  0  0  0  0  0  0  0  0  0  0
   -1.2171   -0.3557    3.4962 H   0  0  0  0  0  0  0  0  0  0  0  0
    0.7971    0.1247   -1.2107 C   0  0  0  0  0  0  0  0  0  0  0  0
    2.0034   -0.0162   -1.0536 O   0  0  0  0  0  0  0  0  0  0  0  0
    0.2881    0.0795   -2.4967 N   0  0  0  0  0  0  0  0  0  0  0  0
   -0.7237    0.0891   -2.5779 H   0  0  0  0  0  0  0  0  0  0  0  0
    1.0777   -0.3410   -3.6483 C   0  0  0  0  0  0  0  0  0  0  0  0
    1.4252   -1.3712   -3.5177 H   0  0  0  0  0  0  0  0  0  0  0  0
    0.4748   -0.2903   -4.5600 H   0  0  0  0  0  0  0  0  0  0  0  0
    1.9483    0.3112   -3.7754 H   0  0  0  0  0  0  0  0  0  0  0  0
  1  2  1  0  0  0  0
  2  3  1  0  0  0  0
  2  4  1  0  0  0  0
  2  5  1  0  0  0  0
  5  6  2  0  0  0  0
  5  7  1  0  0  0  0
  7  8  1  0  0  0  0
  7  9  1  0  0  0  0
  9 10  1  0  0  0  0
  9 11  1  0  0  0  0
  9 22  1  0  0  0  0
 11 12  1  0  0  0  0
 11 13  1  0  0  0  0
 11 14  1  0  0  0  0
 14 15  1  0  0  0  0
 14 20  2  0  0  0  0
 15 16  1  0  0  0  0
 15 17  1  0  0  0  0
 17 18  1  0  0  0  0
 17 19  2  0  0  0  0
 19 20  1  0  0  0  0
 20 21  1  0  0  0  0
 22 23  2  0  0  0  0
 22 24  1  0  0  0  0
 24 25  1  0  0  0  0
 24 26  1  0  0  0  0
 26 27  1  0  0  0  0
 26 28  1  0  0  0  0
 26 29  1  0  0  0  0
M  END
$$$$

  -OEChem-01062216083D

 29 29  0     1  0  0  0  0  0999 V2000
   -3.4086   -2.5009    1.2003 H   0  0  0  0  0  0  0  0  0  0  0  0
   -3.2936   -1.5391    0.6924 C   0  0  0  0  0  0  0  0  0  0  0  0
   -3.7421   -0.7603    1.3141 H   0  0  0  0  0  0  0  0  0  0  0  0
   -3.8176   -1.5820   -0.2652 H   0  0  0  0  0  0  0  0  0  0  0  0
   -1.8233   -1.2409    0.4678 C   0  0  0  0  0  0  0  0  0  0  0  0
   -0.9941   -2.0822    0.7620 O   0  0  0  0  0  0  0  0  0  0  0  0
   -1.4599   -0.0436   -0.1216 N   0  0  0  0  0  0  0  0  0  0  0  0
   -2.2401    0.5902   -0.2652 H   0  0  0  0  0  0  0  0  0  0  0  0
   -0.1201    0.5880   -0.0538 C   0  0  1  0  0  0  0  0  0  0  0  0
   -0.2687    1.6568   -0.2313 H   0  0  0  0  0  0  0  0  0  0  0  0
    0.5614    0.4858    1.3318 C   0  0  0  0  0  0  0  0  0  0  0  0
    0.6977   -0.5560    1.6337 H   0  0  0  0  0  0  0  0  0  0  0  0
    1.5627    0.9261    1.2836 H   0  0  0  0  0  0  0  0  0  0  0  0
   -0.2416    1.2416    2.3591 C   0  0  0  0  0  0  0  0  0  0  0  0
   -0.3282    2.6056    2.5322 N   0  0  0  0  0  0  0  0  0  0  0  0
    0.1819    3.3145    2.0096 H   0  0  0  0  0  0  0  0  0  0  0  0
   -1.1743    2.8535    3.5969 C   0  0  0  0  0  0  0  0  0  0  0  0
   -1.4339    3.8394    3.9718 H   0  0  0  0  0  0  0  0  0  0  0  0
   -1.6234    1.7245    4.0898 N   0  0  0  0  0  0  0  0  0  0  0  0
   -1.0336    0.7098    3.3417 C   0  0  0  0  0  0  0  0  0  0  0  0
   -1.1894   -0.3526    3.5048 H   0  0  0  0  0  0  0  0  0  0  0  0
    0.7902    0.1218   -1.2130 C   0  0  0  0  0  0  0  0  0  0  0  0
    1.9352   -0.2647   -1.0164 O   0  0  0  0  0  0  0  0  0  0  0  0
    0.3927    0.3608   -2.5171 N   0  0  0  0  0  0  0  0  0  0  0  0
   -0.5833    0.5997   -2.6597 H   0  0  0  0  0  0  0  0  0  0  0  0
    1.1972   -0.0149   -3.6742 C   0  0  0  0  0  0  0  0  0  0  0  0
    1.3622   -1.0974   -3.6902 H   0  0  0  0  0  0  0  0  0  0  0  0
    0.6878    0.2726   -4.5988 H   0  0  0  0  0  0  0  0  0  0  0  0
    2.1692    0.4888   -3.6461 H   0  0  0  0  0  0  0  0  0  0  0  0
  1  2  1  0  0  0  0
  2  3  1  0  0  0  0
  2  4  1  0  0  0  0
  2  5  1  0  0  0  0
  5  6  2  0  0  0  0
  5  7  1  0  0  0  0
  7  8  1  0  0  0  0
  7  9  1  0  0  0  0
  9 10  1  0  0  0  0
  9 11  1  0  0  0  0
  9 22  1  0  0  0  0
 11 12  1  0  0  0  0
 11 13  1  0  0  0  0
 11 14  1  0  0  0  0
 14 15  1  0  0  0  0
 14 20  2  0  0  0  0
 15 16  1  0  0  0  0
 15 17  1  0  0  0  0
 17 18  1  0  0  0  0
 17 19  2  0  0  0  0
 19 20  1  0  0  0  0
 20 21  1  0  0  0  0
 22 23  2  0  0  0  0
 22 24  1  0  0  0  0
 24 25  1  0  0  0  0
 24 26  1  0  0  0  0
 26 27  1  0  0  0  0
 26 28  1  0  0  0  0
 26 29  1  0  0  0  0
M  END
$$$$

  -OEChem-01062216083D

 29 29  0     1  0  0  0  0  0999 V2000
   -3.4399   -2.5241    1.1393 H   0  0  0  0  0  0  0  0  0  0  0  0
   -3.3118   -1.5639    0.6310 C   0  0  0  0  0  0  0  0  0  0  0  0
   -3.8094   -0.7880    1.2178 H   0  0  0  0  0  0  0  0  0  0  0  0
   -3.7771   -1.6238   -0.3556 H   0  0  0  0  0  0  0  0  0  0  0  0
   -1.8360   -1.2415    0.4910 C   0  0  0  0  0  0  0  0  0  0  0  0
   -1.0154   -2.0575    0.8677 O   0  0  0  0  0  0  0  0  0  0  0  0
   -1.4653   -0.0484   -0.1035 N   0  0  0  0  0  0  0  0  0  0  0  0
   -2.2470    0.5610   -0.3224 H   0  0  0  0  0  0  0  0  0  0  0  0
   -0.1295    0.5922   -0.0506 C   0  0  1  0  0  0  0  0  0  0  0  0
   -0.2880    1.6597   -0.2268 H   0  0  0  0  0  0  0  0  0  0  0  0
    0.5731    0.5002    1.3242 C   0  0  0  0  0  0  0  0  0  0  0  0
    0.7216   -0.5393    1.6280 H   0  0  0  0  0  0  0  0  0  0  0  0
    1.5710    0.9454    1.2558 H   0  0  0  0  0  0  0  0  0  0  0  0
   -0.2193    1.2529    2.3619 C   0  0  0  0  0  0  0  0  0  0  0  0
   -0.3150    2.6164    2.5343 N   0  0  0  0  0  0  0  0  0  0  0  0
    0.1821    3.3294    2.0049 H   0  0  0  0  0  0  0  0  0  0  0  0
   -1.1480    2.8581    3.6108 C   0  0  0  0  0  0  0  0  0  0  0  0
   -1.4101    3.8420    3.9889 H   0  0  0  0  0  0  0  0  0  0  0  0
   -1.5812    1.7263    4.1110 N   0  0  0  0  0  0  0  0  0  0  0  0
   -0.9941    0.7154    3.3551 C   0  0  0  0  0  0  0  0  0  0  0  0
   -1.1391   -0.3483    3.5207 H   0  0  0  0  0  0  0  0  0  0  0  0
    0.7772    0.1247   -1.2121 C   0  0  0  0  0  0  0  0  0  0  0  0
    1.8088   -0.5031   -1.0135 O   0  0  0  0  0  0  0  0  0  0  0  0
    0.5437    0.6142   -2.4862 N   0  0  0  0  0  0  0  0  0  0  0  0
   -0.3377    1.0907   -2.6463 H   0  0  0  0  0  0  0  0  0  0  0  0
    1.3765    0.2757   -3.6348 C   0  0  0  0  0  0  0  0  0  0  0  0
    1.3695   -0.8058   -3.8068 H   0  0  0  0  0  0  0  0  0  0  0  0
    1.0011    0.7724   -4.5345 H   0  0  0  0  0  0  0  0  0  0  0  0
    2.4094    0.5991   -3.4686 H   0  0  0  0  0  0  0  0  0  0  0  0
  1  2  1  0  0  0  0
  2  3  1  0  0  0  0
  2  4  1  0  0  0  0
  2  5  1  0  0  0  0
  5  6  2  0  0  0  0
  5  7  1  0  0  0  0
  7  8  1  0  0  0  0
  7  9  1  0  0  0  0
  9 10  1  0  0  0  0
  9 11  1  0  0  0  0
  9 22  1  0  0  0  0
 11 12  1  0  0  0  0
 11 13  1  0  0  0  0
 11 14  1  0  0  0  0
 14 15  1  0  0  0  0
 14 20  2  0  0  0  0
 15 16  1  0  0  0  0
 15 17  1  0  0  0  0
 17 18  1  0  0  0  0
 17 19  2  0  0  0  0
 19 20  1  0  0  0  0
 20 21  1  0  0  0  0
 22 23  2  0  0  0  0
 22 24  1  0  0  0  0
 24 25  1  0  0  0  0
 24 26  1  0  0  0  0
 26 27  1  0  0  0  0
 26 28  1  0  0  0  0
 26 29  1  0  0  0  0
M  END
$$$$

  -OEChem-01062216083D

 29 29  0     1  0  0  0  0  0999 V2000
   -3.4731   -2.5574    1.0348 H   0  0  0  0  0  0  0  0  0  0  0  0
   -3.3251   -1.6101    0.5084 C   0  0  0  0  0  0  0  0  0  0  0  0
   -3.9213   -0.8387    1.0018 H   0  0  0  0  0  0  0  0  0  0  0  0
   -3.6662   -1.7243   -0.5232 H   0  0  0  0  0  0  0  0  0  0  0  0
   -1.8578   -1.2251    0.5297 C   0  0  0  0  0  0  0  0  0  0  0  0
   -1.0630   -1.9816    1.0559 O   0  0  0  0  0  0  0  0  0  0  0  0
   -1.4754   -0.0386   -0.0725 N   0  0  0  0  0  0  0  0  0  0  0  0
   -2.2441    0.5070   -0.4479 H   0  0  0  0  0  0  0  0  0  0  0  0
   -0.1457    0.6165   -0.0368 C   0  0  1  0  0  0  0  0  0  0  0  0
   -0.3189    1.6817   -0.2113 H   0  0  0  0  0  0  0  0  0  0  0  0
    0.5884    0.5357    1.3205 C   0  0  0  0  0  0  0  0  0  0  0  0
    0.7599   -0.5019    1.6198 H   0  0  0  0  0  0  0  0  0  0  0  0
    1.5783    0.9932    1.2258 H   0  0  0  0  0  0  0  0  0  0  0  0
   -0.1854    1.2773    2.3797 C   0  0  0  0  0  0  0  0  0  0  0  0
   -0.2944    2.6391    2.5581 N   0  0  0  0  0  0  0  0  0  0  0  0
    0.1782    3.3597    2.0176 H   0  0  0  0  0  0  0  0  0  0  0  0
   -1.0991    2.8674    3.6588 C   0  0  0  0  0  0  0  0  0  0  0  0
   -1.3613    3.8471    4.0480 H   0  0  0  0  0  0  0  0  0  0  0  0
   -1.5032    1.7294    4.1683 N   0  0  0  0  0  0  0  0  0  0  0  0
   -0.9283    0.7275    3.3907 C   0  0  0  0  0  0  0  0  0  0  0  0
   -1.0585   -0.3383    3.5556 H   0  0  0  0  0  0  0  0  0  0  0  0
    0.7570    0.1442   -1.1984 C   0  0  0  0  0  0  0  0  0  0  0  0
    1.6055   -0.7234   -1.0462 O   0  0  0  0  0  0  0  0  0  0  0  0
    0.7285    0.8312   -2.4006 N   0  0  0  0  0  0  0  0  0  0  0  0
    0.0120    1.5392   -2.5224 H   0  0  0  0  0  0  0  0  0  0  0  0
    1.5769    0.4880   -3.5363 C   0  0  0  0  0  0  0  0  0  0  0  0
    1.3806   -0.5381   -3.8647 H   0  0  0  0  0  0  0  0  0  0  0  0
    1.3796    1.1635   -4.3742 H   0  0  0  0  0  0  0  0  0  0  0  0
    2.6343    0.5743   -3.2648 H   0  0  0  0  0  0  0  0  0  0  0  0
  1  2  1  0  0  0  0
  2  3  1  0  0  0  0
  2  4  1  0  0  0  0
  2  5  1  0  0  0  0
  5  6  2  0  0  0  0
  5  7  1  0  0  0  0
  7  8  1  0  0  0  0
  7  9  1  0  0  0  0
  9 10  1  0  0  0  0
  9 11  1  0  0  0  0
  9 22  1  0  0  0  0
 11 12  1  0  0  0  0
 11 13  1  0  0  0  0
 11 14  1  0  0  0  0
 14 15  1  0  0  0  0
 14 20  2  0  0  0  0
 15 16  1  0  0  0  0
 15 17  1  0  0  0  0
 17 18  1  0  0  0  0
 17 19  2  0  0  0  0
 19 20  1  0  0  0  0
 20 21  1  0  0  0  0
 22 23  2  0  0  0  0
 22 24  1  0  0  0  0
 24 25  1  0  0  0  0
 24 26  1  0  0  0  0
 26 27  1  0  0  0  0
 26 28  1  0  0  0  0
 26 29  1  0  0  0  0
M  END
$$$$

  -OEChem-01062216083D

 29 29  0     1  0  0  0  0  0999 V2000
   -3.4752   -2.5867    0.9610 H   0  0  0  0  0  0  0  0  0  0  0  0
   -3.3200   -1.6458    0.4252 C   0  0  0  0  0  0  0  0  0  0  0  0
   -3.9813   -0.8873    0.8505 H   0  0  0  0  0  0  0  0  0  0  0  0
   -3.5727   -1.7956   -0.6270 H   0  0  0  0  0  0  0  0  0  0  0  0
   -1.8744   -1.2038    0.5548 C   0  0  0  0  0  0  0  0  0  0  0  0
   -1.1110   -1.9007    1.1976 O   0  0  0  0  0  0  0  0  0  0  0  0
   -1.4894   -0.0209   -0.0549 N   0  0  0  0  0  0  0  0  0  0  0  0
   -2.2310    0.4548   -0.5580 H   0  0  0  0  0  0  0  0  0  0  0  0
   -0.1634    0.6424   -0.0277 C   0  0  1  0  0  0  0  0  0  0  0  0
   -0.3489    1.7058   -0.2007 H   0  0  0  0  0  0  0  0  0  0  0  0
    0.5943    0.5657    1.3154 C   0  0  0  0  0  0  0  0  0  0  0  0
    0.7806   -0.4712    1.6075 H   0  0  0  0  0  0  0  0  0  0  0  0
    1.5782    1.0321    1.2044 H   0  0  0  0  0  0  0  0  0  0  0  0
   -0.1647    1.2975    2.3925 C   0  0  0  0  0  0  0  0  0  0  0  0
   -0.2838    2.6575    2.5812 N   0  0  0  0  0  0  0  0  0  0  0  0
    0.1656    3.3864    2.0326 H   0  0  0  0  0  0  0  0  0  0  0  0
   -1.0656    2.8713    3.7012 C   0  0  0  0  0  0  0  0  0  0  0  0
   -1.3293    3.8459    4.1017 H   0  0  0  0  0  0  0  0  0  0  0  0
   -1.4454    1.7268    4.2142 N   0  0  0  0  0  0  0  0  0  0  0  0
   -0.8813    0.7348    3.4158 C   0  0  0  0  0  0  0  0  0  0  0  0
   -0.9983   -0.3332    3.5763 H   0  0  0  0  0  0  0  0  0  0  0  0
    0.7415    0.1681   -1.1865 C   0  0  0  0  0  0  0  0  0  0  0  0
    1.3319   -0.9013   -1.1436 O   0  0  0  0  0  0  0  0  0  0  0  0
    0.9582    0.9976   -2.2745 N   0  0  0  0  0  0  0  0  0  0  0  0
    0.4607    1.8815   -2.3058 H   0  0  0  0  0  0  0  0  0  0  0  0
    1.8200    0.6358   -3.3947 C   0  0  0  0  0  0  0  0  0  0  0  0
    1.4402   -0.2609   -3.8956 H   0  0  0  0  0  0  0  0  0  0  0  0
    1.8566    1.4508   -4.1240 H   0  0  0  0  0  0  0  0  0  0  0  0
    2.8394    0.4386   -3.0463 H   0  0  0  0  0  0  0  0  0  0  0  0
  1  2  1  0  0  0  0
  2  3  1  0  0  0  0
  2  4  1  0  0  0  0
  2  5  1  0  0  0  0
  5  6  2  0  0  0  0
  5  7  1  0  0  0  0
  7  8  1  0  0  0  0
  7  9  1  0  0  0  0
  9 10  1  0  0  0  0
  9 11  1  0  0  0  0
  9 22  1  0  0  0  0
 11 12  1  0  0  0  0
 11 13  1  0  0  0  0
 11 14  1  0  0  0  0
 14 15  1  0  0  0  0
 14 20  2  0  0  0  0
 15 16  1  0  0  0  0
 15 17  1  0  0  0  0
 17 18  1  0  0  0  0
 17 19  2  0  0  0  0
 19 20  1  0  0  0  0
 20 21  1  0  0  0  0
 22 23  2  0  0  0  0
 22 24  1  0  0  0  0
 24 25  1  0  0  0  0
 24 26  1  0  0  0  0
 26 27  1  0  0  0  0
 26 28  1  0  0  0  0
 26 29  1  0  0  0  0
M  END
$$$$

  -OEChem-01062216083D

 29 29  0     1  0  0  0  0  0999 V2000
   -3.4561   -2.6498    0.8348 H   0  0  0  0  0  0  0  0  0  0  0  0
   -3.3013   -1.7012    0.3127 C   0  0  0  0  0  0  0  0  0  0  0  0
   -4.0407   -0.9798    0.6686 H   0  0  0  0  0  0  0  0  0  0  0  0
   -3.4427   -1.8640   -0.7584 H   0  0  0  0  0  0  0  0  0  0  0  0
   -1.9006   -1.1817    0.5783 C   0  0  0  0  0  0  0  0  0  0  0  0
   -1.1819   -1.8139    1.3314 O   0  0  0  0  0  0  0  0  0  0  0  0
   -1.5104   -0.0009   -0.0327 N   0  0  0  0  0  0  0  0  0  0  0  0
   -2.1991    0.3897   -0.6671 H   0  0  0  0  0  0  0  0  0  0  0  0
   -0.1805    0.6548   -0.0045 C   0  0  1  0  0  0  0  0  0  0  0  0
   -0.3687    1.7172   -0.1810 H   0  0  0  0  0  0  0  0  0  0  0  0
    0.5940    0.5831    1.3283 C   0  0  0  0  0  0  0  0  0  0  0  0
    0.7834   -0.4537    1.6194 H   0  0  0  0  0  0  0  0  0  0  0  0
    1.5768    1.0482    1.2030 H   0  0  0  0  0  0  0  0  0  0  0  0
   -0.1463    1.3201    2.4157 C   0  0  0  0  0  0  0  0  0  0  0  0
   -0.2579    2.6816    2.5996 N   0  0  0  0  0  0  0  0  0  0  0  0
    0.1737    3.4069    2.0326 H   0  0  0  0  0  0  0  0  0  0  0  0
   -1.0125    2.9041    3.7365 C   0  0  0  0  0  0  0  0  0  0  0  0
   -1.2672    3.8818    4.1355 H   0  0  0  0  0  0  0  0  0  0  0  0
   -1.3779    1.7641    4.2687 N   0  0  0  0  0  0  0  0  0  0  0  0
   -0.8369    0.7655    3.4620 C   0  0  0  0  0  0  0  0  0  0  0  0
   -0.9478   -0.3008    3.6364 H   0  0  0  0  0  0  0  0  0  0  0  0
    0.7238    0.1765   -1.1613 C   0  0  0  0  0  0  0  0  0  0  0  0
    0.9993   -1.0049   -1.3114 O   0  0  0  0  0  0  0  0  0  0  0  0
    1.2028    1.0902   -2.0854 N   0  0  0  0  0  0  0  0  0  0  0  0
    0.9635    2.0681   -1.9564 H   0  0  0  0  0  0  0  0  0  0  0  0
    2.0559    0.7175   -3.2086 C   0  0  0  0  0  0  0  0  0  0  0  0
    1.5431    0.0016   -3.8594 H   0  0  0  0  0  0  0  0  0  0  0  0
    2.3101    1.6017   -3.8009 H   0  0  0  0  0  0  0  0  0  0  0  0
    2.9852    0.2629   -2.8493 H   0  0  0  0  0  0  0  0  0  0  0  0
  1  2  1  0  0  0  0
  2  3  1  0  0  0  0
  2  4  1  0  0  0  0
  2  5  1  0  0  0  0
  5  6  2  0  0  0  0
  5  7  1  0  0  0  0
  7  8  1  0  0  0  0
  7  9  1  0  0  0  0
  9 10  1  0  0  0  0
  9 11  1  0  0  0  0
  9 22  1  0  0  0  0
 11 12  1  0  0  0  0
 11 13  1  0  0  0  0
 11 14  1  0  0  0  0
 14 15  1  0  0  0  0
 14 20  2  0  0  0  0
 15 16  1  0  0  0  0
 15 17  1  0  0  0  0
 17 18  1  0  0  0  0
 17 19  2  0  0  0  0
 19 20  1  0  0  0  0
 20 21  1  0  0  0  0
 22 23  2  0  0  0  0
 22 24  1  0  0  0  0
 24 25  1  0  0  0  0
 24 26  1  0  0  0  0
 26 27  1  0  0  0  0
 26 28  1  0  0  0  0
 26 29  1  0  0  0  0
M  END
$$$$

  -OEChem-01062216083D

 29 29  0     1  0  0  0  0  0999 V2000
   -3.4391   -2.6736    0.7863 H   0  0  0  0  0  0  0  0  0  0  0  0
   -3.2831   -1.7231    0.2681 C   0  0  0  0  0  0  0  0  0  0  0  0
   -4.0524   -1.0170    0.5894 H   0  0  0  0  0  0  0  0  0  0  0  0
   -3.3749   -1.8915   -0.8075 H   0  0  0  0  0  0  0  0  0  0  0  0
   -1.9069   -1.1713    0.5899 C   0  0  0  0  0  0  0  0  0  0  0  0
   -1.2080   -1.7794    1.3816 O   0  0  0  0  0  0  0  0  0  0  0  0
   -1.5141    0.0085   -0.0205 N   0  0  0  0  0  0  0  0  0  0  0  0
   -2.1663    0.3509   -0.7182 H   0  0  0  0  0  0  0  0  0  0  0  0
   -0.1805    0.6556    0.0113 C   0  0  1  0  0  0  0  0  0  0  0  0
   -0.3662    1.7175   -0.1709 H   0  0  0  0  0  0  0  0  0  0  0  0
    0.5944    0.5864    1.3436 C   0  0  0  0  0  0  0  0  0  0  0  0
    0.7794   -0.4500    1.6382 H   0  0  0  0  0  0  0  0  0  0  0  0
    1.5788    1.0472    1.2170 H   0  0  0  0  0  0  0  0  0  0  0  0
   -0.1408    1.3315    2.4287 C   0  0  0  0  0  0  0  0  0  0  0  0
   -0.2469    2.6941    2.6090 N   0  0  0  0  0  0  0  0  0  0  0  0
    0.1750    3.4170    2.0320 H   0  0  0  0  0  0  0  0  0  0  0  0
   -0.9967    2.9233    3.7475 C   0  0  0  0  0  0  0  0  0  0  0  0
   -1.2485    3.9033    4.1427 H   0  0  0  0  0  0  0  0  0  0  0  0
   -1.3615    1.7864    4.2866 N   0  0  0  0  0  0  0  0  0  0  0  0
   -0.8280    0.7834    3.4805 C   0  0  0  0  0  0  0  0  0  0  0  0
   -0.9408   -0.2818    3.6602 H   0  0  0  0  0  0  0  0  0  0  0  0
    0.7252    0.1749   -1.1443 C   0  0  0  0  0  0  0  0  0  0  0  0
    0.7224   -0.9905   -1.5162 O   0  0  0  0  0  0  0  0  0  0  0  0
    1.4599    1.0966   -1.8714 N   0  0  0  0  0  0  0  0  0  0  0  0
    1.4495    2.0635   -1.5626 H   0  0  0  0  0  0  0  0  0  0  0  0
    2.3019    0.7303   -3.0050 C   0  0  0  0  0  0  0  0  0  0  0  0
    1.7017    0.2657   -3.7945 H   0  0  0  0  0  0  0  0  0  0  0  0
    2.7881    1.6187   -3.4190 H   0  0  0  0  0  0  0  0  0  0  0  0
    3.0788    0.0245   -2.6925 H   0  0  0  0  0  0  0  0  0  0  0  0
  1  2  1  0  0  0  0
  2  3  1  0  0  0  0
  2  4  1  0  0  0  0
  2  5  1  0  0  0  0
  5  6  2  0  0  0  0
  5  7  1  0  0  0  0
  7  8  1  0  0  0  0
  7  9  1  0  0  0  0
  9 10  1  0  0  0  0
  9 11  1  0  0  0  0
  9 22  1  0  0  0  0
 11 12  1  0  0  0  0
 11 13  1  0  0  0  0
 11 14  1  0  0  0  0
 14 15  1  0  0  0  0
 14 20  2  0  0  0  0
 15 16  1  0  0  0  0
 15 17  1  0  0  0  0
 17 18  1  0  0  0  0
 17 19  2  0  0  0  0
 19 20  1  0  0  0  0
 20 21  1  0  0  0  0
 22 23  2  0  0  0  0
 22 24  1  0  0  0  0
 24 25  1  0  0  0  0
 24 26  1  0  0  0  0
 26 27  1  0  0  0  0
 26 28  1  0  0  0  0
 26 29  1  0  0  0  0
M  END
$$$$

  -OEChem-01062216083D

 29 29  0     1  0  0  0  0  0999 V2000
   -3.4316   -2.6852    0.7700 H   0  0  0  0  0  0  0  0  0  0  0  0
   -3.2751   -1.7355    0.2508 C   0  0  0  0  0  0  0  0  0  0  0  0
   -4.0557   -1.0349    0.5559 H   0  0  0  0  0  0  0  0  0  0  0  0
   -3.3465   -1.9090   -0.8257 H   0  0  0  0  0  0  0  0  0  0  0  0
   -1.9094   -1.1706    0.5943 C   0  0  0  0  0  0  0  0  0  0  0  0
   -1.2129   -1.7761    1.3907 O   0  0  0  0  0  0  0  0  0  0  0  0
   -1.5141    0.0101   -0.0120 N   0  0  0  0  0  0  0  0  0  0  0  0
   -2.1437    0.3291   -0.7413 H   0  0  0  0  0  0  0  0  0  0  0  0
   -0.1761    0.6483    0.0229 C   0  0  1  0  0  0  0  0  0  0  0  0
   -0.3561    1.7103   -0.1645 H   0  0  0  0  0  0  0  0  0  0  0  0
    0.5926    0.5806    1.3603 C   0  0  0  0  0  0  0  0  0  0  0  0
    0.7707   -0.4547    1.6623 H   0  0  0  0  0  0  0  0  0  0  0  0
    1.5804    1.0352    1.2390 H   0  0  0  0  0  0  0  0  0  0  0  0
   -0.1422    1.3360    2.4380 C   0  0  0  0  0  0  0  0  0  0  0  0
   -0.2396    2.7002    2.6105 N   0  0  0  0  0  0  0  0  0  0  0  0
    0.1812    3.4177    2.0259 H   0  0  0  0  0  0  0  0  0  0  0  0
   -0.9875    2.9405    3.7481 C   0  0  0  0  0  0  0  0  0  0  0  0
   -1.2315    3.9243    4.1388 H   0  0  0  0  0  0  0  0  0  0  0  0
   -1.3605    1.8091    4.2929 N   0  0  0  0  0  0  0  0  0  0  0  0
   -0.8353    0.7982    3.4913 C   0  0  0  0  0  0  0  0  0  0  0  0
   -0.9560   -0.2652    3.6763 H   0  0  0  0  0  0  0  0  0  0  0  0
    0.7284    0.1680   -1.1351 C   0  0  0  0  0  0  0  0  0  0  0  0
    0.5046   -0.8798   -1.7273 O   0  0  0  0  0  0  0  0  0  0  0  0
    1.6939    1.0178   -1.6489 N   0  0  0  0  0  0  0  0  0  0  0  0
    1.8666    1.8902   -1.1596 H   0  0  0  0  0  0  0  0  0  0  0  0
    2.5403    0.6718   -2.7857 C   0  0  0  0  0  0  0  0  0  0  0  0
    1.9301    0.4833   -3.6753 H   0  0  0  0  0  0  0  0  0  0  0  0
    3.2296    1.4920   -3.0082 H   0  0  0  0  0  0  0  0  0  0  0  0
    3.1292   -0.2250   -2.5658 H   0  0  0  0  0  0  0  0  0  0  0  0
  1  2  1  0  0  0  0
  2  3  1  0  0  0  0
  2  4  1  0  0  0  0
  2  5  1  0  0  0  0
  5  6  2  0  0  0  0
  5  7  1  0  0  0  0
  7  8  1  0  0  0  0
  7  9  1  0  0  0  0
  9 10  1  0  0  0  0
  9 11  1  0  0  0  0
  9 22  1  0  0  0  0
 11 12  1  0  0  0  0
 11 13  1  0  0  0  0
 11 14  1  0  0  0  0
 14 15  1  0  0  0  0
 14 20  2  0  0  0  0
 15 16  1  0  0  0  0
 15 17  1  0  0  0  0
 17 18  1  0  0  0  0
 17 19  2  0  0  0  0
 19 20  1  0  0  0  0
 20 21  1  0  0  0  0
 22 23  2  0  0  0  0
 22 24  1  0  0  0  0
 24 25  1  0  0  0  0
 24 26  1  0  0  0  0
 26 27  1  0  0  0  0
 26 28  1  0  0  0  0
 26 29  1  0  0  0  0
M  END
$$$$

  -OEChem-01062216083D

 29 29  0     1  0  0  0  0  0999 V2000
   -3.4259   -2.6792    0.7723 H   0  0  0  0  0  0  0  0  0  0  0  0
   -3.2694   -1.7249    0.2616 C   0  0  0  0  0  0  0  0  0  0  0  0
   -4.0423   -1.0229    0.5831 H   0  0  0  0  0  0  0  0  0  0  0  0
   -3.3542   -1.8859   -0.8159 H   0  0  0  0  0  0  0  0  0  0  0  0
   -1.8965   -1.1723    0.5950 C   0  0  0  0  0  0  0  0  0  0  0  0
   -1.1874   -1.7977    1.3647 O   0  0  0  0  0  0  0  0  0  0  0  0
   -1.4999    0.0119   -0.0023 N   0  0  0  0  0  0  0  0  0  0  0  0
   -2.1267    0.3350   -0.7327 H   0  0  0  0  0  0  0  0  0  0  0  0
   -0.1608    0.6478    0.0342 C   0  0  1  0  0  0  0  0  0  0  0  0
   -0.3346    1.7113   -0.1524 H   0  0  0  0  0  0  0  0  0  0  0  0
    0.5972    0.5753    1.3794 C   0  0  0  0  0  0  0  0  0  0  0  0
    0.7707   -0.4598    1.6835 H   0  0  0  0  0  0  0  0  0  0  0  0
    1.5863    1.0292    1.2723 H   0  0  0  0  0  0  0  0  0  0  0  0
   -0.1477    1.3330    2.4484 C   0  0  0  0  0  0  0  0  0  0  0  0
   -0.2432    2.6976    2.6194 N   0  0  0  0  0  0  0  0  0  0  0  0
    0.1840    3.4141    2.0380 H   0  0  0  0  0  0  0  0  0  0  0  0
   -1.0108    2.9405    3.7434 C   0  0  0  0  0  0  0  0  0  0  0  0
   -1.2605    3.9252    4.1281 H   0  0  0  0  0  0  0  0  0  0  0  0
   -1.3957    1.8100    4.2822 N   0  0  0  0  0  0  0  0  0  0  0  0
   -0.8599    0.7975    3.4901 C   0  0  0  0  0  0  0  0  0  0  0  0
   -0.9887   -0.2657    3.6717 H   0  0  0  0  0  0  0  0  0  0  0  0
    0.7368    0.1709   -1.1327 C   0  0  0  0  0  0  0  0  0  0  0  0
    0.3596   -0.7009   -1.9065 O   0  0  0  0  0  0  0  0  0  0  0  0
    1.8914    0.8682   -1.4480 N   0  0  0  0  0  0  0  0  0  0  0  0
    2.1967    1.5922   -0.8054 H   0  0  0  0  0  0  0  0  0  0  0  0
    2.7508    0.5249   -2.5759 C   0  0  0  0  0  0  0  0  0  0  0  0
    2.1951    0.5935   -3.5173 H   0  0  0  0  0  0  0  0  0  0  0  0
    3.6007    1.2122   -2.6273 H   0  0  0  0  0  0  0  0  0  0  0  0
    3.1364   -0.4945   -2.4678 H   0  0  0  0  0  0  0  0  0  0  0  0
  1  2  1  0  0  0  0
  2  3  1  0  0  0  0
  2  4  1  0  0  0  0
  2  5  1  0  0  0  0
  5  6  2  0  0  0  0
  5  7  1  0  0  0  0
  7  8  1  0  0  0  0
  7  9  1  0  0  0  0
  9 10  1  0  0  0  0
  9 11  1  0  0  0  0
  9 22  1  0  0  0  0
 11 12  1  0  0  0  0
 11 13  1  0  0  0  0
 11 14  1  0  0  0  0
 14 15  1  0  0  0  0
 14 20  2  0  0  0  0
 15 16  1  0  0  0  0
 15 17  1  0  0  0  0
 17 18  1  0  0  0  0
 17 19  2  0  0  0  0
 19 20  1  0  0  0  0
 20 21  1  0  0  0  0
 22 23  2  0  0  0  0
 22 24  1  0  0  0  0
 24 25  1  0  0  0  0
 24 26  1  0  0  0  0
 26 27  1  0  0  0  0
 26 28  1  0  0  0  0
 26 29  1  0  0  0  0
M  END
$$$$

  -OEChem-01062216083D

 29 29  0     1  0  0  0  0  0999 V2000
   -3.5356   -2.6303    0.7060 H   0  0  0  0  0  0  0  0  0  0  0  0
   -3.3381   -1.6652    0.2308 C   0  0  0  0  0  0  0  0  0  0  0  0
   -4.0415   -0.9285    0.6257 H   0  0  0  0  0  0  0  0  0  0  0  0
   -3.4903   -1.7664   -0.8465 H   0  0  0  0  0  0  0  0  0  0  0  0
   -1.9146   -1.2231    0.5139 C   0  0  0  0  0  0  0  0  0  0  0  0
   -1.1918   -1.9641    1.1576 O   0  0  0  0  0  0  0  0  0  0  0  0
   -1.4768   -0.0284   -0.0294 N   0  0  0  0  0  0  0  0  0  0  0  0
   -2.1116    0.3706   -0.7155 H   0  0  0  0  0  0  0  0  0  0  0  0
   -0.1323    0.5951    0.0337 C   0  0  1  0  0  0  0  0  0  0  0  0
   -0.3196    1.6685    0.1261 H   0  0  0  0  0  0  0  0  0  0  0  0
    0.7614    0.2428    1.2477 C   0  0  0  0  0  0  0  0  0  0  0  0
    0.9483   -0.8338    1.2911 H   0  0  0  0  0  0  0  0  0  0  0  0
    1.7394    0.7206    1.1488 H   0  0  0  0  0  0  0  0  0  0  0  0
    0.1418    0.7339    2.5333 C   0  0  0  0  0  0  0  0  0  0  0  0
    0.0859    2.0323    2.9942 N   0  0  0  0  0  0  0  0  0  0  0  0
    0.4356    2.8603    2.5185 H   0  0  0  0  0  0  0  0  0  0  0  0
   -0.5233    2.0285    4.2348 C   0  0  0  0  0  0  0  0  0  0  0  0
   -0.7121    2.9101    4.8410 H   0  0  0  0  0  0  0  0  0  0  0  0
   -0.8396    0.8052    4.5795 N   0  0  0  0  0  0  0  0  0  0  0  0
   -0.4227   -0.0153    3.5341 C   0  0  0  0  0  0  0  0  0  0  0  0
   -0.5231   -1.0965    3.5215 H   0  0  0  0  0  0  0  0  0  0  0  0
    0.6158    0.4482   -1.3141 C   0  0  0  0  0  0  0  0  0  0  0  0
    0.0293    0.0295   -2.3058 O   0  0  0  0  0  0  0  0  0  0  0  0
    1.8930    0.9585   -1.4803 N   0  0  0  0  0  0  0  0  0  0  0  0
    2.3783    1.2959   -0.6552 H   0  0  0  0  0  0  0  0  0  0  0  0
    2.6194    0.9025   -2.7439 C   0  0  0  0  0  0  0  0  0  0  0  0
    2.0622    1.4219   -3.5308 H   0  0  0  0  0  0  0  0  0  0  0  0
    3.5968    1.3834   -2.6401 H   0  0  0  0  0  0  0  0  0  0  0  0
    2.7753   -0.1373   -3.0501 H   0  0  0  0  0  0  0  0  0  0  0  0
  1  2  1  0  0  0  0
  2  3  1  0  0  0  0
  2  4  1  0  0  0  0
  2  5  1  0  0  0  0
  5  6  2  0  0  0  0
  5  7  1  0  0  0  0
  7  8  1  0  0  0  0
  7  9  1  0  0  0  0
  9 10  1  0  0  0  0
  9 11  1  0  0  0  0
  9 22  1  0  0  0  0
 11 12  1  0  0  0  0
 11 13  1  0  0  0  0
 11 14  1  0  0  0  0
 14 15  1  0  0  0  0
 14 20  2  0  0  0  0
 15 16  1  0  0  0  0
 15 17  1  0  0  0  0
 17 18  1  0  0  0  0
 17 19  2  0  0  0  0
 19 20  1  0  0  0  0
 20 21  1  0  0  0  0
 22 23  2  0  0  0  0
 22 24  1  0  0  0  0
 24 25  1  0  0  0  0
 24 26  1  0  0  0  0
 26 27  1  0  0  0  0
 26 28  1  0  0  0  0
 26 29  1  0  0  0  0
M  END
$$$$

  -OEChem-01062216083D

 29 29  0     1  0  0  0  0  0999 V2000
   -3.5185   -2.6208    0.7032 H   0  0  0  0  0  0  0  0  0  0  0  0
   -3.3185   -1.6545    0.2316 C   0  0  0  0  0  0  0  0  0  0  0  0
   -4.0150   -0.9161    0.6360 H   0  0  0  0  0  0  0  0  0  0  0  0
   -3.4795   -1.7481   -0.8451 H   0  0  0  0  0  0  0  0  0  0  0  0
   -1.8903   -1.2230    0.5057 C   0  0  0  0  0  0  0  0  0  0  0  0
   -1.1611   -1.9767    1.1274 O   0  0  0  0  0  0  0  0  0  0  0  0
   -1.4516   -0.0238   -0.0260 N   0  0  0  0  0  0  0  0  0  0  0  0
   -2.0864    0.3887   -0.7047 H   0  0  0  0  0  0  0  0  0  0  0  0
   -0.1107    0.6037    0.0521 C   0  0  1  0  0  0  0  0  0  0  0  0
   -0.2972    1.6774    0.1443 H   0  0  0  0  0  0  0  0  0  0  0  0
    0.7674    0.2496    1.2777 C   0  0  0  0  0  0  0  0  0  0  0  0
    0.9613   -0.8257    1.3210 H   0  0  0  0  0  0  0  0  0  0  0  0
    1.7421    0.7375    1.1962 H   0  0  0  0  0  0  0  0  0  0  0  0
    0.1289    0.7361    2.5554 C   0  0  0  0  0  0  0  0  0  0  0  0
    0.0636    2.0329    3.0191 N   0  0  0  0  0  0  0  0  0  0  0  0
    0.4186    2.8630    2.5506 H   0  0  0  0  0  0  0  0  0  0  0  0
   -0.5671    2.0243    4.2490 C   0  0  0  0  0  0  0  0  0  0  0  0
   -0.7675    2.9039    4.8540 H   0  0  0  0  0  0  0  0  0  0  0  0
   -0.8883    0.7994    4.5841 N   0  0  0  0  0  0  0  0  0  0  0  0
   -0.4527   -0.0171    3.5432 C   0  0  0  0  0  0  0  0  0  0  0  0
   -0.5533   -1.0982    3.5237 H   0  0  0  0  0  0  0  0  0  0  0  0
    0.6326    0.4575   -1.2989 C   0  0  0  0  0  0  0  0  0  0  0  0
   -0.0105    0.2873   -2.3290 O   0  0  0  0  0  0  0  0  0  0  0  0
    1.9961    0.6759   -1.4110 N   0  0  0  0  0  0  0  0  0  0  0  0
    2.5292    0.7724   -0.5527 H   0  0  0  0  0  0  0  0  0  0  0  0
    2.7201    0.5748   -2.6734 C   0  0  0  0  0  0  0  0  0  0  0  0
    2.3205    1.2863   -3.4037 H   0  0  0  0  0  0  0  0  0  0  0  0
    3.7804    0.7978   -2.5204 H   0  0  0  0  0  0  0  0  0  0  0  0
    2.6341   -0.4367   -3.0843 H   0  0  0  0  0  0  0  0  0  0  0  0
  1  2  1  0  0  0  0
  2  3  1  0  0  0  0
  2  4  1  0  0  0  0
  2  5  1  0  0  0  0
  5  6  2  0  0  0  0
  5  7  1  0  0  0  0
  7  8  1  0  0  0  0
  7  9  1  0  0  0  0
  9 10  1  0  0  0  0
  9 11  1  0  0  0  0
  9 22  1  0  0  0  0
 11 12  1  0  0  0  0
 11 13  1  0  0  0  0
 11 14  1  0  0  0  0
 14 15  1  0  0  0  0
 14 20  2  0  0  0  0
 15 16  1  0  0  0  0
 15 17  1  0  0  0  0
 17 18  1  0  0  0  0
 17 19  2  0  0  0  0
 19 20  1  0  0  0  0
 20 21  1  0  0  0  0
 22 23  2  0  0  0  0
 22 24  1  0  0  0  0
 24 25  1  0  0  0  0
 24 26  1  0  0  0  0
 26 27  1  0  0  0  0
 26 28  1  0  0  0  0
 26 29  1  0  0  0  0
M  END
$$$$

  -OEChem-01062216083D

 29 29  0     1  0  0  0  0  0999 V2000
   -3.5095   -2.6062    0.7232 H   0  0  0  0  0  0  0  0  0  0  0  0
   -3.3094   -1.6398    0.2518 C   0  0  0  0  0  0  0  0  0  0  0  0
   -3.9862   -0.8948    0.6766 H   0  0  0  0  0  0  0  0  0  0  0  0
   -3.4973   -1.7258   -0.8212 H   0  0  0  0  0  0  0  0  0  0  0  0
   -1.8701   -1.2269    0.4942 C   0  0  0  0  0  0  0  0  0  0  0  0
   -1.1300   -1.9957    1.0839 O   0  0  0  0  0  0  0  0  0  0  0  0
   -1.4299   -0.0263   -0.0315 N   0  0  0  0  0  0  0  0  0  0  0  0
   -2.0805    0.4187   -0.6739 H   0  0  0  0  0  0  0  0  0  0  0  0
   -0.0924    0.6038    0.0607 C   0  0  1  0  0  0  0  0  0  0  0  0
   -0.2791    1.6780    0.1495 H   0  0  0  0  0  0  0  0  0  0  0  0
    0.7738    0.2529    1.2948 C   0  0  0  0  0  0  0  0  0  0  0  0
    0.9720   -0.8215    1.3426 H   0  0  0  0  0  0  0  0  0  0  0  0
    1.7454    0.7489    1.2214 H   0  0  0  0  0  0  0  0  0  0  0  0
    0.1189    0.7386    2.5638 C   0  0  0  0  0  0  0  0  0  0  0  0
    0.0422    2.0346    3.0278 N   0  0  0  0  0  0  0  0  0  0  0  0
    0.4012    2.8664    2.5650 H   0  0  0  0  0  0  0  0  0  0  0  0
   -0.6082    2.0223    4.2474 C   0  0  0  0  0  0  0  0  0  0  0  0
   -0.8221    2.9003    4.8502 H   0  0  0  0  0  0  0  0  0  0  0  0
   -0.9306    0.7955    4.5755 N   0  0  0  0  0  0  0  0  0  0  0  0
   -0.4761   -0.0180    3.5406 C   0  0  0  0  0  0  0  0  0  0  0  0
   -0.5750   -1.0993    3.5158 H   0  0  0  0  0  0  0  0  0  0  0  0
    0.6535    0.4549   -1.2869 C   0  0  0  0  0  0  0  0  0  0  0  0
    0.0162    0.5290   -2.3317 O   0  0  0  0  0  0  0  0  0  0  0  0
    2.0340    0.3682   -1.3627 N   0  0  0  0  0  0  0  0  0  0  0  0
    2.5394    0.2110   -0.4962 H   0  0  0  0  0  0  0  0  0  0  0  0
    2.7551    0.2283   -2.6226 C   0  0  0  0  0  0  0  0  0  0  0  0
    2.5367    1.0724   -3.2853 H   0  0  0  0  0  0  0  0  0  0  0  0
    3.8338    0.2048   -2.4404 H   0  0  0  0  0  0  0  0  0  0  0  0
    2.4674   -0.7001   -3.1271 H   0  0  0  0  0  0  0  0  0  0  0  0
  1  2  1  0  0  0  0
  2  3  1  0  0  0  0
  2  4  1  0  0  0  0
  2  5  1  0  0  0  0
  5  6  2  0  0  0  0
  5  7  1  0  0  0  0
  7  8  1  0  0  0  0
  7  9  1  0  0  0  0
  9 10  1  0  0  0  0
  9 11  1  0  0  0  0
  9 22  1  0  0  0  0
 11 12  1  0  0  0  0
 11 13  1  0  0  0  0
 11 14  1  0  0  0  0
 14 15  1  0  0  0  0
 14 20  2  0  0  0  0
 15 16  1  0  0  0  0
 15 17  1  0  0  0  0
 17 18  1  0  0  0  0
 17 19  2  0  0  0  0
 19 20  1  0  0  0  0
 20 21  1  0  0  0  0
 22 23  2  0  0  0  0
 22 24  1  0  0  0  0
 24 25  1  0  0  0  0
 24 26  1  0  0  0  0
 26 27  1  0  0  0  0
 26 28  1  0  0  0  0
 26 29  1  0  0  0  0
M  END
$$$$

  -OEChem-01062216083D

 29 29  0     1  0  0  0  0  0999 V2000
   -3.5042   -2.5934    0.7494 H   0  0  0  0  0  0  0  0  0  0  0  0
   -3.3063   -1.6266    0.2781 C   0  0  0  0  0  0  0  0  0  0  0  0
   -3.9626   -0.8767    0.7263 H   0  0  0  0  0  0  0  0  0  0  0  0
   -3.5256   -1.7037   -0.7896 H   0  0  0  0  0  0  0  0  0  0  0  0
   -1.8563   -1.2313    0.4820 C   0  0  0  0  0  0  0  0  0  0  0  0
   -1.1045   -2.0144    1.0374 O   0  0  0  0  0  0  0  0  0  0  0  0
   -1.4166   -0.0300   -0.0424 N   0  0  0  0  0  0  0  0  0  0  0  0
   -2.0887    0.4513   -0.6344 H   0  0  0  0  0  0  0  0  0  0  0  0
   -0.0816    0.6017    0.0609 C   0  0  1  0  0  0  0  0  0  0  0  0
   -0.2699    1.6760    0.1473 H   0  0  0  0  0  0  0  0  0  0  0  0
    0.7766    0.2537    1.3006 C   0  0  0  0  0  0  0  0  0  0  0  0
    0.9763   -0.8200    1.3535 H   0  0  0  0  0  0  0  0  0  0  0  0
    1.7482    0.7519    1.2278 H   0  0  0  0  0  0  0  0  0  0  0  0
    0.1111    0.7389    2.5636 C   0  0  0  0  0  0  0  0  0  0  0  0
    0.0273    2.0345    3.0264 N   0  0  0  0  0  0  0  0  0  0  0  0
    0.3910    2.8666    2.5679 H   0  0  0  0  0  0  0  0  0  0  0  0
   -0.6351    2.0207    4.2395 C   0  0  0  0  0  0  0  0  0  0  0  0
   -0.8554    2.8982    4.8407 H   0  0  0  0  0  0  0  0  0  0  0  0
   -0.9598    0.7934    4.5637 N   0  0  0  0  0  0  0  0  0  0  0  0
   -0.4931   -0.0188    3.5335 C   0  0  0  0  0  0  0  0  0  0  0  0
   -0.5908   -1.1000    3.5064 H   0  0  0  0  0  0  0  0  0  0  0  0
    0.6727    0.4512   -1.2792 C   0  0  0  0  0  0  0  0  0  0  0  0
    0.0954    0.7501   -2.3181 O   0  0  0  0  0  0  0  0  0  0  0  0
    2.0011    0.0644   -1.3413 N   0  0  0  0  0  0  0  0  0  0  0  0
    2.4143   -0.3053   -0.4902 H   0  0  0  0  0  0  0  0  0  0  0  0
    2.7162   -0.1236   -2.5982 C   0  0  0  0  0  0  0  0  0  0  0  0
    2.7110    0.8008   -3.1853 H   0  0  0  0  0  0  0  0  0  0  0  0
    3.7568   -0.4003   -2.4032 H   0  0  0  0  0  0  0  0  0  0  0  0
    2.2499   -0.9192   -3.1888 H   0  0  0  0  0  0  0  0  0  0  0  0
  1  2  1  0  0  0  0
  2  3  1  0  0  0  0
  2  4  1  0  0  0  0
  2  5  1  0  0  0  0
  5  6  2  0  0  0  0
  5  7  1  0  0  0  0
  7  8  1  0  0  0  0
  7  9  1  0  0  0  0
  9 10  1  0  0  0  0
  9 11  1  0  0  0  0
  9 22  1  0  0  0  0
 11 12  1  0  0  0  0
 11 13  1  0  0  0  0
 11 14  1  0  0  0  0
 14 15  1  0  0  0  0
 14 20  2  0  0  0  0
 15 16  1  0  0  0  0
 15 17  1  0  0  0  0
 17 18  1  0  0  0  0
 17 19  2  0  0  0  0
 19 20  1  0  0  0  0
 20 21  1  0  0  0  0
 22 23  2  0  0  0  0
 22 24  1  0  0  0  0
 24 25  1  0  0  0  0
 24 26  1  0  0  0  0
 26 27  1  0  0  0  0
 26 28  1  0  0  0  0
 26 29  1  0  0  0  0
M  END
$$$$

  -OEChem-01062216083D

 29 29  0     1  0  0  0  0  0999 V2000
   -3.5009   -2.5750    0.8015 H   0  0  0  0  0  0  0  0  0  0  0  0
   -3.3096   -1.6106    0.3225 C   0  0  0  0  0  0  0  0  0  0  0  0
   -3.9367   -0.8528    0.7980 H   0  0  0  0  0  0  0  0  0  0  0  0
   -3.5740   -1.6838   -0.7351 H   0  0  0  0  0  0  0  0  0  0  0  0
   -1.8466   -1.2363    0.4668 C   0  0  0  0  0  0  0  0  0  0  0  0
   -1.0794   -2.0367    0.9748 O   0  0  0  0  0  0  0  0  0  0  0  0
   -1.4086   -0.0352   -0.0598 N   0  0  0  0  0  0  0  0  0  0  0  0
   -2.1060    0.4880   -0.5827 H   0  0  0  0  0  0  0  0  0  0  0  0
   -0.0743    0.5954    0.0530 C   0  0  1  0  0  0  0  0  0  0  0  0
   -0.2624    1.6699    0.1378 H   0  0  0  0  0  0  0  0  0  0  0  0
    0.7780    0.2482    1.2964 C   0  0  0  0  0  0  0  0  0  0  0  0
    0.9769   -0.8251    1.3552 H   0  0  0  0  0  0  0  0  0  0  0  0
    1.7506    0.7448    1.2223 H   0  0  0  0  0  0  0  0  0  0  0  0
    0.1046    0.7338    2.5542 C   0  0  0  0  0  0  0  0  0  0  0  0
    0.0178    2.0299    3.0144 N   0  0  0  0  0  0  0  0  0  0  0  0
    0.3925    2.8603    2.5611 H   0  0  0  0  0  0  0  0  0  0  0  0
   -0.6575    2.0180    4.2202 C   0  0  0  0  0  0  0  0  0  0  0  0
   -0.8821    2.8963    4.8186 H   0  0  0  0  0  0  0  0  0  0  0  0
   -0.9886    0.7911    4.5410 N   0  0  0  0  0  0  0  0  0  0  0  0
   -0.5110   -0.0228    3.5173 C   0  0  0  0  0  0  0  0  0  0  0  0
   -0.6110   -1.1040    3.4888 H   0  0  0  0  0  0  0  0  0  0  0  0
    0.6923    0.4429   -1.2769 C   0  0  0  0  0  0  0  0  0  0  0  0
    0.2295    0.9577   -2.2875 O   0  0  0  0  0  0  0  0  0  0  0  0
    1.9024   -0.2253   -1.3521 N   0  0  0  0  0  0  0  0  0  0  0  0
    2.1725   -0.7747   -0.5408 H   0  0  0  0  0  0  0  0  0  0  0  0
    2.6076   -0.4508   -2.6080 C   0  0  0  0  0  0  0  0  0  0  0  0
    2.8241    0.5017   -3.1029 H   0  0  0  0  0  0  0  0  0  0  0  0
    3.5557   -0.9642   -2.4216 H   0  0  0  0  0  0  0  0  0  0  0  0
    2.0036   -1.0689   -3.2804 H   0  0  0  0  0  0  0  0  0  0  0  0
  1  2  1  0  0  0  0
  2  3  1  0  0  0  0
  2  4  1  0  0  0  0
  2  5  1  0  0  0  0
  5  6  2  0  0  0  0
  5  7  1  0  0  0  0
  7  8  1  0  0  0  0
  7  9  1  0  0  0  0
  9 10  1  0  0  0  0
  9 11  1  0  0  0  0
  9 22  1  0  0  0  0
 11 12  1  0  0  0  0
 11 13  1  0  0  0  0
 11 14  1  0  0  0  0
 14 15  1  0  0  0  0
 14 20  2  0  0  0  0
 15 16  1  0  0  0  0
 15 17  1  0  0  0  0
 17 18  1  0  0  0  0
 17 19  2  0  0  0  0
 19 20  1  0  0  0  0
 20 21  1  0  0  0  0
 22 23  2  0  0  0  0
 22 24  1  0  0  0  0
 24 25  1  0  0  0  0
 24 26  1  0  0  0  0
 26 27  1  0  0  0  0
 26 28  1  0  0  0  0
 26 29  1  0  0  0  0
M  END
$$$$

  -OEChem-01062216083D

 29 29  0     1  0  0  0  0  0999 V2000
   -3.4945   -2.5539    0.8646 H   0  0  0  0  0  0  0  0  0  0  0  0
   -3.3125   -1.5902    0.3803 C   0  0  0  0  0  0  0  0  0  0  0  0
   -3.9016   -0.8247    0.8911 H   0  0  0  0  0  0  0  0  0  0  0  0
   -3.6330   -1.6539   -0.6623 H   0  0  0  0  0  0  0  0  0  0  0  0
   -1.8378   -1.2404    0.4496 C   0  0  0  0  0  0  0  0  0  0  0  0
   -1.0535   -2.0610    0.8961 O   0  0  0  0  0  0  0  0  0  0  0  0
   -1.4052   -0.0409   -0.0839 N   0  0  0  0  0  0  0  0  0  0  0  0
   -2.1263    0.5209   -0.5283 H   0  0  0  0  0  0  0  0  0  0  0  0
   -0.0716    0.5885    0.0379 C   0  0  1  0  0  0  0  0  0  0  0  0
   -0.2597    1.6635    0.1203 H   0  0  0  0  0  0  0  0  0  0  0  0
    0.7765    0.2425    1.2837 C   0  0  0  0  0  0  0  0  0  0  0  0
    0.9759   -0.8301    1.3466 H   0  0  0  0  0  0  0  0  0  0  0  0
    1.7501    0.7374    1.2080 H   0  0  0  0  0  0  0  0  0  0  0  0
    0.0976    0.7281    2.5383 C   0  0  0  0  0  0  0  0  0  0  0  0
    0.0070    2.0237    2.9986 N   0  0  0  0  0  0  0  0  0  0  0  0
    0.3874    2.8539    2.5496 H   0  0  0  0  0  0  0  0  0  0  0  0
   -0.6761    2.0103    4.2003 C   0  0  0  0  0  0  0  0  0  0  0  0
   -0.9027    2.8875    4.7999 H   0  0  0  0  0  0  0  0  0  0  0  0
   -1.0123    0.7832    4.5157 N   0  0  0  0  0  0  0  0  0  0  0  0
   -0.5267   -0.0293    3.4950 C   0  0  0  0  0  0  0  0  0  0  0  0
   -0.6288   -1.1101    3.4621 H   0  0  0  0  0  0  0  0  0  0  0  0
    0.7079    0.4296   -1.2807 C   0  0  0  0  0  0  0  0  0  0  0  0
    0.4141    1.1369   -2.2359 O   0  0  0  0  0  0  0  0  0  0  0  0
    1.7398   -0.4845   -1.3987 N   0  0  0  0  0  0  0  0  0  0  0  0
    1.8231   -1.1707   -0.6525 H   0  0  0  0  0  0  0  0  0  0  0  0
    2.4351   -0.7370   -2.6548 C   0  0  0  0  0  0  0  0  0  0  0  0
    2.8777    0.1871   -3.0416 H   0  0  0  0  0  0  0  0  0  0  0  0
    3.2382   -1.4644   -2.5021 H   0  0  0  0  0  0  0  0  0  0  0  0
    1.7418   -1.1360   -3.4027 H   0  0  0  0  0  0  0  0  0  0  0  0
  1  2  1  0  0  0  0
  2  3  1  0  0  0  0
  2  4  1  0  0  0  0
  2  5  1  0  0  0  0
  5  6  2  0  0  0  0
  5  7  1  0  0  0  0
  7  8  1  0  0  0  0
  7  9  1  0  0  0  0
  9 10  1  0  0  0  0
  9 11  1  0  0  0  0
  9 22  1  0  0  0  0
 11 12  1  0  0  0  0
 11 13  1  0  0  0  0
 11 14  1  0  0  0  0
 14 15  1  0  0  0  0
 14 20  2  0  0  0  0
 15 16  1  0  0  0  0
 15 17  1  0  0  0  0
 17 18  1  0  0  0  0
 17 19  2  0  0  0  0
 19 20  1  0  0  0  0
 20 21  1  0  0  0  0
 22 23  2  0  0  0  0
 22 24  1  0  0  0  0
 24 25  1  0  0  0  0
 24 26  1  0  0  0  0
 26 27  1  0  0  0  0
 26 28  1  0  0  0  0
 26 29  1  0  0  0  0
M  END
$$$$

  -OEChem-01062216083D

 29 29  0     1  0  0  0  0  0999 V2000
   -3.4732   -2.5438    0.9109 H   0  0  0  0  0  0  0  0  0  0  0  0
   -3.3103   -1.5571    0.4682 C   0  0  0  0  0  0  0  0  0  0  0  0
   -3.8348   -0.8115    1.0708 H   0  0  0  0  0  0  0  0  0  0  0  0
   -3.7196   -1.5533   -0.5448 H   0  0  0  0  0  0  0  0  0  0  0  0
   -1.8279   -1.2399    0.4295 C   0  0  0  0  0  0  0  0  0  0  0  0
   -1.0252   -2.0846    0.7914 O   0  0  0  0  0  0  0  0  0  0  0  0
   -1.4074   -0.0432   -0.1180 N   0  0  0  0  0  0  0  0  0  0  0  0
   -2.1517    0.5544   -0.4671 H   0  0  0  0  0  0  0  0  0  0  0  0
   -0.0752    0.5867    0.0115 C   0  0  1  0  0  0  0  0  0  0  0  0
   -0.2623    1.6624    0.0914 H   0  0  0  0  0  0  0  0  0  0  0  0
    0.7714    0.2373    1.2564 C   0  0  0  0  0  0  0  0  0  0  0  0
    0.9756   -0.8345    1.3169 H   0  0  0  0  0  0  0  0  0  0  0  0
    1.7441    0.7347    1.1815 H   0  0  0  0  0  0  0  0  0  0  0  0
    0.0865    0.7171    2.5099 C   0  0  0  0  0  0  0  0  0  0  0  0
   -0.0104    2.0103    2.9755 N   0  0  0  0  0  0  0  0  0  0  0  0
    0.3708    2.8437    2.5324 H   0  0  0  0  0  0  0  0  0  0  0  0
   -0.7033    1.9898    4.1715 C   0  0  0  0  0  0  0  0  0  0  0  0
   -0.9374    2.8639    4.7726 H   0  0  0  0  0  0  0  0  0  0  0  0
   -1.0397    0.7603    4.4780 N   0  0  0  0  0  0  0  0  0  0  0  0
   -0.5425   -0.0463    3.4584 C   0  0  0  0  0  0  0  0  0  0  0  0
   -0.6433   -1.1271    3.4189 H   0  0  0  0  0  0  0  0  0  0  0  0
    0.7150    0.4144   -1.2964 C   0  0  0  0  0  0  0  0  0  0  0  0
    0.6440    1.2730   -2.1660 O   0  0  0  0  0  0  0  0  0  0  0  0
    1.5186   -0.6951   -1.4832 N   0  0  0  0  0  0  0  0  0  0  0  0
    1.3948   -1.4557   -0.8171 H   0  0  0  0  0  0  0  0  0  0  0  0
    2.2183   -0.9678   -2.7321 C   0  0  0  0  0  0  0  0  0  0  0  0
    2.8762   -0.1324   -2.9938 H   0  0  0  0  0  0  0  0  0  0  0  0
    2.8314   -1.8687   -2.6322 H   0  0  0  0  0  0  0  0  0  0  0  0
    1.5026   -1.1216   -3.5464 H   0  0  0  0  0  0  0  0  0  0  0  0
  1  2  1  0  0  0  0
  2  3  1  0  0  0  0
  2  4  1  0  0  0  0
  2  5  1  0  0  0  0
  5  6  2  0  0  0  0
  5  7  1  0  0  0  0
  7  8  1  0  0  0  0
  7  9  1  0  0  0  0
  9 10  1  0  0  0  0
  9 11  1  0  0  0  0
  9 22  1  0  0  0  0
 11 12  1  0  0  0  0
 11 13  1  0  0  0  0
 11 14  1  0  0  0  0
 14 15  1  0  0  0  0
 14 20  2  0  0  0  0
 15 16  1  0  0  0  0
 15 17  1  0  0  0  0
 17 18  1  0  0  0  0
 17 19  2  0  0  0  0
 19 20  1  0  0  0  0
 20 21  1  0  0  0  0
 22 23  2  0  0  0  0
 22 24  1  0  0  0  0
 24 25  1  0  0  0  0
 24 26  1  0  0  0  0
 26 27  1  0  0  0  0
 26 28  1  0  0  0  0
 26 29  1  0  0  0  0
M  END
$$$$

  -OEChem-01062216083D

 29 29  0     1  0  0  0  0  0999 V2000
   -3.4519   -2.5044    1.0222 H   0  0  0  0  0  0  0  0  0  0  0  0
   -3.3060   -1.5250    0.5578 C   0  0  0  0  0  0  0  0  0  0  0  0
   -3.7728   -0.7653    1.1896 H   0  0  0  0  0  0  0  0  0  0  0  0
   -3.7890   -1.5239   -0.4221 H   0  0  0  0  0  0  0  0  0  0  0  0
   -1.8255   -1.2338    0.4073 C   0  0  0  0  0  0  0  0  0  0  0  0
   -1.0104   -2.1021    0.6740 O   0  0  0  0  0  0  0  0  0  0  0  0
   -1.4189   -0.0392   -0.1540 N   0  0  0  0  0  0  0  0  0  0  0  0
   -2.1778    0.5839   -0.4161 H   0  0  0  0  0  0  0  0  0  0  0  0
   -0.0867    0.5912   -0.0183 C   0  0  1  0  0  0  0  0  0  0  0  0
   -0.2713    1.6675    0.0601 H   0  0  0  0  0  0  0  0  0  0  0  0
    0.7585    0.2330    1.2238 C   0  0  0  0  0  0  0  0  0  0  0  0
    0.9647   -0.8390    1.2748 H   0  0  0  0  0  0  0  0  0  0  0  0
    1.7305    0.7321    1.1535 H   0  0  0  0  0  0  0  0  0  0  0  0
    0.0716    0.7020    2.4797 C   0  0  0  0  0  0  0  0  0  0  0  0
   -0.0269    1.9912    2.9548 N   0  0  0  0  0  0  0  0  0  0  0  0
    0.3605    2.8270    2.5214 H   0  0  0  0  0  0  0  0  0  0  0  0
   -0.7224    1.9606    4.1491 C   0  0  0  0  0  0  0  0  0  0  0  0
   -0.9583    2.8294    4.7569 H   0  0  0  0  0  0  0  0  0  0  0  0
   -1.0599    0.7285    4.4443 N   0  0  0  0  0  0  0  0  0  0  0  0
   -0.5581   -0.0695    3.4206 C   0  0  0  0  0  0  0  0  0  0  0  0
   -0.6572   -1.1499    3.3709 H   0  0  0  0  0  0  0  0  0  0  0  0
    0.7132    0.4082   -1.3163 C   0  0  0  0  0  0  0  0  0  0  0  0
    0.8947    1.3565   -2.0685 O   0  0  0  0  0  0  0  0  0  0  0  0
    1.2556   -0.8292   -1.6064 N   0  0  0  0  0  0  0  0  0  0  0  0
    0.9507   -1.6032   -1.0160 H   0  0  0  0  0  0  0  0  0  0  0  0
    1.9643   -1.1225   -2.8447 C   0  0  0  0  0  0  0  0  0  0  0  0
    2.8135   -0.4427   -2.9711 H   0  0  0  0  0  0  0  0  0  0  0  0
    2.3451   -2.1482   -2.8275 H   0  0  0  0  0  0  0  0  0  0  0  0
    1.2943   -1.0140   -3.7038 H   0  0  0  0  0  0  0  0  0  0  0  0
  1  2  1  0  0  0  0
  2  3  1  0  0  0  0
  2  4  1  0  0  0  0
  2  5  1  0  0  0  0
  5  6  2  0  0  0  0
  5  7  1  0  0  0  0
  7  8  1  0  0  0  0
  7  9  1  0  0  0  0
  9 10  1  0  0  0  0
  9 11  1  0  0  0  0
  9 22  1  0  0  0  0
 11 12  1  0  0  0  0
 11 13  1  0  0  0  0
 11 14  1  0  0  0  0
 14 15  1  0  0  0  0
 14 20  2  0  0  0  0
 15 16  1  0  0  0  0
 15 17  1  0  0  0  0
 17 18  1  0  0  0  0
 17 19  2  0  0  0  0
 19 20  1  0  0  0  0
 20 21  1  0  0  0  0
 22 23  2  0  0  0  0
 22 24  1  0  0  0  0
 24 25  1  0  0  0  0
 24 26  1  0  0  0  0
 26 27  1  0  0  0  0
 26 28  1  0  0  0  0
 26 29  1  0  0  0  0
M  END
$$$$

  -OEChem-01062216083D

 29 29  0     1  0  0  0  0  0999 V2000
   -3.4548   -2.4721    1.1061 H   0  0  0  0  0  0  0  0  0  0  0  0
   -3.3188   -1.5017    0.6203 C   0  0  0  0  0  0  0  0  0  0  0  0
   -3.7517   -0.7277    1.2588 H   0  0  0  0  0  0  0  0  0  0  0  0
   -3.8419   -1.5105   -0.3388 H   0  0  0  0  0  0  0  0  0  0  0  0
   -1.8426   -1.2286    0.4053 C   0  0  0  0  0  0  0  0  0  0  0  0
   -1.0268   -2.1108    0.6179 O   0  0  0  0  0  0  0  0  0  0  0  0
   -1.4434   -0.0387   -0.1701 N   0  0  0  0  0  0  0  0  0  0  0  0
   -2.2078    0.5939   -0.3891 H   0  0  0  0  0  0  0  0  0  0  0  0
   -0.1103    0.5948   -0.0425 C   0  0  1  0  0  0  0  0  0  0  0  0
   -0.2929    1.6713    0.0338 H   0  0  0  0  0  0  0  0  0  0  0  0
    0.7425    0.2306    1.1916 C   0  0  0  0  0  0  0  0  0  0  0  0
    0.9501   -0.8418    1.2332 H   0  0  0  0  0  0  0  0  0  0  0  0
    1.7138    0.7310    1.1177 H   0  0  0  0  0  0  0  0  0  0  0  0
    0.0631    0.6916    2.4545 C   0  0  0  0  0  0  0  0  0  0  0  0
   -0.0346    1.9776    2.9387 N   0  0  0  0  0  0  0  0  0  0  0  0
    0.3522    2.8163    2.5103 H   0  0  0  0  0  0  0  0  0  0  0  0
   -0.7194    1.9376    4.1389 C   0  0  0  0  0  0  0  0  0  0  0  0
   -0.9513    2.8018    4.7550 H   0  0  0  0  0  0  0  0  0  0  0  0
   -1.0519    0.7027    4.4284 N   0  0  0  0  0  0  0  0  0  0  0  0
   -0.5547   -0.0877    3.3967 C   0  0  0  0  0  0  0  0  0  0  0  0
   -0.6484   -1.1686    3.3434 H   0  0  0  0  0  0  0  0  0  0  0  0
    0.6911    0.4022   -1.3377 C   0  0  0  0  0  0  0  0  0  0  0  0
    1.1099    1.3705   -1.9578 O   0  0  0  0  0  0  0  0  0  0  0  0
    0.9661   -0.8806   -1.7704 N   0  0  0  0  0  0  0  0  0  0  0  0
    0.5482   -1.6413   -1.2328 H   0  0  0  0  0  0  0  0  0  0  0  0
    1.6995   -1.1847   -2.9915 C   0  0  0  0  0  0  0  0  0  0  0  0
    2.6960   -0.7317   -2.9630 H   0  0  0  0  0  0  0  0  0  0  0  0
    1.8157   -2.2672   -3.1019 H   0  0  0  0  0  0  0  0  0  0  0  0
    1.1630   -0.8022   -3.8661 H   0  0  0  0  0  0  0  0  0  0  0  0
  1  2  1  0  0  0  0
  2  3  1  0  0  0  0
  2  4  1  0  0  0  0
  2  5  1  0  0  0  0
  5  6  2  0  0  0  0
  5  7  1  0  0  0  0
  7  8  1  0  0  0  0
  7  9  1  0  0  0  0
  9 10  1  0  0  0  0
  9 11  1  0  0  0  0
  9 22  1  0  0  0  0
 11 12  1  0  0  0  0
 11 13  1  0  0  0  0
 11 14  1  0  0  0  0
 14 15  1  0  0  0  0
 14 20  2  0  0  0  0
 15 16  1  0  0  0  0
 15 17  1  0  0  0  0
 17 18  1  0  0  0  0
 17 19  2  0  0  0  0
 19 20  1  0  0  0  0
 20 21  1  0  0  0  0
 22 23  2  0  0  0  0
 22 24  1  0  0  0  0
 24 25  1  0  0  0  0
 24 26  1  0  0  0  0
 26 27  1  0  0  0  0
 26 28  1  0  0  0  0
 26 29  1  0  0  0  0
M  END
$$$$

  -OEChem-01062216083D

 29 29  0     1  0  0  0  0  0999 V2000
   -3.4611   -2.4582    1.1913 H   0  0  0  0  0  0  0  0  0  0  0  0
   -3.3388   -1.4844    0.7087 C   0  0  0  0  0  0  0  0  0  0  0  0
   -3.7224   -0.7119    1.3799 H   0  0  0  0  0  0  0  0  0  0  0  0
   -3.9174   -1.4746   -0.2181 H   0  0  0  0  0  0  0  0  0  0  0  0
   -1.8732   -1.2304    0.4115 C   0  0  0  0  0  0  0  0  0  0  0  0
   -1.0602   -2.1267    0.5653 O   0  0  0  0  0  0  0  0  0  0  0  0
   -1.4863   -0.0421   -0.1754 N   0  0  0  0  0  0  0  0  0  0  0  0
   -2.2559    0.5985   -0.3478 H   0  0  0  0  0  0  0  0  0  0  0  0
   -0.1500    0.5931   -0.0716 C   0  0  1  0  0  0  0  0  0  0  0  0
   -0.3310    1.6698    0.0085 H   0  0  0  0  0  0  0  0  0  0  0  0
    0.7165    0.2201    1.1498 C   0  0  0  0  0  0  0  0  0  0  0  0
    0.9198   -0.8536    1.1811 H   0  0  0  0  0  0  0  0  0  0  0  0
    1.6889    0.7173    1.0669 H   0  0  0  0  0  0  0  0  0  0  0  0
    0.0545    0.6771    2.4236 C   0  0  0  0  0  0  0  0  0  0  0  0
   -0.0315    1.9616    2.9136 N   0  0  0  0  0  0  0  0  0  0  0  0
    0.3613    2.7986    2.4870 H   0  0  0  0  0  0  0  0  0  0  0  0
   -0.7069    1.9213    4.1192 C   0  0  0  0  0  0  0  0  0  0  0  0
   -0.9295    2.7844    4.7401 H   0  0  0  0  0  0  0  0  0  0  0  0
   -1.0443    0.6872    4.4069 N   0  0  0  0  0  0  0  0  0  0  0  0
   -0.5588   -0.1021    3.3688 C   0  0  0  0  0  0  0  0  0  0  0  0
   -0.6595   -1.1821    3.3123 H   0  0  0  0  0  0  0  0  0  0  0  0
    0.6481    0.4073   -1.3713 C   0  0  0  0  0  0  0  0  0  0  0  0
    1.2888    1.3391   -1.8394 O   0  0  0  0  0  0  0  0  0  0  0  0
    0.6700   -0.8325   -1.9804 N   0  0  0  0  0  0  0  0  0  0  0  0
    0.1862   -1.5859   -1.4902 H   0  0  0  0  0  0  0  0  0  0  0  0
    1.4701   -1.1424   -3.1571 C   0  0  0  0  0  0  0  0  0  0  0  0
    2.5343   -0.9925   -2.9472 H   0  0  0  0  0  0  0  0  0  0  0  0
    1.3185   -2.1852   -3.4521 H   0  0  0  0  0  0  0  0  0  0  0  0
    1.1820   -0.5005   -3.9961 H   0  0  0  0  0  0  0  0  0  0  0  0
  1  2  1  0  0  0  0
  2  3  1  0  0  0  0
  2  4  1  0  0  0  0
  2  5  1  0  0  0  0
  5  6  2  0  0  0  0
  5  7  1  0  0  0  0
  7  8  1  0  0  0  0
  7  9  1  0  0  0  0
  9 10  1  0  0  0  0
  9 11  1  0  0  0  0
  9 22  1  0  0  0  0
 11 12  1  0  0  0  0
 11 13  1  0  0  0  0
 11 14  1  0  0  0  0
 14 15  1  0  0  0  0
 14 20  2  0  0  0  0
 15 16  1  0  0  0  0
 15 17  1  0  0  0  0
 17 18  1  0  0  0  0
 17 19  2  0  0  0  0
 19 20  1  0  0  0  0
 20 21  1  0  0  0  0
 22 23  2  0  0  0  0
 22 24  1  0  0  0  0
 24 25  1  0  0  0  0
 24 26  1  0  0  0  0
 26 27  1  0  0  0  0
 26 28  1  0  0  0  0
 26 29  1  0  0  0  0
M  END
$$$$

  -OEChem-01062216083D

 29 29  0     1  0  0  0  0  0999 V2000
   -3.4748   -2.4697    1.2062 H   0  0  0  0  0  0  0  0  0  0  0  0
   -3.3502   -1.4850    0.7469 C   0  0  0  0  0  0  0  0  0  0  0  0
   -3.7128   -0.7259    1.4447 H   0  0  0  0  0  0  0  0  0  0  0  0
   -3.9446   -1.4447   -0.1688 H   0  0  0  0  0  0  0  0  0  0  0  0
   -1.8878   -1.2389    0.4297 C   0  0  0  0  0  0  0  0  0  0  0  0
   -1.0785   -2.1394    0.5725 O   0  0  0  0  0  0  0  0  0  0  0  0
   -1.5067   -0.0512   -0.1623 N   0  0  0  0  0  0  0  0  0  0  0  0
   -2.2788    0.5915   -0.3147 H   0  0  0  0  0  0  0  0  0  0  0  0
   -0.1686    0.5864   -0.0784 C   0  0  1  0  0  0  0  0  0  0  0  0
   -0.3510    1.6625    0.0031 H   0  0  0  0  0  0  0  0  0  0  0  0
    0.7060    0.2123    1.1377 C   0  0  0  0  0  0  0  0  0  0  0  0
    0.9060   -0.8620    1.1690 H   0  0  0  0  0  0  0  0  0  0  0  0
    1.6794    0.7065    1.0495 H   0  0  0  0  0  0  0  0  0  0  0  0
    0.0523    0.6737    2.4144 C   0  0  0  0  0  0  0  0  0  0  0  0
   -0.0273    1.9593    2.9017 N   0  0  0  0  0  0  0  0  0  0  0  0
    0.3647    2.7941    2.4703 H   0  0  0  0  0  0  0  0  0  0  0  0
   -0.6977    1.9237    4.1100 C   0  0  0  0  0  0  0  0  0  0  0  0
   -0.9149    2.7891    4.7295 H   0  0  0  0  0  0  0  0  0  0  0  0
   -1.0377    0.6911    4.4019 N   0  0  0  0  0  0  0  0  0  0  0  0
   -0.5587   -0.1021    3.3637 C   0  0  0  0  0  0  0  0  0  0  0  0
   -0.6635   -1.1818    3.3083 H   0  0  0  0  0  0  0  0  0  0  0  0
    0.6271    0.4104   -1.3835 C   0  0  0  0  0  0  0  0  0  0  0  0
    1.4434    1.2587   -1.7186 O   0  0  0  0  0  0  0  0  0  0  0  0
    0.4238   -0.7064   -2.1717 N   0  0  0  0  0  0  0  0  0  0  0  0
   -0.1521   -1.4402   -1.7607 H   0  0  0  0  0  0  0  0  0  0  0  0
    1.2211   -1.0108   -3.3523 C   0  0  0  0  0  0  0  0  0  0  0  0
    2.2694   -1.1658   -3.0768 H   0  0  0  0  0  0  0  0  0  0  0  0
    0.8499   -1.9205   -3.8340 H   0  0  0  0  0  0  0  0  0  0  0  0
    1.1641   -0.1908   -4.0759 H   0  0  0  0  0  0  0  0  0  0  0  0
  1  2  1  0  0  0  0
  2  3  1  0  0  0  0
  2  4  1  0  0  0  0
  2  5  1  0  0  0  0
  5  6  2  0  0  0  0
  5  7  1  0  0  0  0
  7  8  1  0  0  0  0
  7  9  1  0  0  0  0
  9 10  1  0  0  0  0
  9 11  1  0  0  0  0
  9 22  1  0  0  0  0
 11 12  1  0  0  0  0
 11 13  1  0  0  0  0
 11 14  1  0  0  0  0
 14 15  1  0  0  0  0
 14 20  2  0  0  0  0
 15 16  1  0  0  0  0
 15 17  1  0  0  0  0
 17 18  1  0  0  0  0
 17 19  2  0  0  0  0
 19 20  1  0  0  0  0
 20 21  1  0  0  0  0
 22 23  2  0  0  0  0
 22 24  1  0  0  0  0
 24 25  1  0  0  0  0
 24 26  1  0  0  0  0
 26 27  1  0  0  0  0
 26 28  1  0  0  0  0
 26 29  1  0  0  0  0
M  END
$$$$

  -OEChem-01062216083D

 29 29  0     1  0  0  0  0  0999 V2000
   -3.4715   -2.4545    1.2687 H   0  0  0  0  0  0  0  0  0  0  0  0
   -3.3525   -1.4875    0.7716 C   0  0  0  0  0  0  0  0  0  0  0  0
   -3.7129   -0.7038    1.4426 H   0  0  0  0  0  0  0  0  0  0  0  0
   -3.9524   -1.4836   -0.1414 H   0  0  0  0  0  0  0  0  0  0  0  0
   -1.8924   -1.2497    0.4376 C   0  0  0  0  0  0  0  0  0  0  0  0
   -1.0867   -2.1515    0.5861 O   0  0  0  0  0  0  0  0  0  0  0  0
   -1.5133   -0.0611   -0.1556 N   0  0  0  0  0  0  0  0  0  0  0  0
   -2.2863    0.5834   -0.2964 H   0  0  0  0  0  0  0  0  0  0  0  0
   -0.1736    0.5776   -0.0819 C   0  0  1  0  0  0  0  0  0  0  0  0
   -0.3565    1.6534    0.0001 H   0  0  0  0  0  0  0  0  0  0  0  0
    0.6986    0.2024    1.1377 C   0  0  0  0  0  0  0  0  0  0  0  0
    0.8962   -0.8722    1.1706 H   0  0  0  0  0  0  0  0  0  0  0  0
    1.6743    0.6926    1.0524 H   0  0  0  0  0  0  0  0  0  0  0  0
    0.0467    0.6690    2.4137 C   0  0  0  0  0  0  0  0  0  0  0  0
   -0.0272    1.9559    2.8985 N   0  0  0  0  0  0  0  0  0  0  0  0
    0.3751    2.7867    2.4688 H   0  0  0  0  0  0  0  0  0  0  0  0
   -0.6933    1.9250    4.1092 C   0  0  0  0  0  0  0  0  0  0  0  0
   -0.9029    2.7921    4.7288 H   0  0  0  0  0  0  0  0  0  0  0  0
   -1.0394    0.6948    4.4035 N   0  0  0  0  0  0  0  0  0  0  0  0
   -0.5657   -0.1024    3.3658 C   0  0  0  0  0  0  0  0  0  0  0  0
   -0.6742   -1.1821    3.3139 H   0  0  0  0  0  0  0  0  0  0  0  0
    0.6244    0.4112   -1.3897 C   0  0  0  0  0  0  0  0  0  0  0  0
    1.5847    1.1373   -1.6117 O   0  0  0  0  0  0  0  0  0  0  0  0
    0.2311   -0.5144   -2.3379 N   0  0  0  0  0  0  0  0  0  0  0  0
   -0.4640   -1.1910   -2.0294 H   0  0  0  0  0  0  0  0  0  0  0  0
    0.9942   -0.7913   -3.5480 C   0  0  0  0  0  0  0  0  0  0  0  0
    1.9841   -1.1848   -3.2945 H   0  0  0  0  0  0  0  0  0  0  0  0
    0.4723   -1.5312   -4.1625 H   0  0  0  0  0  0  0  0  0  0  0  0
    1.1189    0.1213   -4.1403 H   0  0  0  0  0  0  0  0  0  0  0  0
  1  2  1  0  0  0  0
  2  3  1  0  0  0  0
  2  4  1  0  0  0  0
  2  5  1  0  0  0  0
  5  6  2  0  0  0  0
  5  7  1  0  0  0  0
  7  8  1  0  0  0  0
  7  9  1  0  0  0  0
  9 10  1  0  0  0  0
  9 11  1  0  0  0  0
  9 22  1  0  0  0  0
 11 12  1  0  0  0  0
 11 13  1  0  0  0  0
 11 14  1  0  0  0  0
 14 15  1  0  0  0  0
 14 20  2  0  0  0  0
 15 16  1  0  0  0  0
 15 17  1  0  0  0  0
 17 18  1  0  0  0  0
 17 19  2  0  0  0  0
 19 20  1  0  0  0  0
 20 21  1  0  0  0  0
 22 23  2  0  0  0  0
 22 24  1  0  0  0  0
 24 25  1  0  0  0  0
 24 26  1  0  0  0  0
 26 27  1  0  0  0  0
 26 28  1  0  0  0  0
 26 29  1  0  0  0  0
M  END
$$$$

  -OEChem-01062216083D

 29 29  0     1  0  0  0  0  0999 V2000
   -3.4818   -2.4998    1.2068 H   0  0  0  0  0  0  0  0  0  0  0  0
   -3.3525   -1.5116    0.7561 C   0  0  0  0  0  0  0  0  0  0  0  0
   -3.7175   -0.7575    1.4578 H   0  0  0  0  0  0  0  0  0  0  0  0
   -3.9423   -1.4635   -0.1621 H   0  0  0  0  0  0  0  0  0  0  0  0
   -1.8873   -1.2651    0.4497 C   0  0  0  0  0  0  0  0  0  0  0  0
   -1.0807   -2.1590    0.6325 O   0  0  0  0  0  0  0  0  0  0  0  0
   -1.5086   -0.0729   -0.1394 N   0  0  0  0  0  0  0  0  0  0  0  0
   -2.2832    0.5696   -0.2794 H   0  0  0  0  0  0  0  0  0  0  0  0
   -0.1681    0.5677   -0.0758 C   0  0  1  0  0  0  0  0  0  0  0  0
   -0.3537    1.6426    0.0078 H   0  0  0  0  0  0  0  0  0  0  0  0
    0.7054    0.1969    1.1463 C   0  0  0  0  0  0  0  0  0  0  0  0
    0.9027   -0.8775    1.1831 H   0  0  0  0  0  0  0  0  0  0  0  0
    1.6824    0.6844    1.0627 H   0  0  0  0  0  0  0  0  0  0  0  0
    0.0544    0.6716    2.4201 C   0  0  0  0  0  0  0  0  0  0  0  0
   -0.0162    1.9618    2.8968 N   0  0  0  0  0  0  0  0  0  0  0  0
    0.3944    2.7878    2.4659 H   0  0  0  0  0  0  0  0  0  0  0  0
   -0.6854    1.9406    4.1060 C   0  0  0  0  0  0  0  0  0  0  0  0
   -0.8924    2.8116    4.7211 H   0  0  0  0  0  0  0  0  0  0  0  0
   -1.0380    0.7138    4.4061 N   0  0  0  0  0  0  0  0  0  0  0  0
   -0.5650   -0.0916    3.3743 C   0  0  0  0  0  0  0  0  0  0  0  0
   -0.6797   -1.1706    3.3279 H   0  0  0  0  0  0  0  0  0  0  0  0
    0.6227    0.4120   -1.3923 C   0  0  0  0  0  0  0  0  0  0  0  0
    1.7020    0.9740   -1.5274 O   0  0  0  0  0  0  0  0  0  0  0  0
    0.0755   -0.2655   -2.4664 N   0  0  0  0  0  0  0  0  0  0  0  0
   -0.7407   -0.8346   -2.2578 H   0  0  0  0  0  0  0  0  0  0  0  0
    0.8002   -0.5067   -3.7079 C   0  0  0  0  0  0  0  0  0  0  0  0
    1.6902   -1.1162   -3.5188 H   0  0  0  0  0  0  0  0  0  0  0  0
    0.1616   -1.0353   -4.4221 H   0  0  0  0  0  0  0  0  0  0  0  0
    1.1113    0.4404   -4.1612 H   0  0  0  0  0  0  0  0  0  0  0  0
  1  2  1  0  0  0  0
  2  3  1  0  0  0  0
  2  4  1  0  0  0  0
  2  5  1  0  0  0  0
  5  6  2  0  0  0  0
  5  7  1  0  0  0  0
  7  8  1  0  0  0  0
  7  9  1  0  0  0  0
  9 10  1  0  0  0  0
  9 11  1  0  0  0  0
  9 22  1  0  0  0  0
 11 12  1  0  0  0  0
 11 13  1  0  0  0  0
 11 14  1  0  0  0  0
 14 15  1  0  0  0  0
 14 20  2  0  0  0  0
 15 16  1  0  0  0  0
 15 17  1  0  0  0  0
 17 18  1  0  0  0  0
 17 19  2  0  0  0  0
 19 20  1  0  0  0  0
 20 21  1  0  0  0  0
 22 23  2  0  0  0  0
 22 24  1  0  0  0  0
 24 25  1  0  0  0  0
 24 26  1  0  0  0  0
 26 27  1  0  0  0  0
 26 28  1  0  0  0  0
 26 29  1  0  0  0  0
M  END
$$$$

  -OEChem-01062216083D

 29 29  0     1  0  0  0  0  0999 V2000
   -3.4543   -2.5143    1.1972 H   0  0  0  0  0  0  0  0  0  0  0  0
   -3.3278   -1.5225    0.7536 C   0  0  0  0  0  0  0  0  0  0  0  0
   -3.6861   -0.7740    1.4648 H   0  0  0  0  0  0  0  0  0  0  0  0
   -3.9251   -1.4668   -0.1596 H   0  0  0  0  0  0  0  0  0  0  0  0
   -1.8651   -1.2757    0.4368 C   0  0  0  0  0  0  0  0  0  0  0  0
   -1.0587   -2.1709    0.6134 O   0  0  0  0  0  0  0  0  0  0  0  0
   -1.4912   -0.0768   -0.1427 N   0  0  0  0  0  0  0  0  0  0  0  0
   -2.2662    0.5715   -0.2491 H   0  0  0  0  0  0  0  0  0  0  0  0
   -0.1498    0.5617   -0.0746 C   0  0  1  0  0  0  0  0  0  0  0  0
   -0.3341    1.6365    0.0117 H   0  0  0  0  0  0  0  0  0  0  0  0
    0.7139    0.1892    1.1554 C   0  0  0  0  0  0  0  0  0  0  0  0
    0.9087   -0.8856    1.1954 H   0  0  0  0  0  0  0  0  0  0  0  0
    1.6926    0.6745    1.0821 H   0  0  0  0  0  0  0  0  0  0  0  0
    0.0519    0.6693    2.4218 C   0  0  0  0  0  0  0  0  0  0  0  0
   -0.0194    1.9608    2.8949 N   0  0  0  0  0  0  0  0  0  0  0  0
    0.4019    2.7835    2.4683 H   0  0  0  0  0  0  0  0  0  0  0  0
   -0.7037    1.9451    4.0958 C   0  0  0  0  0  0  0  0  0  0  0  0
   -0.9143    2.8188    4.7061 H   0  0  0  0  0  0  0  0  0  0  0  0
   -1.0651    0.7202    4.3939 N   0  0  0  0  0  0  0  0  0  0  0  0
   -0.5817   -0.0895    3.3700 C   0  0  0  0  0  0  0  0  0  0  0  0
   -0.6996   -1.1684    3.3236 H   0  0  0  0  0  0  0  0  0  0  0  0
    0.6331    0.4139   -1.3986 C   0  0  0  0  0  0  0  0  0  0  0  0
    1.8032    0.7669   -1.4720 O   0  0  0  0  0  0  0  0  0  0  0  0
   -0.0217    0.0305   -2.5552 N   0  0  0  0  0  0  0  0  0  0  0  0
   -0.9390   -0.3860   -2.4233 H   0  0  0  0  0  0  0  0  0  0  0  0
    0.6644   -0.1776   -3.8246 C   0  0  0  0  0  0  0  0  0  0  0  0
    1.4112   -0.9728   -3.7292 H   0  0  0  0  0  0  0  0  0  0  0  0
   -0.0528   -0.4650   -4.5993 H   0  0  0  0  0  0  0  0  0  0  0  0
    1.1672    0.7410   -4.1450 H   0  0  0  0  0  0  0  0  0  0  0  0
  1  2  1  0  0  0  0
  2  3  1  0  0  0  0
  2  4  1  0  0  0  0
  2  5  1  0  0  0  0
  5  6  2  0  0  0  0
  5  7  1  0  0  0  0
  7  8  1  0  0  0  0
  7  9  1  0  0  0  0
  9 10  1  0  0  0  0
  9 11  1  0  0  0  0
  9 22  1  0  0  0  0
 11 12  1  0  0  0  0
 11 13  1  0  0  0  0
 11 14  1  0  0  0  0
 14 15  1  0  0  0  0
 14 20  2  0  0  0  0
 15 16  1  0  0  0  0
 15 17  1  0  0  0  0
 17 18  1  0  0  0  0
 17 19  2  0  0  0  0
 19 20  1  0  0  0  0
 20 21  1  0  0  0  0
 22 23  2  0  0  0  0
 22 24  1  0  0  0  0
 24 25  1  0  0  0  0
 24 26  1  0  0  0  0
 26 27  1  0  0  0  0
 26 28  1  0  0  0  0
 26 29  1  0  0  0  0
M  END
$$$$

  -OEChem-01062216083D

 29 29  0     1  0  0  0  0  0999 V2000
   -3.4501   -2.4957    1.2227 H   0  0  0  0  0  0  0  0  0  0  0  0
   -3.3239   -1.5398    0.7060 C   0  0  0  0  0  0  0  0  0  0  0  0
   -3.7321   -0.7463    1.3368 H   0  0  0  0  0  0  0  0  0  0  0  0
   -3.8774   -1.5723   -0.2352 H   0  0  0  0  0  0  0  0  0  0  0  0
   -1.8533   -1.2836    0.4357 C   0  0  0  0  0  0  0  0  0  0  0  0
   -1.0482   -2.1717    0.6491 O   0  0  0  0  0  0  0  0  0  0  0  0
   -1.4744   -0.0833   -0.1388 N   0  0  0  0  0  0  0  0  0  0  0  0
   -2.2504    0.5615   -0.2554 H   0  0  0  0  0  0  0  0  0  0  0  0
   -0.1333    0.5549   -0.0690 C   0  0  1  0  0  0  0  0  0  0  0  0
   -0.3168    1.6298    0.0155 H   0  0  0  0  0  0  0  0  0  0  0  0
    0.7270    0.1878    1.1658 C   0  0  0  0  0  0  0  0  0  0  0  0
    0.9237   -0.8865    1.2096 H   0  0  0  0  0  0  0  0  0  0  0  0
    1.7050    0.6748    1.0944 H   0  0  0  0  0  0  0  0  0  0  0  0
    0.0615    0.6734    2.4286 C   0  0  0  0  0  0  0  0  0  0  0  0
   -0.0130    1.9661    2.8990 N   0  0  0  0  0  0  0  0  0  0  0  0
    0.4085    2.7888    2.4728 H   0  0  0  0  0  0  0  0  0  0  0  0
   -0.6999    1.9519    4.0985 C   0  0  0  0  0  0  0  0  0  0  0  0
   -0.9138    2.8264    4.7066 H   0  0  0  0  0  0  0  0  0  0  0  0
   -1.0604    0.7274    4.3981 N   0  0  0  0  0  0  0  0  0  0  0  0
   -0.5730   -0.0841    3.3775 C   0  0  0  0  0  0  0  0  0  0  0  0
   -0.6887   -1.1632    3.3344 H   0  0  0  0  0  0  0  0  0  0  0  0
    0.6407    0.4048   -1.3994 C   0  0  0  0  0  0  0  0  0  0  0  0
    1.8596    0.5131   -1.4385 O   0  0  0  0  0  0  0  0  0  0  0  0
   -0.0549    0.3316   -2.5933 N   0  0  0  0  0  0  0  0  0  0  0  0
   -1.0434    0.1123   -2.5196 H   0  0  0  0  0  0  0  0  0  0  0  0
    0.5998    0.1821   -3.8877 C   0  0  0  0  0  0  0  0  0  0  0  0
    1.1695   -0.7525   -3.9233 H   0  0  0  0  0  0  0  0  0  0  0  0
   -0.1456    0.1657   -4.6886 H   0  0  0  0  0  0  0  0  0  0  0  0
    1.2831    1.0181   -4.0712 H   0  0  0  0  0  0  0  0  0  0  0  0
  1  2  1  0  0  0  0
  2  3  1  0  0  0  0
  2  4  1  0  0  0  0
  2  5  1  0  0  0  0
  5  6  2  0  0  0  0
  5  7  1  0  0  0  0
  7  8  1  0  0  0  0
  7  9  1  0  0  0  0
  9 10  1  0  0  0  0
  9 11  1  0  0  0  0
  9 22  1  0  0  0  0
 11 12  1  0  0  0  0
 11 13  1  0  0  0  0
 11 14  1  0  0  0  0
 14 15  1  0  0  0  0
 14 20  2  0  0  0  0
 15 16  1  0  0  0  0
 15 17  1  0  0  0  0
 17 18  1  0  0  0  0
 17 19  2  0  0  0  0
 19 20  1  0  0  0  0
 20 21  1  0  0  0  0
 22 23  2  0  0  0  0
 22 24  1  0  0  0  0
 24 25  1  0  0  0  0
 24 26  1  0  0  0  0
 26 27  1  0  0  0  0
 26 28  1  0  0  0  0
 26 29  1  0  0  0  0
M  END
$$$$

  -OEChem-01062216083D

 29 29  0     1  0  0  0  0  0999 V2000
   -3.4510   -2.5313    1.1360 H   0  0  0  0  0  0  0  0  0  0  0  0
   -3.3158   -1.5477    0.6771 C   0  0  0  0  0  0  0  0  0  0  0  0
   -3.7218   -0.7893    1.3511 H   0  0  0  0  0  0  0  0  0  0  0  0
   -3.8645   -1.5215   -0.2671 H   0  0  0  0  0  0  0  0  0  0  0  0
   -1.8420   -1.2860    0.4307 C   0  0  0  0  0  0  0  0  0  0  0  0
   -1.0371   -2.1658    0.6761 O   0  0  0  0  0  0  0  0  0  0  0  0
   -1.4623   -0.0844   -0.1414 N   0  0  0  0  0  0  0  0  0  0  0  0
   -2.2412    0.5534   -0.2719 H   0  0  0  0  0  0  0  0  0  0  0  0
   -0.1244    0.5581   -0.0692 C   0  0  1  0  0  0  0  0  0  0  0  0
   -0.3094    1.6326    0.0161 H   0  0  0  0  0  0  0  0  0  0  0  0
    0.7366    0.1953    1.1664 C   0  0  0  0  0  0  0  0  0  0  0  0
    0.9384   -0.8779    1.2106 H   0  0  0  0  0  0  0  0  0  0  0  0
    1.7121    0.6872    1.0937 H   0  0  0  0  0  0  0  0  0  0  0  0
    0.0679    0.6785    2.4287 C   0  0  0  0  0  0  0  0  0  0  0  0
   -0.0133    1.9705    2.8995 N   0  0  0  0  0  0  0  0  0  0  0  0
    0.4082    2.7947    2.4768 H   0  0  0  0  0  0  0  0  0  0  0  0
   -0.7047    1.9523    4.0962 C   0  0  0  0  0  0  0  0  0  0  0  0
   -0.9241    2.8254    4.7040 H   0  0  0  0  0  0  0  0  0  0  0  0
   -1.0621    0.7265    4.3939 N   0  0  0  0  0  0  0  0  0  0  0  0
   -0.5680   -0.0822    3.3742 C   0  0  0  0  0  0  0  0  0  0  0  0
   -0.6813   -1.1614    3.3282 H   0  0  0  0  0  0  0  0  0  0  0  0
    0.6433    0.4055   -1.4028 C   0  0  0  0  0  0  0  0  0  0  0  0
    1.8575    0.2505   -1.4297 O   0  0  0  0  0  0  0  0  0  0  0  0
   -0.0164    0.6398   -2.5970 N   0  0  0  0  0  0  0  0  0  0  0  0
   -1.0302    0.6512   -2.5584 H   0  0  0  0  0  0  0  0  0  0  0  0
    0.6310    0.5224   -3.8987 C   0  0  0  0  0  0  0  0  0  0  0  0
    0.9996   -0.4974   -4.0521 H   0  0  0  0  0  0  0  0  0  0  0  0
   -0.0784    0.7595   -4.6973 H   0  0  0  0  0  0  0  0  0  0  0  0
    1.4749    1.2167   -3.9716 H   0  0  0  0  0  0  0  0  0  0  0  0
  1  2  1  0  0  0  0
  2  3  1  0  0  0  0
  2  4  1  0  0  0  0
  2  5  1  0  0  0  0
  5  6  2  0  0  0  0
  5  7  1  0  0  0  0
  7  8  1  0  0  0  0
  7  9  1  0  0  0  0
  9 10  1  0  0  0  0
  9 11  1  0  0  0  0
  9 22  1  0  0  0  0
 11 12  1  0  0  0  0
 11 13  1  0  0  0  0
 11 14  1  0  0  0  0
 14 15  1  0  0  0  0
 14 20  2  0  0  0  0
 15 16  1  0  0  0  0
 15 17  1  0  0  0  0
 17 18  1  0  0  0  0
 17 19  2  0  0  0  0
 19 20  1  0  0  0  0
 20 21  1  0  0  0  0
 22 23  2  0  0  0  0
 22 24  1  0  0  0  0
 24 25  1  0  0  0  0
 24 26  1  0  0  0  0
 26 27  1  0  0  0  0
 26 28  1  0  0  0  0
 26 29  1  0  0  0  0
M  END
$$$$

  -OEChem-01062216083D

 29 29  0     1  0  0  0  0  0999 V2000
   -3.4827   -2.5487    1.0717 H   0  0  0  0  0  0  0  0  0  0  0  0
   -3.3363   -1.5720    0.6013 C   0  0  0  0  0  0  0  0  0  0  0  0
   -3.7988   -0.8083    1.2314 H   0  0  0  0  0  0  0  0  0  0  0  0
   -3.8236   -1.5763   -0.3765 H   0  0  0  0  0  0  0  0  0  0  0  0
   -1.8547   -1.2857    0.4435 C   0  0  0  0  0  0  0  0  0  0  0  0
   -1.0537   -2.1422    0.7697 O   0  0  0  0  0  0  0  0  0  0  0  0
   -1.4661   -0.0871   -0.1302 N   0  0  0  0  0  0  0  0  0  0  0  0
   -2.2458    0.5296   -0.3337 H   0  0  0  0  0  0  0  0  0  0  0  0
   -0.1316    0.5616   -0.0634 C   0  0  1  0  0  0  0  0  0  0  0  0
   -0.3206    1.6354    0.0226 H   0  0  0  0  0  0  0  0  0  0  0  0
    0.7415    0.2097    1.1658 C   0  0  0  0  0  0  0  0  0  0  0  0
    0.9502   -0.8625    1.2109 H   0  0  0  0  0  0  0  0  0  0  0  0
    1.7133    0.7061    1.0776 H   0  0  0  0  0  0  0  0  0  0  0  0
    0.0848    0.6901    2.4354 C   0  0  0  0  0  0  0  0  0  0  0  0
    0.0005    1.9825    2.9054 N   0  0  0  0  0  0  0  0  0  0  0  0
    0.4061    2.8096    2.4736 H   0  0  0  0  0  0  0  0  0  0  0  0
   -0.6679    1.9606    4.1152 C   0  0  0  0  0  0  0  0  0  0  0  0
   -0.8833    2.8333    4.7251 H   0  0  0  0  0  0  0  0  0  0  0  0
   -1.0076    0.7323    4.4221 N   0  0  0  0  0  0  0  0  0  0  0  0
   -0.5266   -0.0744    3.3940 C   0  0  0  0  0  0  0  0  0  0  0  0
   -0.6285   -1.1550    3.3538 H   0  0  0  0  0  0  0  0  0  0  0  0
    0.6319    0.4034   -1.3987 C   0  0  0  0  0  0  0  0  0  0  0  0
    1.7799   -0.0196   -1.4391 O   0  0  0  0  0  0  0  0  0  0  0  0
    0.0818    0.9197   -2.5599 N   0  0  0  0  0  0  0  0  0  0  0  0
   -0.8919    1.2018   -2.5258 H   0  0  0  0  0  0  0  0  0  0  0  0
    0.7435    0.8418   -3.8576 C   0  0  0  0  0  0  0  0  0  0  0  0
    0.9049   -0.2032   -4.1427 H   0  0  0  0  0  0  0  0  0  0  0  0
    0.1286    1.3200   -4.6260 H   0  0  0  0  0  0  0  0  0  0  0  0
    1.7124    1.3516   -3.8256 H   0  0  0  0  0  0  0  0  0  0  0  0
  1  2  1  0  0  0  0
  2  3  1  0  0  0  0
  2  4  1  0  0  0  0
  2  5  1  0  0  0  0
  5  6  2  0  0  0  0
  5  7  1  0  0  0  0
  7  8  1  0  0  0  0
  7  9  1  0  0  0  0
  9 10  1  0  0  0  0
  9 11  1  0  0  0  0
  9 22  1  0  0  0  0
 11 12  1  0  0  0  0
 11 13  1  0  0  0  0
 11 14  1  0  0  0  0
 14 15  1  0  0  0  0
 14 20  2  0  0  0  0
 15 16  1  0  0  0  0
 15 17  1  0  0  0  0
 17 18  1  0  0  0  0
 17 19  2  0  0  0  0
 19 20  1  0  0  0  0
 20 21  1  0  0  0  0
 22 23  2  0  0  0  0
 22 24  1  0  0  0  0
 24 25  1  0  0  0  0
 24 26  1  0  0  0  0
 26 27  1  0  0  0  0
 26 28  1  0  0  0  0
 26 29  1  0  0  0  0
M  END
$$$$

  -OEChem-01062216083D

 29 29  0     1  0  0  0  0  0999 V2000
   -3.5221   -2.5618    1.0040 H   0  0  0  0  0  0  0  0  0  0  0  0
   -3.3584   -1.6067    0.4966 C   0  0  0  0  0  0  0  0  0  0  0  0
   -3.9025   -0.8274    1.0356 H   0  0  0  0  0  0  0  0  0  0  0  0
   -3.7467   -1.6789   -0.5219 H   0  0  0  0  0  0  0  0  0  0  0  0
   -1.8774   -1.2793    0.4660 C   0  0  0  0  0  0  0  0  0  0  0  0
   -1.0907   -2.1012    0.8984 O   0  0  0  0  0  0  0  0  0  0  0  0
   -1.4759   -0.0842   -0.1070 N   0  0  0  0  0  0  0  0  0  0  0  0
   -2.2455    0.4949   -0.4258 H   0  0  0  0  0  0  0  0  0  0  0  0
   -0.1424    0.5659   -0.0495 C   0  0  1  0  0  0  0  0  0  0  0  0
   -0.3344    1.6385    0.0407 H   0  0  0  0  0  0  0  0  0  0  0  0
    0.7487    0.2227    1.1678 C   0  0  0  0  0  0  0  0  0  0  0  0
    0.9573   -0.8499    1.2124 H   0  0  0  0  0  0  0  0  0  0  0  0
    1.7188    0.7181    1.0592 H   0  0  0  0  0  0  0  0  0  0  0  0
    0.1104    0.7033    2.4477 C   0  0  0  0  0  0  0  0  0  0  0  0
    0.0294    1.9976    2.9140 N   0  0  0  0  0  0  0  0  0  0  0  0
    0.4216    2.8250    2.4709 H   0  0  0  0  0  0  0  0  0  0  0  0
   -0.6136    1.9784    4.1374 C   0  0  0  0  0  0  0  0  0  0  0  0
   -0.8204    2.8530    4.7477 H   0  0  0  0  0  0  0  0  0  0  0  0
   -0.9404    0.7505    4.4577 N   0  0  0  0  0  0  0  0  0  0  0  0
   -0.4788   -0.0591    3.4224 C   0  0  0  0  0  0  0  0  0  0  0  0
   -0.5754   -1.1404    3.3916 H   0  0  0  0  0  0  0  0  0  0  0  0
    0.6131    0.4048   -1.3874 C   0  0  0  0  0  0  0  0  0  0  0  0
    1.6223   -0.2806   -1.4812 O   0  0  0  0  0  0  0  0  0  0  0  0
    0.2326    1.1697   -2.4775 N   0  0  0  0  0  0  0  0  0  0  0  0
   -0.6145    1.7216   -2.3934 H   0  0  0  0  0  0  0  0  0  0  0  0
    0.9113    1.1157   -3.7673 C   0  0  0  0  0  0  0  0  0  0  0  0
    0.8577    0.1051   -4.1858 H   0  0  0  0  0  0  0  0  0  0  0  0
    0.4408    1.8079   -4.4723 H   0  0  0  0  0  0  0  0  0  0  0  0
    1.9642    1.3967   -3.6588 H   0  0  0  0  0  0  0  0  0  0  0  0
  1  2  1  0  0  0  0
  2  3  1  0  0  0  0
  2  4  1  0  0  0  0
  2  5  1  0  0  0  0
  5  6  2  0  0  0  0
  5  7  1  0  0  0  0
  7  8  1  0  0  0  0
  7  9  1  0  0  0  0
  9 10  1  0  0  0  0
  9 11  1  0  0  0  0
  9 22  1  0  0  0  0
 11 12  1  0  0  0  0
 11 13  1  0  0  0  0
 11 14  1  0  0  0  0
 14 15  1  0  0  0  0
 14 20  2  0  0  0  0
 15 16  1  0  0  0  0
 15 17  1  0  0  0  0
 17 18  1  0  0  0  0
 17 19  2  0  0  0  0
 19 20  1  0  0  0  0
 20 21  1  0  0  0  0
 22 23  2  0  0  0  0
 22 24  1  0  0  0  0
 24 25  1  0  0  0  0
 24 26  1  0  0  0  0
 26 27  1  0  0  0  0
 26 28  1  0  0  0  0
 26 29  1  0  0  0  0
M  END
$$$$

  -OEChem-01062216083D

 29 29  0     1  0  0  0  0  0999 V2000
   -3.5437   -2.5804    0.9368 H   0  0  0  0  0  0  0  0  0  0  0  0
   -3.3714   -1.6287    0.4257 C   0  0  0  0  0  0  0  0  0  0  0  0
   -3.9665   -0.8555    0.9172 H   0  0  0  0  0  0  0  0  0  0  0  0
   -3.6933   -1.7257   -0.6137 H   0  0  0  0  0  0  0  0  0  0  0  0
   -1.8994   -1.2647    0.4811 C   0  0  0  0  0  0  0  0  0  0  0  0
   -1.1259   -2.0550    0.9898 O   0  0  0  0  0  0  0  0  0  0  0  0
   -1.4929   -0.0720   -0.0943 N   0  0  0  0  0  0  0  0  0  0  0  0
   -2.2474    0.4680   -0.5045 H   0  0  0  0  0  0  0  0  0  0  0  0
   -0.1614    0.5814   -0.0422 C   0  0  1  0  0  0  0  0  0  0  0  0
   -0.3598    1.6524    0.0529 H   0  0  0  0  0  0  0  0  0  0  0  0
    0.7463    0.2425    1.1626 C   0  0  0  0  0  0  0  0  0  0  0  0
    0.9592   -0.8299    1.2018 H   0  0  0  0  0  0  0  0  0  0  0  0
    1.7132    0.7408    1.0394 H   0  0  0  0  0  0  0  0  0  0  0  0
    0.1262    0.7151    2.4549 C   0  0  0  0  0  0  0  0  0  0  0  0
    0.0463    2.0080    2.9257 N   0  0  0  0  0  0  0  0  0  0  0  0
    0.4239    2.8389    2.4772 H   0  0  0  0  0  0  0  0  0  0  0  0
   -0.5686    1.9823    4.1632 C   0  0  0  0  0  0  0  0  0  0  0  0
   -0.7668    2.8539    4.7807 H   0  0  0  0  0  0  0  0  0  0  0  0
   -0.8788    0.7519    4.4891 N   0  0  0  0  0  0  0  0  0  0  0  0
   -0.4366   -0.0528    3.4414 C   0  0  0  0  0  0  0  0  0  0  0  0
   -0.5250   -1.1348    3.4129 H   0  0  0  0  0  0  0  0  0  0  0  0
    0.5944    0.4191   -1.3789 C   0  0  0  0  0  0  0  0  0  0  0  0
    1.4041   -0.4806   -1.5534 O   0  0  0  0  0  0  0  0  0  0  0  0
    0.4407    1.3720   -2.3721 N   0  0  0  0  0  0  0  0  0  0  0  0
   -0.2338    2.1143   -2.2177 H   0  0  0  0  0  0  0  0  0  0  0  0
    1.1492    1.3189   -3.6462 C   0  0  0  0  0  0  0  0  0  0  0  0
    0.8902    0.4044   -4.1904 H   0  0  0  0  0  0  0  0  0  0  0  0
    0.8794    2.1790   -4.2665 H   0  0  0  0  0  0  0  0  0  0  0  0
    2.2322    1.3371   -3.4842 H   0  0  0  0  0  0  0  0  0  0  0  0
  1  2  1  0  0  0  0
  2  3  1  0  0  0  0
  2  4  1  0  0  0  0
  2  5  1  0  0  0  0
  5  6  2  0  0  0  0
  5  7  1  0  0  0  0
  7  8  1  0  0  0  0
  7  9  1  0  0  0  0
  9 10  1  0  0  0  0
  9 11  1  0  0  0  0
  9 22  1  0  0  0  0
 11 12  1  0  0  0  0
 11 13  1  0  0  0  0
 11 14  1  0  0  0  0
 14 15  1  0  0  0  0
 14 20  2  0  0  0  0
 15 16  1  0  0  0  0
 15 17  1  0  0  0  0
 17 18  1  0  0  0  0
 17 19  2  0  0  0  0
 19 20  1  0  0  0  0
 20 21  1  0  0  0  0
 22 23  2  0  0  0  0
 22 24  1  0  0  0  0
 24 25  1  0  0  0  0
 24 26  1  0  0  0  0
 26 27  1  0  0  0  0
 26 28  1  0  0  0  0
 26 29  1  0  0  0  0
M  END
$$$$

  -OEChem-01062216083D

 29 29  0     1  0  0  0  0  0999 V2000
   -3.5521   -2.5924    0.8846 H   0  0  0  0  0  0  0  0  0  0  0  0
   -3.3743   -1.6424    0.3722 C   0  0  0  0  0  0  0  0  0  0  0  0
   -4.0043   -0.8754    0.8288 H   0  0  0  0  0  0  0  0  0  0  0  0
   -3.6472   -1.7546   -0.6796 H   0  0  0  0  0  0  0  0  0  0  0  0
   -1.9132   -1.2508    0.4898 C   0  0  0  0  0  0  0  0  0  0  0  0
   -1.1546   -2.0128    1.0609 O   0  0  0  0  0  0  0  0  0  0  0  0
   -1.5037   -0.0592   -0.0858 N   0  0  0  0  0  0  0  0  0  0  0  0
   -2.2386    0.4414   -0.5744 H   0  0  0  0  0  0  0  0  0  0  0  0
   -0.1735    0.5957   -0.0347 C   0  0  1  0  0  0  0  0  0  0  0  0
   -0.3789    1.6648    0.0641 H   0  0  0  0  0  0  0  0  0  0  0  0
    0.7458    0.2585    1.1603 C   0  0  0  0  0  0  0  0  0  0  0  0
    0.9603   -0.8140    1.1928 H   0  0  0  0  0  0  0  0  0  0  0  0
    1.7102    0.7595    1.0300 H   0  0  0  0  0  0  0  0  0  0  0  0
    0.1368    0.7240    2.4611 C   0  0  0  0  0  0  0  0  0  0  0  0
    0.0556    2.0154    2.9365 N   0  0  0  0  0  0  0  0  0  0  0  0
    0.4124    2.8512    2.4805 H   0  0  0  0  0  0  0  0  0  0  0  0
   -0.5401    1.9829    4.1832 C   0  0  0  0  0  0  0  0  0  0  0  0
   -0.7372    2.8523    4.8039 H   0  0  0  0  0  0  0  0  0  0  0  0
   -0.8333    0.7497    4.5133 N   0  0  0  0  0  0  0  0  0  0  0  0
   -0.4027   -0.0496    3.4567 C   0  0  0  0  0  0  0  0  0  0  0  0
   -0.4804   -1.1324    3.4299 H   0  0  0  0  0  0  0  0  0  0  0  0
    0.5873    0.4361   -1.3679 C   0  0  0  0  0  0  0  0  0  0  0  0
    1.1346   -0.6153   -1.6666 O   0  0  0  0  0  0  0  0  0  0  0  0
    0.6961    1.5111   -2.2343 N   0  0  0  0  0  0  0  0  0  0  0  0
    0.2394    2.3798   -1.9755 H   0  0  0  0  0  0  0  0  0  0  0  0
    1.4206    1.4468   -3.4987 C   0  0  0  0  0  0  0  0  0  0  0  0
    0.9751    0.6942   -4.1578 H   0  0  0  0  0  0  0  0  0  0  0  0
    1.3846    2.4154   -4.0063 H   0  0  0  0  0  0  0  0  0  0  0  0
    2.4704    1.1865   -3.3263 H   0  0  0  0  0  0  0  0  0  0  0  0
  1  2  1  0  0  0  0
  2  3  1  0  0  0  0
  2  4  1  0  0  0  0
  2  5  1  0  0  0  0
  5  6  2  0  0  0  0
  5  7  1  0  0  0  0
  7  8  1  0  0  0  0
  7  9  1  0  0  0  0
  9 10  1  0  0  0  0
  9 11  1  0  0  0  0
  9 22  1  0  0  0  0
 11 12  1  0  0  0  0
 11 13  1  0  0  0  0
 11 14  1  0  0  0  0
 14 15  1  0  0  0  0
 14 20  2  0  0  0  0
 15 16  1  0  0  0  0
 15 17  1  0  0  0  0
 17 18  1  0  0  0  0
 17 19  2  0  0  0  0
 19 20  1  0  0  0  0
 20 21  1  0  0  0  0
 22 23  2  0  0  0  0
 22 24  1  0  0  0  0
 24 25  1  0  0  0  0
 24 26  1  0  0  0  0
 26 27  1  0  0  0  0
 26 28  1  0  0  0  0
 26 29  1  0  0  0  0
M  END
$$$$

  -OEChem-01062216083D

 29 29  0     1  0  0  0  0  0999 V2000
   -3.5536   -2.6243    0.7923 H   0  0  0  0  0  0  0  0  0  0  0  0
   -3.3726   -1.6661    0.2968 C   0  0  0  0  0  0  0  0  0  0  0  0
   -4.0496   -0.9200    0.7196 H   0  0  0  0  0  0  0  0  0  0  0  0
   -3.5803   -1.7779   -0.7701 H   0  0  0  0  0  0  0  0  0  0  0  0
   -1.9318   -1.2357    0.5012 C   0  0  0  0  0  0  0  0  0  0  0  0
   -1.1937   -1.9684    1.1349 O   0  0  0  0  0  0  0  0  0  0  0  0
   -1.5153   -0.0456   -0.0723 N   0  0  0  0  0  0  0  0  0  0  0  0
   -2.2179    0.4090   -0.6461 H   0  0  0  0  0  0  0  0  0  0  0  0
   -0.1815    0.6011   -0.0195 C   0  0  1  0  0  0  0  0  0  0  0  0
   -0.3893    1.6700    0.0781 H   0  0  0  0  0  0  0  0  0  0  0  0
    0.7438    0.2670    1.1700 C   0  0  0  0  0  0  0  0  0  0  0  0
    0.9529   -0.8065    1.2018 H   0  0  0  0  0  0  0  0  0  0  0  0
    1.7088    0.7646    1.0321 H   0  0  0  0  0  0  0  0  0  0  0  0
    0.1489    0.7357    2.4765 C   0  0  0  0  0  0  0  0  0  0  0  0
    0.0762    2.0291    2.9491 N   0  0  0  0  0  0  0  0  0  0  0  0
    0.4213    2.8643    2.4833 H   0  0  0  0  0  0  0  0  0  0  0  0
   -0.4995    2.0019    4.2053 C   0  0  0  0  0  0  0  0  0  0  0  0
   -0.6877    2.8738    4.8252 H   0  0  0  0  0  0  0  0  0  0  0  0
   -0.7849    0.7702    4.5461 N   0  0  0  0  0  0  0  0  0  0  0  0
   -0.3737   -0.0335    3.4849 C   0  0  0  0  0  0  0  0  0  0  0  0
   -0.4495   -1.1166    3.4664 H   0  0  0  0  0  0  0  0  0  0  0  0
    0.5830    0.4420   -1.3502 C   0  0  0  0  0  0  0  0  0  0  0  0
    0.8244   -0.6628   -1.8149 O   0  0  0  0  0  0  0  0  0  0  0  0
    0.9729    1.5635   -2.0630 N   0  0  0  0  0  0  0  0  0  0  0  0
    0.7641    2.4749   -1.6682 H   0  0  0  0  0  0  0  0  0  0  0  0
    1.6942    1.4945   -3.3291 C   0  0  0  0  0  0  0  0  0  0  0  0
    1.1022    0.9596   -4.0794 H   0  0  0  0  0  0  0  0  0  0  0  0
    1.8984    2.5020   -3.7043 H   0  0  0  0  0  0  0  0  0  0  0  0
    2.6491    0.9742   -3.1985 H   0  0  0  0  0  0  0  0  0  0  0  0
  1  2  1  0  0  0  0
  2  3  1  0  0  0  0
  2  4  1  0  0  0  0
  2  5  1  0  0  0  0
  5  6  2  0  0  0  0
  5  7  1  0  0  0  0
  7  8  1  0  0  0  0
  7  9  1  0  0  0  0
  9 10  1  0  0  0  0
  9 11  1  0  0  0  0
  9 22  1  0  0  0  0
 11 12  1  0  0  0  0
 11 13  1  0  0  0  0
 11 14  1  0  0  0  0
 14 15  1  0  0  0  0
 14 20  2  0  0  0  0
 15 16  1  0  0  0  0
 15 17  1  0  0  0  0
 17 18  1  0  0  0  0
 17 19  2  0  0  0  0
 19 20  1  0  0  0  0
 20 21  1  0  0  0  0
 22 23  2  0  0  0  0
 22 24  1  0  0  0  0
 24 25  1  0  0  0  0
 24 26  1  0  0  0  0
 26 27  1  0  0  0  0
 26 28  1  0  0  0  0
 26 29  1  0  0  0  0
M  END
$$$$

  -OEChem-01062216083D

 29 29  0     1  0  0  0  0  0999 V2000
   -3.5531   -2.6304    0.7666 H   0  0  0  0  0  0  0  0  0  0  0  0
   -3.3675   -1.6742    0.2689 C   0  0  0  0  0  0  0  0  0  0  0  0
   -4.0595   -0.9300    0.6698 H   0  0  0  0  0  0  0  0  0  0  0  0
   -3.5484   -1.7946   -0.8018 H   0  0  0  0  0  0  0  0  0  0  0  0
   -1.9359   -1.2309    0.5056 C   0  0  0  0  0  0  0  0  0  0  0  0
   -1.2065   -1.9538    1.1612 O   0  0  0  0  0  0  0  0  0  0  0  0
   -1.5146   -0.0414   -0.0648 N   0  0  0  0  0  0  0  0  0  0  0  0
   -2.1922    0.3836   -0.6896 H   0  0  0  0  0  0  0  0  0  0  0  0
   -0.1766    0.5962   -0.0106 C   0  0  1  0  0  0  0  0  0  0  0  0
   -0.3835    1.6656    0.0830 H   0  0  0  0  0  0  0  0  0  0  0  0
    0.7464    0.2621    1.1810 C   0  0  0  0  0  0  0  0  0  0  0  0
    0.9500   -0.8123    1.2175 H   0  0  0  0  0  0  0  0  0  0  0  0
    1.7139    0.7543    1.0432 H   0  0  0  0  0  0  0  0  0  0  0  0
    0.1536    0.7396    2.4853 C   0  0  0  0  0  0  0  0  0  0  0  0
    0.0871    2.0352    2.9530 N   0  0  0  0  0  0  0  0  0  0  0  0
    0.4266    2.8686    2.4801 H   0  0  0  0  0  0  0  0  0  0  0  0
   -0.4882    2.0156    4.2097 C   0  0  0  0  0  0  0  0  0  0  0  0
   -0.6750    2.8911    4.8248 H   0  0  0  0  0  0  0  0  0  0  0  0
   -0.7752    0.7863    4.5572 N   0  0  0  0  0  0  0  0  0  0  0  0
   -0.3698   -0.0232    3.4983 C   0  0  0  0  0  0  0  0  0  0  0  0
   -0.4493   -1.1061    3.4852 H   0  0  0  0  0  0  0  0  0  0  0  0
    0.5914    0.4398   -1.3408 C   0  0  0  0  0  0  0  0  0  0  0  0
    0.5358   -0.5966   -1.9882 O   0  0  0  0  0  0  0  0  0  0  0  0
    1.2563    1.5258   -1.8851 N   0  0  0  0  0  0  0  0  0  0  0  0
    1.2908    2.3828   -1.3424 H   0  0  0  0  0  0  0  0  0  0  0  0
    1.9716    1.4698   -3.1552 C   0  0  0  0  0  0  0  0  0  0  0  0
    1.2885    1.2039   -3.9689 H   0  0  0  0  0  0  0  0  0  0  0  0
    2.4166    2.4432   -3.3828 H   0  0  0  0  0  0  0  0  0  0  0  0
    2.7733    0.7249   -3.1109 H   0  0  0  0  0  0  0  0  0  0  0  0
  1  2  1  0  0  0  0
  2  3  1  0  0  0  0
  2  4  1  0  0  0  0
  2  5  1  0  0  0  0
  5  6  2  0  0  0  0
  5  7  1  0  0  0  0
  7  8  1  0  0  0  0
  7  9  1  0  0  0  0
  9 10  1  0  0  0  0
  9 11  1  0  0  0  0
  9 22  1  0  0  0  0
 11 12  1  0  0  0  0
 11 13  1  0  0  0  0
 11 14  1  0  0  0  0
 14 15  1  0  0  0  0
 14 20  2  0  0  0  0
 15 16  1  0  0  0  0
 15 17  1  0  0  0  0
 17 18  1  0  0  0  0
 17 19  2  0  0  0  0
 19 20  1  0  0  0  0
 20 21  1  0  0  0  0
 22 23  2  0  0  0  0
 22 24  1  0  0  0  0
 24 25  1  0  0  0  0
 24 26  1  0  0  0  0
 26 27  1  0  0  0  0
 26 28  1  0  0  0  0
 26 29  1  0  0  0  0
M  END
$$$$

  -OEChem-01062216083D

 29 29  0     1  0  0  0  0  0999 V2000
   -3.5496   -2.6419    0.7250 H   0  0  0  0  0  0  0  0  0  0  0  0
   -3.3608   -1.6816    0.2368 C   0  0  0  0  0  0  0  0  0  0  0  0
   -4.0721   -0.9465    0.6207 H   0  0  0  0  0  0  0  0  0  0  0  0
   -3.5101   -1.7997   -0.8392 H   0  0  0  0  0  0  0  0  0  0  0  0
   -1.9414   -1.2233    0.5147 C   0  0  0  0  0  0  0  0  0  0  0  0
   -1.2212   -1.9407    1.1869 O   0  0  0  0  0  0  0  0  0  0  0  0
   -1.5132   -0.0345   -0.0505 N   0  0  0  0  0  0  0  0  0  0  0  0
   -2.1636    0.3613   -0.7223 H   0  0  0  0  0  0  0  0  0  0  0  0
   -0.1703    0.5928    0.0027 C   0  0  1  0  0  0  0  0  0  0  0  0
   -0.3694    1.6641    0.0927 H   0  0  0  0  0  0  0  0  0  0  0  0
    0.7487    0.2555    1.1978 C   0  0  0  0  0  0  0  0  0  0  0  0
    0.9427   -0.8202    1.2394 H   0  0  0  0  0  0  0  0  0  0  0  0
    1.7209    0.7390    1.0633 H   0  0  0  0  0  0  0  0  0  0  0  0
    0.1570    0.7429    2.4989 C   0  0  0  0  0  0  0  0  0  0  0  0
    0.0991    2.0406    2.9624 N   0  0  0  0  0  0  0  0  0  0  0  0
    0.4335    2.8718    2.4822 H   0  0  0  0  0  0  0  0  0  0  0  0
   -0.4755    2.0294    4.2196 C   0  0  0  0  0  0  0  0  0  0  0  0
   -0.6579    2.9083    4.8313 H   0  0  0  0  0  0  0  0  0  0  0  0
   -0.7681    0.8029    4.5725 N   0  0  0  0  0  0  0  0  0  0  0  0
   -0.3694   -0.0127    3.5159 C   0  0  0  0  0  0  0  0  0  0  0  0
   -0.4546   -1.0952    3.5077 H   0  0  0  0  0  0  0  0  0  0  0  0
    0.5923    0.4372   -1.3322 C   0  0  0  0  0  0  0  0  0  0  0  0
    0.2926   -0.4357   -2.1367 O   0  0  0  0  0  0  0  0  0  0  0  0
    1.5087    1.4009   -1.7186 N   0  0  0  0  0  0  0  0  0  0  0  0
    1.7484    2.1230   -1.0467 H   0  0  0  0  0  0  0  0  0  0  0  0
    2.2260    1.3580   -2.9883 C   0  0  0  0  0  0  0  0  0  0  0  0
    1.5228    1.3782   -3.8277 H   0  0  0  0  0  0  0  0  0  0  0  0
    2.8925    2.2214   -3.0768 H   0  0  0  0  0  0  0  0  0  0  0  0
    2.8295    0.4466   -3.0566 H   0  0  0  0  0  0  0  0  0  0  0  0
  1  2  1  0  0  0  0
  2  3  1  0  0  0  0
  2  4  1  0  0  0  0
  2  5  1  0  0  0  0
  5  6  2  0  0  0  0
  5  7  1  0  0  0  0
  7  8  1  0  0  0  0
  7  9  1  0  0  0  0
  9 10  1  0  0  0  0
  9 11  1  0  0  0  0
  9 22  1  0  0  0  0
 11 12  1  0  0  0  0
 11 13  1  0  0  0  0
 11 14  1  0  0  0  0
 14 15  1  0  0  0  0
 14 20  2  0  0  0  0
 15 16  1  0  0  0  0
 15 17  1  0  0  0  0
 17 18  1  0  0  0  0
 17 19  2  0  0  0  0
 19 20  1  0  0  0  0
 20 21  1  0  0  0  0
 22 23  2  0  0  0  0
 22 24  1  0  0  0  0
 24 25  1  0  0  0  0
 24 26  1  0  0  0  0
 26 27  1  0  0  0  0
 26 28  1  0  0  0  0
 26 29  1  0  0  0  0
M  END
$$$$

  -OEChem-01062216083D

 29 29  0     1  0  0  0  0  0999 V2000
   -3.5457   -2.6388    0.7145 H   0  0  0  0  0  0  0  0  0  0  0  0
   -3.3531   -1.6760    0.2325 C   0  0  0  0  0  0  0  0  0  0  0  0
   -4.0629   -0.9412    0.6197 H   0  0  0  0  0  0  0  0  0  0  0  0
   -3.5010   -1.7866   -0.8445 H   0  0  0  0  0  0  0  0  0  0  0  0
   -1.9329   -1.2234    0.5161 C   0  0  0  0  0  0  0  0  0  0  0  0
   -1.2122   -1.9505    1.1776 O   0  0  0  0  0  0  0  0  0  0  0  0
   -1.5001   -0.0318   -0.0392 N   0  0  0  0  0  0  0  0  0  0  0  0
   -2.1380    0.3574   -0.7272 H   0  0  0  0  0  0  0  0  0  0  0  0
   -0.1551    0.5913    0.0154 C   0  0  1  0  0  0  0  0  0  0  0  0
   -0.3471    1.6641    0.1064 H   0  0  0  0  0  0  0  0  0  0  0  0
    0.7542    0.2457    1.2179 C   0  0  0  0  0  0  0  0  0  0  0  0
    0.9428   -0.8309    1.2610 H   0  0  0  0  0  0  0  0  0  0  0  0
    1.7306    0.7234    1.0981 H   0  0  0  0  0  0  0  0  0  0  0  0
    0.1529    0.7369    2.5128 C   0  0  0  0  0  0  0  0  0  0  0  0
    0.1002    2.0359    2.9728 N   0  0  0  0  0  0  0  0  0  0  0  0
    0.4407    2.8643    2.4916 H   0  0  0  0  0  0  0  0  0  0  0  0
   -0.4875    2.0319    4.2238 C   0  0  0  0  0  0  0  0  0  0  0  0
   -0.6686    2.9139    4.8311 H   0  0  0  0  0  0  0  0  0  0  0  0
   -0.7940    0.8084    4.5761 N   0  0  0  0  0  0  0  0  0  0  0  0
   -0.3913   -0.0124    3.5251 C   0  0  0  0  0  0  0  0  0  0  0  0
   -0.4861   -1.0940    3.5169 H   0  0  0  0  0  0  0  0  0  0  0  0
    0.5998    0.4416   -1.3262 C   0  0  0  0  0  0  0  0  0  0  0  0
    0.1280   -0.2176   -2.2448 O   0  0  0  0  0  0  0  0  0  0  0  0
    1.7242    1.2091   -1.5813 N   0  0  0  0  0  0  0  0  0  0  0  0
    2.1085    1.7538   -0.8158 H   0  0  0  0  0  0  0  0  0  0  0  0
    2.4504    1.1690   -2.8459 C   0  0  0  0  0  0  0  0  0  0  0  0
    1.7945    1.4545   -3.6752 H   0  0  0  0  0  0  0  0  0  0  0  0
    3.2945    1.8647   -2.8198 H   0  0  0  0  0  0  0  0  0  0  0  0
    2.8372    0.1618   -3.0331 H   0  0  0  0  0  0  0  0  0  0  0  0
  1  2  1  0  0  0  0
  2  3  1  0  0  0  0
  2  4  1  0  0  0  0
  2  5  1  0  0  0  0
  5  6  2  0  0  0  0
  5  7  1  0  0  0  0
  7  8  1  0  0  0  0
  7  9  1  0  0  0  0
  9 10  1  0  0  0  0
  9 11  1  0  0  0  0
  9 22  1  0  0  0  0
 11 12  1  0  0  0  0
 11 13  1  0  0  0  0
 11 14  1  0  0  0  0
 14 15  1  0  0  0  0
 14 20  2  0  0  0  0
 15 16  1  0  0  0  0
 15 17  1  0  0  0  0
 17 18  1  0  0  0  0
 17 19  2  0  0  0  0
 19 20  1  0  0  0  0
 20 21  1  0  0  0  0
 22 23  2  0  0  0  0
 22 24  1  0  0  0  0
 24 25  1  0  0  0  0
 24 26  1  0  0  0  0
 26 27  1  0  0  0  0
 26 28  1  0  0  0  0
 26 29  1  0  0  0  0
M  END
$$$$

  -OEChem-01062216083D

 29 29  0     1  0  0  0  0  0999 V2000
   -3.6642   -2.5518    0.6561 H   0  0  0  0  0  0  0  0  0  0  0  0
   -3.4319   -1.5796    0.2122 C   0  0  0  0  0  0  0  0  0  0  0  0
   -4.0495   -0.8177    0.6934 H   0  0  0  0  0  0  0  0  0  0  0  0
   -3.6684   -1.6134   -0.8541 H   0  0  0  0  0  0  0  0  0  0  0  0
   -1.9632   -1.2531    0.4061 C   0  0  0  0  0  0  0  0  0  0  0  0
   -1.2370   -2.1019    0.8923 O   0  0  0  0  0  0  0  0  0  0  0  0
   -1.4842   -0.0550   -0.0905 N   0  0  0  0  0  0  0  0  0  0  0  0
   -2.1362    0.4350   -0.6983 H   0  0  0  0  0  0  0  0  0  0  0  0
   -0.1286    0.5403   -0.0083 C   0  0  1  0  0  0  0  0  0  0  0  0
   -0.3001    1.5548    0.3625 H   0  0  0  0  0  0  0  0  0  0  0  0
    0.8905   -0.0559    0.9959 C   0  0  0  0  0  0  0  0  0  0  0  0
    1.0518   -1.1158    0.7741 H   0  0  0  0  0  0  0  0  0  0  0  0
    1.8598    0.4379    0.8927 H   0  0  0  0  0  0  0  0  0  0  0  0
    0.4389    0.1184    2.4287 C   0  0  0  0  0  0  0  0  0  0  0  0
    0.4597    1.2863    3.1629 N   0  0  0  0  0  0  0  0  0  0  0  0
    0.7289    2.2076    2.8272 H   0  0  0  0  0  0  0  0  0  0  0  0
    0.0515    1.0021    4.4524 C   0  0  0  0  0  0  0  0  0  0  0  0
   -0.0445    1.7304    5.2527 H   0  0  0  0  0  0  0  0  0  0  0  0
   -0.2003   -0.2767    4.5745 N   0  0  0  0  0  0  0  0  0  0  0  0
    0.0507   -0.8442    3.3274 C   0  0  0  0  0  0  0  0  0  0  0  0
   -0.0282   -1.9049    3.1095 H   0  0  0  0  0  0  0  0  0  0  0  0
    0.4653    0.7609   -1.4212 C   0  0  0  0  0  0  0  0  0  0  0  0
   -0.2371    0.6120   -2.4149 O   0  0  0  0  0  0  0  0  0  0  0  0
    1.7269    1.3068   -1.5921 N   0  0  0  0  0  0  0  0  0  0  0  0
    2.3075    1.4233   -0.7678 H   0  0  0  0  0  0  0  0  0  0  0  0
    2.3054    1.5925   -2.9006 C   0  0  0  0  0  0  0  0  0  0  0  0
    1.6824    2.3073   -3.4485 H   0  0  0  0  0  0  0  0  0  0  0  0
    3.3044    2.0238   -2.7863 H   0  0  0  0  0  0  0  0  0  0  0  0
    2.3901    0.6741   -3.4910 H   0  0  0  0  0  0  0  0  0  0  0  0
  1  2  1  0  0  0  0
  2  3  1  0  0  0  0
  2  4  1  0  0  0  0
  2  5  1  0  0  0  0
  5  6  2  0  0  0  0
  5  7  1  0  0  0  0
  7  8  1  0  0  0  0
  7  9  1  0  0  0  0
  9 10  1  0  0  0  0
  9 11  1  0  0  0  0
  9 22  1  0  0  0  0
 11 12  1  0  0  0  0
 11 13  1  0  0  0  0
 11 14  1  0  0  0  0
 14 15  1  0  0  0  0
 14 20  2  0  0  0  0
 15 16  1  0  0  0  0
 15 17  1  0  0  0  0
 17 18  1  0  0  0  0
 17 19  2  0  0  0  0
 19 20  1  0  0  0  0
 20 21  1  0  0  0  0
 22 23  2  0  0  0  0
 22 24  1  0  0  0  0
 24 25  1  0  0  0  0
 24 26  1  0  0  0  0
 26 27  1  0  0  0  0
 26 28  1  0  0  0  0
 26 29  1  0  0  0  0
M  END
$$$$

  -OEChem-01062216083D

 29 29  0     1  0  0  0  0  0999 V2000
   -3.6520   -2.5378    0.6644 H   0  0  0  0  0  0  0  0  0  0  0  0
   -3.4149   -1.5665    0.2211 C   0  0  0  0  0  0  0  0  0  0  0  0
   -4.0171   -0.7998    0.7142 H   0  0  0  0  0  0  0  0  0  0  0  0
   -3.6674   -1.5925   -0.8417 H   0  0  0  0  0  0  0  0  0  0  0  0
   -1.9396   -1.2576    0.3951 C   0  0  0  0  0  0  0  0  0  0  0  0
   -1.2111   -2.1203    0.8535 O   0  0  0  0  0  0  0  0  0  0  0  0
   -1.4560   -0.0563   -0.0882 N   0  0  0  0  0  0  0  0  0  0  0  0
   -2.1146    0.4609   -0.6658 H   0  0  0  0  0  0  0  0  0  0  0  0
   -0.1017    0.5385    0.0085 C   0  0  1  0  0  0  0  0  0  0  0  0
   -0.2720    1.5530    0.3800 H   0  0  0  0  0  0  0  0  0  0  0  0
    0.9031   -0.0633    1.0237 C   0  0  0  0  0  0  0  0  0  0  0  0
    1.0699   -1.1221    0.8016 H   0  0  0  0  0  0  0  0  0  0  0  0
    1.8720    0.4355    0.9408 H   0  0  0  0  0  0  0  0  0  0  0  0
    0.4282    0.1105    2.4484 C   0  0  0  0  0  0  0  0  0  0  0  0
    0.4399    1.2777    3.1835 N   0  0  0  0  0  0  0  0  0  0  0  0
    0.7222    2.1977    2.8546 H   0  0  0  0  0  0  0  0  0  0  0  0
    0.0023    0.9947    4.4634 C   0  0  0  0  0  0  0  0  0  0  0  0
   -0.1059    1.7233    5.2618 H   0  0  0  0  0  0  0  0  0  0  0  0
   -0.2605   -0.2828    4.5786 N   0  0  0  0  0  0  0  0  0  0  0  0
    0.0144   -0.8509    3.3368 C   0  0  0  0  0  0  0  0  0  0  0  0
   -0.0683   -1.9107    3.1158 H   0  0  0  0  0  0  0  0  0  0  0  0
    0.4888    0.7637   -1.4053 C   0  0  0  0  0  0  0  0  0  0  0  0
   -0.2666    0.8640   -2.3661 O   0  0  0  0  0  0  0  0  0  0  0  0
    1.8362    1.0154   -1.6068 N   0  0  0  0  0  0  0  0  0  0  0  0
    2.4623    0.8911   -0.8175 H   0  0  0  0  0  0  0  0  0  0  0  0
    2.4141    1.2700   -2.9221 C   0  0  0  0  0  0  0  0  0  0  0  0
    1.9444    2.1441   -3.3855 H   0  0  0  0  0  0  0  0  0  0  0  0
    3.4874    1.4636   -2.8333 H   0  0  0  0  0  0  0  0  0  0  0  0
    2.2707    0.4044   -3.5773 H   0  0  0  0  0  0  0  0  0  0  0  0
  1  2  1  0  0  0  0
  2  3  1  0  0  0  0
  2  4  1  0  0  0  0
  2  5  1  0  0  0  0
  5  6  2  0  0  0  0
  5  7  1  0  0  0  0
  7  8  1  0  0  0  0
  7  9  1  0  0  0  0
  9 10  1  0  0  0  0
  9 11  1  0  0  0  0
  9 22  1  0  0  0  0
 11 12  1  0  0  0  0
 11 13  1  0  0  0  0
 11 14  1  0  0  0  0
 14 15  1  0  0  0  0
 14 20  2  0  0  0  0
 15 16  1  0  0  0  0
 15 17  1  0  0  0  0
 17 18  1  0  0  0  0
 17 19  2  0  0  0  0
 19 20  1  0  0  0  0
 20 21  1  0  0  0  0
 22 23  2  0  0  0  0
 22 24  1  0  0  0  0
 24 25  1  0  0  0  0
 24 26  1  0  0  0  0
 26 27  1  0  0  0  0
 26 28  1  0  0  0  0
 26 29  1  0  0  0  0
M  END
$$$$

  -OEChem-01062216083D

 29 29  0     1  0  0  0  0  0999 V2000
   -3.6365   -2.5217    0.7067 H   0  0  0  0  0  0  0  0  0  0  0  0
   -3.4015   -1.5552    0.2518 C   0  0  0  0  0  0  0  0  0  0  0  0
   -3.9802   -0.7795    0.7588 H   0  0  0  0  0  0  0  0  0  0  0  0
   -3.6857   -1.5833   -0.8029 H   0  0  0  0  0  0  0  0  0  0  0  0
   -1.9186   -1.2625    0.3817 C   0  0  0  0  0  0  0  0  0  0  0  0
   -1.1825   -2.1380    0.8028 O   0  0  0  0  0  0  0  0  0  0  0  0
   -1.4359   -0.0591   -0.0974 N   0  0  0  0  0  0  0  0  0  0  0  0
   -2.1108    0.4921   -0.6224 H   0  0  0  0  0  0  0  0  0  0  0  0
   -0.0839    0.5362    0.0135 C   0  0  1  0  0  0  0  0  0  0  0  0
   -0.2561    1.5511    0.3831 H   0  0  0  0  0  0  0  0  0  0  0  0
    0.9098   -0.0661    1.0383 C   0  0  0  0  0  0  0  0  0  0  0  0
    1.0849   -1.1239    0.8179 H   0  0  0  0  0  0  0  0  0  0  0  0
    1.8761    0.4404    0.9659 H   0  0  0  0  0  0  0  0  0  0  0  0
    0.4169    0.1072    2.4565 C   0  0  0  0  0  0  0  0  0  0  0  0
    0.4181    1.2730    3.1932 N   0  0  0  0  0  0  0  0  0  0  0  0
    0.7100    2.1925    2.8708 H   0  0  0  0  0  0  0  0  0  0  0  0
   -0.0427    0.9889    4.4646 C   0  0  0  0  0  0  0  0  0  0  0  0
   -0.1630    1.7159    5.2628 H   0  0  0  0  0  0  0  0  0  0  0  0
   -0.3126   -0.2880    4.5721 N   0  0  0  0  0  0  0  0  0  0  0  0
   -0.0180   -0.8542    3.3342 C   0  0  0  0  0  0  0  0  0  0  0  0
   -0.1047   -1.9124    3.1073 H   0  0  0  0  0  0  0  0  0  0  0  0
    0.5128    0.7600   -1.3963 C   0  0  0  0  0  0  0  0  0  0  0  0
   -0.2324    1.0956   -2.3102 O   0  0  0  0  0  0  0  0  0  0  0  0
    1.8753    0.7105   -1.6415 N   0  0  0  0  0  0  0  0  0  0  0  0
    2.4711    0.3503   -0.9023 H   0  0  0  0  0  0  0  0  0  0  0  0
    2.4568    0.9247   -2.9618 C   0  0  0  0  0  0  0  0  0  0  0  0
    2.1758    1.9094   -3.3502 H   0  0  0  0  0  0  0  0  0  0  0  0
    3.5486    0.8762   -2.9062 H   0  0  0  0  0  0  0  0  0  0  0  0
    2.1096    0.1578   -3.6619 H   0  0  0  0  0  0  0  0  0  0  0  0
  1  2  1  0  0  0  0
  2  3  1  0  0  0  0
  2  4  1  0  0  0  0
  2  5  1  0  0  0  0
  5  6  2  0  0  0  0
  5  7  1  0  0  0  0
  7  8  1  0  0  0  0
  7  9  1  0  0  0  0
  9 10  1  0  0  0  0
  9 11  1  0  0  0  0
  9 22  1  0  0  0  0
 11 12  1  0  0  0  0
 11 13  1  0  0  0  0
 11 14  1  0  0  0  0
 14 15  1  0  0  0  0
 14 20  2  0  0  0  0
 15 16  1  0  0  0  0
 15 17  1  0  0  0  0
 17 18  1  0  0  0  0
 17 19  2  0  0  0  0
 19 20  1  0  0  0  0
 20 21  1  0  0  0  0
 22 23  2  0  0  0  0
 22 24  1  0  0  0  0
 24 25  1  0  0  0  0
 24 26  1  0  0  0  0
 26 27  1  0  0  0  0
 26 28  1  0  0  0  0
 26 29  1  0  0  0  0
M  END
$$$$

  -OEChem-01062216083D

 29 29  0     1  0  0  0  0  0999 V2000
   -3.6211   -2.5143    0.7311 H   0  0  0  0  0  0  0  0  0  0  0  0
   -3.3920   -1.5456    0.2781 C   0  0  0  0  0  0  0  0  0  0  0  0
   -3.9516   -0.7705    0.8072 H   0  0  0  0  0  0  0  0  0  0  0  0
   -3.7045   -1.5628   -0.7687 H   0  0  0  0  0  0  0  0  0  0  0  0
   -1.9042   -1.2637    0.3705 C   0  0  0  0  0  0  0  0  0  0  0  0
   -1.1606   -2.1473    0.7612 O   0  0  0  0  0  0  0  0  0  0  0  0
   -1.4236   -0.0600   -0.1094 N   0  0  0  0  0  0  0  0  0  0  0  0
   -2.1129    0.5174   -0.5849 H   0  0  0  0  0  0  0  0  0  0  0  0
   -0.0743    0.5370    0.0158 C   0  0  1  0  0  0  0  0  0  0  0  0
   -0.2503    1.5524    0.3832 H   0  0  0  0  0  0  0  0  0  0  0  0
    0.9141   -0.0617    1.0465 C   0  0  0  0  0  0  0  0  0  0  0  0
    1.0959   -1.1188    0.8296 H   0  0  0  0  0  0  0  0  0  0  0  0
    1.8782    0.4513    0.9760 H   0  0  0  0  0  0  0  0  0  0  0  0
    0.4092    0.1083    2.4602 C   0  0  0  0  0  0  0  0  0  0  0  0
    0.3991    1.2729    3.1983 N   0  0  0  0  0  0  0  0  0  0  0  0
    0.6954    2.1929    2.8809 H   0  0  0  0  0  0  0  0  0  0  0  0
   -0.0761    0.9850    4.4637 C   0  0  0  0  0  0  0  0  0  0  0  0
   -0.2065    1.7095    5.2623 H   0  0  0  0  0  0  0  0  0  0  0  0
   -0.3453   -0.2927    4.5651 N   0  0  0  0  0  0  0  0  0  0  0  0
   -0.0343   -0.8561    3.3300 C   0  0  0  0  0  0  0  0  0  0  0  0
   -0.1174   -1.9137    3.0986 H   0  0  0  0  0  0  0  0  0  0  0  0
    0.5326    0.7542   -1.3880 C   0  0  0  0  0  0  0  0  0  0  0  0
   -0.1514    1.2967   -2.2481 O   0  0  0  0  0  0  0  0  0  0  0  0
    1.8401    0.4133   -1.6919 N   0  0  0  0  0  0  0  0  0  0  0  0
    2.3451   -0.1443   -1.0094 H   0  0  0  0  0  0  0  0  0  0  0  0
    2.4152    0.5721   -3.0227 C   0  0  0  0  0  0  0  0  0  0  0  0
    2.3605    1.6181   -3.3426 H   0  0  0  0  0  0  0  0  0  0  0  0
    3.4667    0.2691   -3.0186 H   0  0  0  0  0  0  0  0  0  0  0  0
    1.8781   -0.0470   -3.7490 H   0  0  0  0  0  0  0  0  0  0  0  0
  1  2  1  0  0  0  0
  2  3  1  0  0  0  0
  2  4  1  0  0  0  0
  2  5  1  0  0  0  0
  5  6  2  0  0  0  0
  5  7  1  0  0  0  0
  7  8  1  0  0  0  0
  7  9  1  0  0  0  0
  9 10  1  0  0  0  0
  9 11  1  0  0  0  0
  9 22  1  0  0  0  0
 11 12  1  0  0  0  0
 11 13  1  0  0  0  0
 11 14  1  0  0  0  0
 14 15  1  0  0  0  0
 14 20  2  0  0  0  0
 15 16  1  0  0  0  0
 15 17  1  0  0  0  0
 17 18  1  0  0  0  0
 17 19  2  0  0  0  0
 19 20  1  0  0  0  0
 20 21  1  0  0  0  0
 22 23  2  0  0  0  0
 22 24  1  0  0  0  0
 24 25  1  0  0  0  0
 24 26  1  0  0  0  0
 26 27  1  0  0  0  0
 26 28  1  0  0  0  0
 26 29  1  0  0  0  0
M  END
$$$$

  -OEChem-01062216083D

 29 29  0     1  0  0  0  0  0999 V2000
   -3.6063   -2.5132    0.7526 H   0  0  0  0  0  0  0  0  0  0  0  0
   -3.3868   -1.5367    0.3118 C   0  0  0  0  0  0  0  0  0  0  0  0
   -3.9246   -0.7699    0.8743 H   0  0  0  0  0  0  0  0  0  0  0  0
   -3.7334   -1.5315   -0.7244 H   0  0  0  0  0  0  0  0  0  0  0  0
   -1.8953   -1.2642    0.3618 C   0  0  0  0  0  0  0  0  0  0  0  0
   -1.1440   -2.1542    0.7221 O   0  0  0  0  0  0  0  0  0  0  0  0
   -1.4191   -0.0617   -0.1253 N   0  0  0  0  0  0  0  0  0  0  0  0
   -2.1226    0.5367   -0.5512 H   0  0  0  0  0  0  0  0  0  0  0  0
   -0.0723    0.5374    0.0097 C   0  0  1  0  0  0  0  0  0  0  0  0
   -0.2521    1.5538    0.3735 H   0  0  0  0  0  0  0  0  0  0  0  0
    0.9135   -0.0572    1.0439 C   0  0  0  0  0  0  0  0  0  0  0  0
    1.1005   -1.1139    0.8299 H   0  0  0  0  0  0  0  0  0  0  0  0
    1.8757    0.4596    0.9710 H   0  0  0  0  0  0  0  0  0  0  0  0
    0.4026    0.1097    2.4552 C   0  0  0  0  0  0  0  0  0  0  0  0
    0.3845    1.2731    3.1945 N   0  0  0  0  0  0  0  0  0  0  0  0
    0.6826    2.1938    2.8806 H   0  0  0  0  0  0  0  0  0  0  0  0
   -0.0958    0.9815    4.4573 C   0  0  0  0  0  0  0  0  0  0  0  0
   -0.2297    1.7040    5.2574 H   0  0  0  0  0  0  0  0  0  0  0  0
   -0.3652   -0.2968    4.5538 N   0  0  0  0  0  0  0  0  0  0  0  0
   -0.0459   -0.8570    3.3194 C   0  0  0  0  0  0  0  0  0  0  0  0
   -0.1280   -1.9138    3.0838 H   0  0  0  0  0  0  0  0  0  0  0  0
    0.5487    0.7449   -1.3863 C   0  0  0  0  0  0  0  0  0  0  0  0
   -0.0234    1.4784   -2.1832 O   0  0  0  0  0  0  0  0  0  0  0  0
    1.7355    0.1370   -1.7583 N   0  0  0  0  0  0  0  0  0  0  0  0
    2.1003   -0.5793   -1.1364 H   0  0  0  0  0  0  0  0  0  0  0  0
    2.2976    0.2452   -3.0994 C   0  0  0  0  0  0  0  0  0  0  0  0
    2.4805    1.2942   -3.3556 H   0  0  0  0  0  0  0  0  0  0  0  0
    3.2489   -0.2928   -3.1548 H   0  0  0  0  0  0  0  0  0  0  0  0
    1.6124   -0.1839   -3.8378 H   0  0  0  0  0  0  0  0  0  0  0  0
  1  2  1  0  0  0  0
  2  3  1  0  0  0  0
  2  4  1  0  0  0  0
  2  5  1  0  0  0  0
  5  6  2  0  0  0  0
  5  7  1  0  0  0  0
  7  8  1  0  0  0  0
  7  9  1  0  0  0  0
  9 10  1  0  0  0  0
  9 11  1  0  0  0  0
  9 22  1  0  0  0  0
 11 12  1  0  0  0  0
 11 13  1  0  0  0  0
 11 14  1  0  0  0  0
 14 15  1  0  0  0  0
 14 20  2  0  0  0  0
 15 16  1  0  0  0  0
 15 17  1  0  0  0  0
 17 18  1  0  0  0  0
 17 19  2  0  0  0  0
 19 20  1  0  0  0  0
 20 21  1  0  0  0  0
 22 23  2  0  0  0  0
 22 24  1  0  0  0  0
 24 25  1  0  0  0  0
 24 26  1  0  0  0  0
 26 27  1  0  0  0  0
 26 28  1  0  0  0  0
 26 29  1  0  0  0  0
M  END
$$$$

  -OEChem-01062216083D

 29 29  0     1  0  0  0  0  0999 V2000
   -3.5911   -2.4940    0.8362 H   0  0  0  0  0  0  0  0  0  0  0  0
   -3.3827   -1.5237    0.3767 C   0  0  0  0  0  0  0  0  0  0  0  0
   -3.8857   -0.7467    0.9571 H   0  0  0  0  0  0  0  0  0  0  0  0
   -3.7776   -1.5234   -0.6421 H   0  0  0  0  0  0  0  0  0  0  0  0
   -1.8877   -1.2672    0.3541 C   0  0  0  0  0  0  0  0  0  0  0  0
   -1.1268   -2.1690    0.6623 O   0  0  0  0  0  0  0  0  0  0  0  0
   -1.4201   -0.0667   -0.1459 N   0  0  0  0  0  0  0  0  0  0  0  0
   -2.1421    0.5581   -0.4953 H   0  0  0  0  0  0  0  0  0  0  0  0
   -0.0742    0.5332   -0.0062 C   0  0  1  0  0  0  0  0  0  0  0  0
   -0.2551    1.5508    0.3539 H   0  0  0  0  0  0  0  0  0  0  0  0
    0.9110   -0.0599    1.0286 C   0  0  0  0  0  0  0  0  0  0  0  0
    1.1018   -1.1161    0.8173 H   0  0  0  0  0  0  0  0  0  0  0  0
    1.8727    0.4580    0.9532 H   0  0  0  0  0  0  0  0  0  0  0  0
    0.3944    0.1062    2.4376 C   0  0  0  0  0  0  0  0  0  0  0  0
    0.3702    1.2686    3.1782 N   0  0  0  0  0  0  0  0  0  0  0  0
    0.6728    2.1895    2.8685 H   0  0  0  0  0  0  0  0  0  0  0  0
   -0.1213    0.9750    4.4360 C   0  0  0  0  0  0  0  0  0  0  0  0
   -0.2619    1.6967    5.2355 H   0  0  0  0  0  0  0  0  0  0  0  0
   -0.3927   -0.3035    4.5278 N   0  0  0  0  0  0  0  0  0  0  0  0
   -0.0616   -0.8620    3.2959 C   0  0  0  0  0  0  0  0  0  0  0  0
   -0.1435   -1.9180    3.0568 H   0  0  0  0  0  0  0  0  0  0  0  0
    0.5610    0.7297   -1.3949 C   0  0  0  0  0  0  0  0  0  0  0  0
    0.1574    1.6366   -2.1118 O   0  0  0  0  0  0  0  0  0  0  0  0
    1.5658   -0.1058   -1.8495 N   0  0  0  0  0  0  0  0  0  0  0  0
    1.7493   -0.9407   -1.2987 H   0  0  0  0  0  0  0  0  0  0  0  0
    2.1208   -0.0222   -3.1948 C   0  0  0  0  0  0  0  0  0  0  0  0
    2.5326    0.9757   -3.3790 H   0  0  0  0  0  0  0  0  0  0  0  0
    2.9255   -0.7536   -3.3178 H   0  0  0  0  0  0  0  0  0  0  0  0
    1.3467   -0.2275   -3.9416 H   0  0  0  0  0  0  0  0  0  0  0  0
  1  2  1  0  0  0  0
  2  3  1  0  0  0  0
  2  4  1  0  0  0  0
  2  5  1  0  0  0  0
  5  6  2  0  0  0  0
  5  7  1  0  0  0  0
  7  8  1  0  0  0  0
  7  9  1  0  0  0  0
  9 10  1  0  0  0  0
  9 11  1  0  0  0  0
  9 22  1  0  0  0  0
 11 12  1  0  0  0  0
 11 13  1  0  0  0  0
 11 14  1  0  0  0  0
 14 15  1  0  0  0  0
 14 20  2  0  0  0  0
 15 16  1  0  0  0  0
 15 17  1  0  0  0  0
 17 18  1  0  0  0  0
 17 19  2  0  0  0  0
 19 20  1  0  0  0  0
 20 21  1  0  0  0  0
 22 23  2  0  0  0  0
 22 24  1  0  0  0  0
 24 25  1  0  0  0  0
 24 26  1  0  0  0  0
 26 27  1  0  0  0  0
 26 28  1  0  0  0  0
 26 29  1  0  0  0  0
M  END
$$$$

  -OEChem-01062216083D

 29 29  0     1  0  0  0  0  0999 V2000
   -3.5786   -2.4926    0.8862 H   0  0  0  0  0  0  0  0  0  0  0  0
   -3.3825   -1.5136    0.4396 C   0  0  0  0  0  0  0  0  0  0  0  0
   -3.8505   -0.7462    1.0609 H   0  0  0  0  0  0  0  0  0  0  0  0
   -3.8246   -1.4864   -0.5592 H   0  0  0  0  0  0  0  0  0  0  0  0
   -1.8880   -1.2687    0.3523 C   0  0  0  0  0  0  0  0  0  0  0  0
   -1.1195   -2.1791    0.6129 O   0  0  0  0  0  0  0  0  0  0  0  0
   -1.4303   -0.0716   -0.1644 N   0  0  0  0  0  0  0  0  0  0  0  0
   -2.1646    0.5676   -0.4573 H   0  0  0  0  0  0  0  0  0  0  0  0
   -0.0853    0.5311   -0.0235 C   0  0  1  0  0  0  0  0  0  0  0  0
   -0.2672    1.5502    0.3328 H   0  0  0  0  0  0  0  0  0  0  0  0
    0.9038   -0.0587    1.0079 C   0  0  0  0  0  0  0  0  0  0  0  0
    1.0998   -1.1137    0.7952 H   0  0  0  0  0  0  0  0  0  0  0  0
    1.8633    0.4632    0.9293 H   0  0  0  0  0  0  0  0  0  0  0  0
    0.3879    0.1042    2.4172 C   0  0  0  0  0  0  0  0  0  0  0  0
    0.3595    1.2658    3.1587 N   0  0  0  0  0  0  0  0  0  0  0  0
    0.6634    2.1871    2.8510 H   0  0  0  0  0  0  0  0  0  0  0  0
   -0.1331    0.9696    4.4155 C   0  0  0  0  0  0  0  0  0  0  0  0
   -0.2754    1.6895    5.2166 H   0  0  0  0  0  0  0  0  0  0  0  0
   -0.4040   -0.3095    4.5042 N   0  0  0  0  0  0  0  0  0  0  0  0
   -0.0681   -0.8661    3.2727 C   0  0  0  0  0  0  0  0  0  0  0  0
   -0.1488   -1.9216    3.0303 H   0  0  0  0  0  0  0  0  0  0  0  0
    0.5593    0.7118   -1.4077 C   0  0  0  0  0  0  0  0  0  0  0  0
    0.3747    1.7496   -2.0299 O   0  0  0  0  0  0  0  0  0  0  0  0
    1.3312   -0.2948   -1.9585 N   0  0  0  0  0  0  0  0  0  0  0  0
    1.3198   -1.1921   -1.4783 H   0  0  0  0  0  0  0  0  0  0  0  0
    1.8888   -0.2256   -3.3032 C   0  0  0  0  0  0  0  0  0  0  0  0
    2.5225    0.6612   -3.4104 H   0  0  0  0  0  0  0  0  0  0  0  0
    2.4999   -1.1106   -3.5050 H   0  0  0  0  0  0  0  0  0  0  0  0
    1.0875   -0.1787   -4.0481 H   0  0  0  0  0  0  0  0  0  0  0  0
  1  2  1  0  0  0  0
  2  3  1  0  0  0  0
  2  4  1  0  0  0  0
  2  5  1  0  0  0  0
  5  6  2  0  0  0  0
  5  7  1  0  0  0  0
  7  8  1  0  0  0  0
  7  9  1  0  0  0  0
  9 10  1  0  0  0  0
  9 11  1  0  0  0  0
  9 22  1  0  0  0  0
 11 12  1  0  0  0  0
 11 13  1  0  0  0  0
 11 14  1  0  0  0  0
 14 15  1  0  0  0  0
 14 20  2  0  0  0  0
 15 16  1  0  0  0  0
 15 17  1  0  0  0  0
 17 18  1  0  0  0  0
 17 19  2  0  0  0  0
 19 20  1  0  0  0  0
 20 21  1  0  0  0  0
 22 23  2  0  0  0  0
 22 24  1  0  0  0  0
 24 25  1  0  0  0  0
 24 26  1  0  0  0  0
 26 27  1  0  0  0  0
 26 28  1  0  0  0  0
 26 29  1  0  0  0  0
M  END
$$$$

  -OEChem-01062216083D

 29 29  0     1  0  0  0  0  0999 V2000
   -3.5611   -2.4946    0.9432 H   0  0  0  0  0  0  0  0  0  0  0  0
   -3.3810   -1.5022    0.5199 C   0  0  0  0  0  0  0  0  0  0  0  0
   -3.8026   -0.7530    1.1944 H   0  0  0  0  0  0  0  0  0  0  0  0
   -3.8822   -1.4361   -0.4488 H   0  0  0  0  0  0  0  0  0  0  0  0
   -1.8919   -1.2675    0.3523 C   0  0  0  0  0  0  0  0  0  0  0  0
   -1.1158   -2.1866    0.5532 O   0  0  0  0  0  0  0  0  0  0  0  0
   -1.4500   -0.0734   -0.1838 N   0  0  0  0  0  0  0  0  0  0  0  0
   -2.1961    0.5742   -0.4228 H   0  0  0  0  0  0  0  0  0  0  0  0
   -0.1074    0.5372   -0.0464 C   0  0  1  0  0  0  0  0  0  0  0  0
   -0.2914    1.5572    0.3064 H   0  0  0  0  0  0  0  0  0  0  0  0
    0.8897   -0.0517    0.9764 C   0  0  0  0  0  0  0  0  0  0  0  0
    1.0934   -1.1036    0.7562 H   0  0  0  0  0  0  0  0  0  0  0  0
    1.8450    0.4772    0.8955 H   0  0  0  0  0  0  0  0  0  0  0  0
    0.3780    0.1013    2.3880 C   0  0  0  0  0  0  0  0  0  0  0  0
    0.3451    1.2587    3.1354 N   0  0  0  0  0  0  0  0  0  0  0  0
    0.6496    2.1817    2.8330 H   0  0  0  0  0  0  0  0  0  0  0  0
   -0.1443    0.9533    4.3914 C   0  0  0  0  0  0  0  0  0  0  0  0
   -0.2888    1.6680    5.1966 H   0  0  0  0  0  0  0  0  0  0  0  0
   -0.4097   -0.3274    4.4732 N   0  0  0  0  0  0  0  0  0  0  0  0
   -0.0718   -0.8757    3.2387 C   0  0  0  0  0  0  0  0  0  0  0  0
   -0.1482   -1.9300    2.9900 H   0  0  0  0  0  0  0  0  0  0  0  0
    0.5419    0.7030   -1.4285 C   0  0  0  0  0  0  0  0  0  0  0  0
    0.6171    1.8109   -1.9429 O   0  0  0  0  0  0  0  0  0  0  0  0
    1.0483   -0.4039   -2.0831 N   0  0  0  0  0  0  0  0  0  0  0  0
    0.8561   -1.3111   -1.6614 H   0  0  0  0  0  0  0  0  0  0  0  0
    1.6276   -0.3518   -3.4189 C   0  0  0  0  0  0  0  0  0  0  0  0
    2.4645    0.3540   -3.4465 H   0  0  0  0  0  0  0  0  0  0  0  0
    2.0011   -1.3393   -3.7071 H   0  0  0  0  0  0  0  0  0  0  0  0
    0.8761   -0.0369   -4.1504 H   0  0  0  0  0  0  0  0  0  0  0  0
  1  2  1  0  0  0  0
  2  3  1  0  0  0  0
  2  4  1  0  0  0  0
  2  5  1  0  0  0  0
  5  6  2  0  0  0  0
  5  7  1  0  0  0  0
  7  8  1  0  0  0  0
  7  9  1  0  0  0  0
  9 10  1  0  0  0  0
  9 11  1  0  0  0  0
  9 22  1  0  0  0  0
 11 12  1  0  0  0  0
 11 13  1  0  0  0  0
 11 14  1  0  0  0  0
 14 15  1  0  0  0  0
 14 20  2  0  0  0  0
 15 16  1  0  0  0  0
 15 17  1  0  0  0  0
 17 18  1  0  0  0  0
 17 19  2  0  0  0  0
 19 20  1  0  0  0  0
 20 21  1  0  0  0  0
 22 23  2  0  0  0  0
 22 24  1  0  0  0  0
 24 25  1  0  0  0  0
 24 26  1  0  0  0  0
 26 27  1  0  0  0  0
 26 28  1  0  0  0  0
 26 29  1  0  0  0  0
M  END
$$$$

  -OEChem-01062216083D

 29 29  0     1  0  0  0  0  0999 V2000
   -3.5460   -2.4821    1.0382 H   0  0  0  0  0  0  0  0  0  0  0  0
   -3.3826   -1.4934    0.5998 C   0  0  0  0  0  0  0  0  0  0  0  0
   -3.7652   -0.7376    1.2899 H   0  0  0  0  0  0  0  0  0  0  0  0
   -3.9312   -1.4305   -0.3428 H   0  0  0  0  0  0  0  0  0  0  0  0
   -1.9025   -1.2689    0.3570 C   0  0  0  0  0  0  0  0  0  0  0  0
   -1.1239   -2.1951    0.5079 O   0  0  0  0  0  0  0  0  0  0  0  0
   -1.4762   -0.0765   -0.1952 N   0  0  0  0  0  0  0  0  0  0  0  0
   -2.2314    0.5746   -0.3914 H   0  0  0  0  0  0  0  0  0  0  0  0
   -0.1351    0.5430   -0.0675 C   0  0  1  0  0  0  0  0  0  0  0  0
   -0.3199    1.5636    0.2829 H   0  0  0  0  0  0  0  0  0  0  0  0
    0.8710   -0.0469    0.9452 C   0  0  0  0  0  0  0  0  0  0  0  0
    1.0783   -1.0965    0.7168 H   0  0  0  0  0  0  0  0  0  0  0  0
    1.8237    0.4864    0.8613 H   0  0  0  0  0  0  0  0  0  0  0  0
    0.3671    0.0971    2.3604 C   0  0  0  0  0  0  0  0  0  0  0  0
    0.3336    1.2503    3.1141 N   0  0  0  0  0  0  0  0  0  0  0  0
    0.6348    2.1758    2.8155 H   0  0  0  0  0  0  0  0  0  0  0  0
   -0.1482    0.9362    4.3708 C   0  0  0  0  0  0  0  0  0  0  0  0
   -0.2905    1.6459    5.1807 H   0  0  0  0  0  0  0  0  0  0  0  0
   -0.4102   -0.3458    4.4461 N   0  0  0  0  0  0  0  0  0  0  0  0
   -0.0750   -0.8864    3.2075 C   0  0  0  0  0  0  0  0  0  0  0  0
   -0.1498   -1.9394    2.9527 H   0  0  0  0  0  0  0  0  0  0  0  0
    0.5141    0.7012   -1.4502 C   0  0  0  0  0  0  0  0  0  0  0  0
    0.8486    1.8076   -1.8519 O   0  0  0  0  0  0  0  0  0  0  0  0
    0.7420   -0.4199   -2.2249 N   0  0  0  0  0  0  0  0  0  0  0  0
    0.4146   -1.3097   -1.8515 H   0  0  0  0  0  0  0  0  0  0  0  0
    1.3521   -0.3798   -3.5471 C   0  0  0  0  0  0  0  0  0  0  0  0
    2.3499    0.0682   -3.4952 H   0  0  0  0  0  0  0  0  0  0  0  0
    1.4497   -1.3931   -3.9486 H   0  0  0  0  0  0  0  0  0  0  0  0
    0.7365    0.2082   -4.2356 H   0  0  0  0  0  0  0  0  0  0  0  0
  1  2  1  0  0  0  0
  2  3  1  0  0  0  0
  2  4  1  0  0  0  0
  2  5  1  0  0  0  0
  5  6  2  0  0  0  0
  5  7  1  0  0  0  0
  7  8  1  0  0  0  0
  7  9  1  0  0  0  0
  9 10  1  0  0  0  0
  9 11  1  0  0  0  0
  9 22  1  0  0  0  0
 11 12  1  0  0  0  0
 11 13  1  0  0  0  0
 11 14  1  0  0  0  0
 14 15  1  0  0  0  0
 14 20  2  0  0  0  0
 15 16  1  0  0  0  0
 15 17  1  0  0  0  0
 17 18  1  0  0  0  0
 17 19  2  0  0  0  0
 19 20  1  0  0  0  0
 20 21  1  0  0  0  0
 22 23  2  0  0  0  0
 22 24  1  0  0  0  0
 24 25  1  0  0  0  0
 24 26  1  0  0  0  0
 26 27  1  0  0  0  0
 26 28  1  0  0  0  0
 26 29  1  0  0  0  0
M  END
$$$$

  -OEChem-01062216083D

 29 29  0     1  0  0  0  0  0999 V2000
   -3.5386   -2.4832    1.1104 H   0  0  0  0  0  0  0  0  0  0  0  0
   -3.3898   -1.4955    0.6648 C   0  0  0  0  0  0  0  0  0  0  0  0
   -3.7474   -0.7387    1.3673 H   0  0  0  0  0  0  0  0  0  0  0  0
   -3.9717   -1.4331   -0.2578 H   0  0  0  0  0  0  0  0  0  0  0  0
   -1.9188   -1.2734    0.3691 C   0  0  0  0  0  0  0  0  0  0  0  0
   -1.1379   -2.2031    0.4783 O   0  0  0  0  0  0  0  0  0  0  0  0
   -1.5100   -0.0797   -0.1927 N   0  0  0  0  0  0  0  0  0  0  0  0
   -2.2736    0.5719   -0.3512 H   0  0  0  0  0  0  0  0  0  0  0  0
   -0.1707    0.5505   -0.0833 C   0  0  1  0  0  0  0  0  0  0  0  0
   -0.3568    1.5697    0.2700 H   0  0  0  0  0  0  0  0  0  0  0  0
    0.8513   -0.0399    0.9125 C   0  0  0  0  0  0  0  0  0  0  0  0
    1.0613   -1.0870    0.6743 H   0  0  0  0  0  0  0  0  0  0  0  0
    1.8001    0.4991    0.8195 H   0  0  0  0  0  0  0  0  0  0  0  0
    0.3637    0.0943    2.3340 C   0  0  0  0  0  0  0  0  0  0  0  0
    0.3344    1.2441    3.0926 N   0  0  0  0  0  0  0  0  0  0  0  0
    0.6383    2.1699    2.7975 H   0  0  0  0  0  0  0  0  0  0  0  0
   -0.1405    0.9237    4.3502 C   0  0  0  0  0  0  0  0  0  0  0  0
   -0.2808    1.6303    5.1633 H   0  0  0  0  0  0  0  0  0  0  0  0
   -0.3997   -0.3592    4.4220 N   0  0  0  0  0  0  0  0  0  0  0  0
   -0.0692   -0.8940    3.1799 C   0  0  0  0  0  0  0  0  0  0  0  0
   -0.1437   -1.9459    2.9209 H   0  0  0  0  0  0  0  0  0  0  0  0
    0.4706    0.7143   -1.4693 C   0  0  0  0  0  0  0  0  0  0  0  0
    1.0454    1.7539   -1.7623 O   0  0  0  0  0  0  0  0  0  0  0  0
    0.4246   -0.3339   -2.3680 N   0  0  0  0  0  0  0  0  0  0  0  0
   -0.0083   -1.1957   -2.0395 H   0  0  0  0  0  0  0  0  0  0  0  0
    1.0834   -0.3148   -3.6669 C   0  0  0  0  0  0  0  0  0  0  0  0
    2.1642   -0.1877   -3.5457 H   0  0  0  0  0  0  0  0  0  0  0  0
    0.9022   -1.2557   -4.1955 H   0  0  0  0  0  0  0  0  0  0  0  0
    0.6976    0.5062   -4.2799 H   0  0  0  0  0  0  0  0  0  0  0  0
  1  2  1  0  0  0  0
  2  3  1  0  0  0  0
  2  4  1  0  0  0  0
  2  5  1  0  0  0  0
  5  6  2  0  0  0  0
  5  7  1  0  0  0  0
  7  8  1  0  0  0  0
  7  9  1  0  0  0  0
  9 10  1  0  0  0  0
  9 11  1  0  0  0  0
  9 22  1  0  0  0  0
 11 12  1  0  0  0  0
 11 13  1  0  0  0  0
 11 14  1  0  0  0  0
 14 15  1  0  0  0  0
 14 20  2  0  0  0  0
 15 16  1  0  0  0  0
 15 17  1  0  0  0  0
 17 18  1  0  0  0  0
 17 19  2  0  0  0  0
 19 20  1  0  0  0  0
 20 21  1  0  0  0  0
 22 23  2  0  0  0  0
 22 24  1  0  0  0  0
 24 25  1  0  0  0  0
 24 26  1  0  0  0  0
 26 27  1  0  0  0  0
 26 28  1  0  0  0  0
 26 29  1  0  0  0  0
M  END
$$$$

  -OEChem-01062216083D

 29 29  0     1  0  0  0  0  0999 V2000
   -3.5302   -2.4990    1.1550 H   0  0  0  0  0  0  0  0  0  0  0  0
   -3.3915   -1.5082    0.7128 C   0  0  0  0  0  0  0  0  0  0  0  0
   -3.7277   -0.7557    1.4303 H   0  0  0  0  0  0  0  0  0  0  0  0
   -3.9980   -1.4379   -0.1932 H   0  0  0  0  0  0  0  0  0  0  0  0
   -1.9285   -1.2872    0.3798 C   0  0  0  0  0  0  0  0  0  0  0  0
   -1.1472   -2.2177    0.4732 O   0  0  0  0  0  0  0  0  0  0  0  0
   -1.5321   -0.0906   -0.1862 N   0  0  0  0  0  0  0  0  0  0  0  0
   -2.3004    0.5605   -0.3218 H   0  0  0  0  0  0  0  0  0  0  0  0
   -0.1925    0.5455   -0.0938 C   0  0  1  0  0  0  0  0  0  0  0  0
   -0.3795    1.5634    0.2622 H   0  0  0  0  0  0  0  0  0  0  0  0
    0.8337   -0.0459    0.8983 C   0  0  0  0  0  0  0  0  0  0  0  0
    1.0400   -1.0935    0.6599 H   0  0  0  0  0  0  0  0  0  0  0  0
    1.7842    0.4894    0.8013 H   0  0  0  0  0  0  0  0  0  0  0  0
    0.3545    0.0922    2.3226 C   0  0  0  0  0  0  0  0  0  0  0  0
    0.3328    1.2437    3.0787 N   0  0  0  0  0  0  0  0  0  0  0  0
    0.6416    2.1669    2.7808 H   0  0  0  0  0  0  0  0  0  0  0  0
   -0.1317    0.9273    4.3412 C   0  0  0  0  0  0  0  0  0  0  0  0
   -0.2611    1.6352    5.1549 H   0  0  0  0  0  0  0  0  0  0  0  0
   -0.3958   -0.3543    4.4171 N   0  0  0  0  0  0  0  0  0  0  0  0
   -0.0761   -0.8930    3.1735 C   0  0  0  0  0  0  0  0  0  0  0  0
   -0.1561   -1.9453    2.9169 H   0  0  0  0  0  0  0  0  0  0  0  0
    0.4481    0.7233   -1.4810 C   0  0  0  0  0  0  0  0  0  0  0  0
    1.2222    1.6499   -1.6804 O   0  0  0  0  0  0  0  0  0  0  0  0
    0.1578   -0.1657   -2.4985 N   0  0  0  0  0  0  0  0  0  0  0  0
   -0.3936   -0.9808   -2.2370 H   0  0  0  0  0  0  0  0  0  0  0  0
    0.8205   -0.1436   -3.7961 C   0  0  0  0  0  0  0  0  0  0  0  0
    1.8944   -0.3233   -3.6799 H   0  0  0  0  0  0  0  0  0  0  0  0
    0.4063   -0.9212   -4.4449 H   0  0  0  0  0  0  0  0  0  0  0  0
    0.6759    0.8258   -4.2843 H   0  0  0  0  0  0  0  0  0  0  0  0
  1  2  1  0  0  0  0
  2  3  1  0  0  0  0
  2  4  1  0  0  0  0
  2  5  1  0  0  0  0
  5  6  2  0  0  0  0
  5  7  1  0  0  0  0
  7  8  1  0  0  0  0
  7  9  1  0  0  0  0
  9 10  1  0  0  0  0
  9 11  1  0  0  0  0
  9 22  1  0  0  0  0
 11 12  1  0  0  0  0
 11 13  1  0  0  0  0
 11 14  1  0  0  0  0
 14 15  1  0  0  0  0
 14 20  2  0  0  0  0
 15 16  1  0  0  0  0
 15 17  1  0  0  0  0
 17 18  1  0  0  0  0
 17 19  2  0  0  0  0
 19 20  1  0  0  0  0
 20 21  1  0  0  0  0
 22 23  2  0  0  0  0
 22 24  1  0  0  0  0
 24 25  1  0  0  0  0
 24 26  1  0  0  0  0
 26 27  1  0  0  0  0
 26 28  1  0  0  0  0
 26 29  1  0  0  0  0
M  END
$$$$

  -OEChem-01062216083D

 29 29  0     1  0  0  0  0  0999 V2000
   -3.5222   -2.5031    1.1843 H   0  0  0  0  0  0  0  0  0  0  0  0
   -3.3841   -1.5178    0.7300 C   0  0  0  0  0  0  0  0  0  0  0  0
   -3.7149   -0.7569    1.4411 H   0  0  0  0  0  0  0  0  0  0  0  0
   -3.9960   -1.4567   -0.1730 H   0  0  0  0  0  0  0  0  0  0  0  0
   -1.9226   -1.3026    0.3854 C   0  0  0  0  0  0  0  0  0  0  0  0
   -1.1442   -2.2350    0.4791 O   0  0  0  0  0  0  0  0  0  0  0  0
   -1.5294   -0.1037   -0.1795 N   0  0  0  0  0  0  0  0  0  0  0  0
   -2.2993    0.5488   -0.2985 H   0  0  0  0  0  0  0  0  0  0  0  0
   -0.1887    0.5345   -0.0951 C   0  0  1  0  0  0  0  0  0  0  0  0
   -0.3756    1.5524    0.2605 H   0  0  0  0  0  0  0  0  0  0  0  0
    0.8350   -0.0583    0.9008 C   0  0  0  0  0  0  0  0  0  0  0  0
    1.0382   -1.1070    0.6653 H   0  0  0  0  0  0  0  0  0  0  0  0
    1.7884    0.4725    0.8073 H   0  0  0  0  0  0  0  0  0  0  0  0
    0.3522    0.0878    2.3232 C   0  0  0  0  0  0  0  0  0  0  0  0
    0.3334    1.2429    3.0737 N   0  0  0  0  0  0  0  0  0  0  0  0
    0.6496    2.1625    2.7727 H   0  0  0  0  0  0  0  0  0  0  0  0
   -0.1389    0.9352    4.3352 C   0  0  0  0  0  0  0  0  0  0  0  0
   -0.2687    1.6479    5.1447 H   0  0  0  0  0  0  0  0  0  0  0  0
   -0.4099   -0.3447    4.4161 N   0  0  0  0  0  0  0  0  0  0  0  0
   -0.0853   -0.8914    3.1772 C   0  0  0  0  0  0  0  0  0  0  0  0
   -0.1682   -1.9447    2.9259 H   0  0  0  0  0  0  0  0  0  0  0  0
    0.4507    0.7219   -1.4845 C   0  0  0  0  0  0  0  0  0  0  0  0
    1.3803    1.5053   -1.6263 O   0  0  0  0  0  0  0  0  0  0  0  0
   -0.0515    0.0519   -2.5844 N   0  0  0  0  0  0  0  0  0  0  0  0
   -0.7265   -0.6830   -2.3870 H   0  0  0  0  0  0  0  0  0  0  0  0
    0.5603    0.1133   -3.9059 C   0  0  0  0  0  0  0  0  0  0  0  0
    1.5715   -0.3061   -3.8788 H   0  0  0  0  0  0  0  0  0  0  0  0
   -0.0348   -0.4583   -4.6245 H   0  0  0  0  0  0  0  0  0  0  0  0
    0.6180    1.1498   -4.2548 H   0  0  0  0  0  0  0  0  0  0  0  0
  1  2  1  0  0  0  0
  2  3  1  0  0  0  0
  2  4  1  0  0  0  0
  2  5  1  0  0  0  0
  5  6  2  0  0  0  0
  5  7  1  0  0  0  0
  7  8  1  0  0  0  0
  7  9  1  0  0  0  0
  9 10  1  0  0  0  0
  9 11  1  0  0  0  0
  9 22  1  0  0  0  0
 11 12  1  0  0  0  0
 11 13  1  0  0  0  0
 11 14  1  0  0  0  0
 14 15  1  0  0  0  0
 14 20  2  0  0  0  0
 15 16  1  0  0  0  0
 15 17  1  0  0  0  0
 17 18  1  0  0  0  0
 17 19  2  0  0  0  0
 19 20  1  0  0  0  0
 20 21  1  0  0  0  0
 22 23  2  0  0  0  0
 22 24  1  0  0  0  0
 24 25  1  0  0  0  0
 24 26  1  0  0  0  0
 26 27  1  0  0  0  0
 26 28  1  0  0  0  0
 26 29  1  0  0  0  0
M  END
$$$$

  -OEChem-01062216083D

 29 29  0     1  0  0  0  0  0999 V2000
   -3.5148   -2.5379    1.1328 H   0  0  0  0  0  0  0  0  0  0  0  0
   -3.3694   -1.5306    0.7316 C   0  0  0  0  0  0  0  0  0  0  0  0
   -3.6808   -0.8057    1.4878 H   0  0  0  0  0  0  0  0  0  0  0  0
   -3.9924   -1.4129   -0.1582 H   0  0  0  0  0  0  0  0  0  0  0  0
   -1.9095   -1.3147    0.3805 C   0  0  0  0  0  0  0  0  0  0  0  0
   -1.1311   -2.2464    0.4780 O   0  0  0  0  0  0  0  0  0  0  0  0
   -1.5201   -0.1121   -0.1807 N   0  0  0  0  0  0  0  0  0  0  0  0
   -2.2911    0.5425   -0.2782 H   0  0  0  0  0  0  0  0  0  0  0  0
   -0.1791    0.5280   -0.0992 C   0  0  1  0  0  0  0  0  0  0  0  0
   -0.3664    1.5458    0.2559 H   0  0  0  0  0  0  0  0  0  0  0  0
    0.8393   -0.0654    0.9049 C   0  0  0  0  0  0  0  0  0  0  0  0
    1.0423   -1.1151    0.6733 H   0  0  0  0  0  0  0  0  0  0  0  0
    1.7956    0.4610    0.8178 H   0  0  0  0  0  0  0  0  0  0  0  0
    0.3501    0.0881    2.3249 C   0  0  0  0  0  0  0  0  0  0  0  0
    0.3313    1.2455    3.0720 N   0  0  0  0  0  0  0  0  0  0  0  0
    0.6587    2.1617    2.7722 H   0  0  0  0  0  0  0  0  0  0  0  0
   -0.1487    0.9430    4.3322 C   0  0  0  0  0  0  0  0  0  0  0  0
   -0.2796    1.6580    5.1395 H   0  0  0  0  0  0  0  0  0  0  0  0
   -0.4254   -0.3354    4.4153 N   0  0  0  0  0  0  0  0  0  0  0  0
   -0.0964   -0.8866    3.1796 C   0  0  0  0  0  0  0  0  0  0  0  0
   -0.1827   -1.9403    2.9314 H   0  0  0  0  0  0  0  0  0  0  0  0
    0.4559    0.7236   -1.4927 C   0  0  0  0  0  0  0  0  0  0  0  0
    1.5111    1.3334   -1.6074 O   0  0  0  0  0  0  0  0  0  0  0  0
   -0.2149    0.3182   -2.6323 N   0  0  0  0  0  0  0  0  0  0  0  0
   -1.0068   -0.3012   -2.4821 H   0  0  0  0  0  0  0  0  0  0  0  0
    0.3517    0.4214   -3.9717 C   0  0  0  0  0  0  0  0  0  0  0  0
    1.2566   -0.1900   -4.0530 H   0  0  0  0  0  0  0  0  0  0  0  0
   -0.3712    0.0730   -4.7156 H   0  0  0  0  0  0  0  0  0  0  0  0
    0.6071    1.4613   -4.2016 H   0  0  0  0  0  0  0  0  0  0  0  0
  1  2  1  0  0  0  0
  2  3  1  0  0  0  0
  2  4  1  0  0  0  0
  2  5  1  0  0  0  0
  5  6  2  0  0  0  0
  5  7  1  0  0  0  0
  7  8  1  0  0  0  0
  7  9  1  0  0  0  0
  9 10  1  0  0  0  0
  9 11  1  0  0  0  0
  9 22  1  0  0  0  0
 11 12  1  0  0  0  0
 11 13  1  0  0  0  0
 11 14  1  0  0  0  0
 14 15  1  0  0  0  0
 14 20  2  0  0  0  0
 15 16  1  0  0  0  0
 15 17  1  0  0  0  0
 17 18  1  0  0  0  0
 17 19  2  0  0  0  0
 19 20  1  0  0  0  0
 20 21  1  0  0  0  0
 22 23  2  0  0  0  0
 22 24  1  0  0  0  0
 24 25  1  0  0  0  0
 24 26  1  0  0  0  0
 26 27  1  0  0  0  0
 26 28  1  0  0  0  0
 26 29  1  0  0  0  0
M  END
$$$$

  -OEChem-01062216083D

 29 29  0     1  0  0  0  0  0999 V2000
   -3.4949   -2.5466    1.1296 H   0  0  0  0  0  0  0  0  0  0  0  0
   -3.3514   -1.5412    0.7231 C   0  0  0  0  0  0  0  0  0  0  0  0
   -3.6624   -0.8130    1.4764 H   0  0  0  0  0  0  0  0  0  0  0  0
   -3.9754   -1.4289   -0.1666 H   0  0  0  0  0  0  0  0  0  0  0  0
   -1.8923   -1.3258    0.3685 C   0  0  0  0  0  0  0  0  0  0  0  0
   -1.1150   -2.2582    0.4672 O   0  0  0  0  0  0  0  0  0  0  0  0
   -1.5037   -0.1191   -0.1856 N   0  0  0  0  0  0  0  0  0  0  0  0
   -2.2739    0.5388   -0.2620 H   0  0  0  0  0  0  0  0  0  0  0  0
   -0.1610    0.5177   -0.1033 C   0  0  1  0  0  0  0  0  0  0  0  0
   -0.3461    1.5353    0.2525 H   0  0  0  0  0  0  0  0  0  0  0  0
    0.8505   -0.0775    0.9094 C   0  0  0  0  0  0  0  0  0  0  0  0
    1.0509   -1.1287    0.6834 H   0  0  0  0  0  0  0  0  0  0  0  0
    1.8100    0.4439    0.8303 H   0  0  0  0  0  0  0  0  0  0  0  0
    0.3503    0.0861    2.3246 C   0  0  0  0  0  0  0  0  0  0  0  0
    0.3305    1.2468    3.0668 N   0  0  0  0  0  0  0  0  0  0  0  0
    0.6678    2.1594    2.7677 H   0  0  0  0  0  0  0  0  0  0  0  0
   -0.1658    0.9526    4.3225 C   0  0  0  0  0  0  0  0  0  0  0  0
   -0.3013    1.6721    5.1249 H   0  0  0  0  0  0  0  0  0  0  0  0
   -0.4519   -0.3235    4.4077 N   0  0  0  0  0  0  0  0  0  0  0  0
   -0.1108   -0.8823    3.1787 C   0  0  0  0  0  0  0  0  0  0  0  0
   -0.1999   -1.9367    2.9343 H   0  0  0  0  0  0  0  0  0  0  0  0
    0.4659    0.7202   -1.5016 C   0  0  0  0  0  0  0  0  0  0  0  0
    1.6178    1.1182   -1.6175 O   0  0  0  0  0  0  0  0  0  0  0  0
   -0.3185    0.6162   -2.6369 N   0  0  0  0  0  0  0  0  0  0  0  0
   -1.2112    0.1468   -2.5155 H   0  0  0  0  0  0  0  0  0  0  0  0
    0.2090    0.7765   -3.9869 C   0  0  0  0  0  0  0  0  0  0  0  0
    0.9670    0.0141   -4.1950 H   0  0  0  0  0  0  0  0  0  0  0  0
   -0.5956    0.6767   -4.7217 H   0  0  0  0  0  0  0  0  0  0  0  0
    0.6625    1.7661   -4.1066 H   0  0  0  0  0  0  0  0  0  0  0  0
  1  2  1  0  0  0  0
  2  3  1  0  0  0  0
  2  4  1  0  0  0  0
  2  5  1  0  0  0  0
  5  6  2  0  0  0  0
  5  7  1  0  0  0  0
  7  8  1  0  0  0  0
  7  9  1  0  0  0  0
  9 10  1  0  0  0  0
  9 11  1  0  0  0  0
  9 22  1  0  0  0  0
 11 12  1  0  0  0  0
 11 13  1  0  0  0  0
 11 14  1  0  0  0  0
 14 15  1  0  0  0  0
 14 20  2  0  0  0  0
 15 16  1  0  0  0  0
 15 17  1  0  0  0  0
 17 18  1  0  0  0  0
 17 19  2  0  0  0  0
 19 20  1  0  0  0  0
 20 21  1  0  0  0  0
 22 23  2  0  0  0  0
 22 24  1  0  0  0  0
 24 25  1  0  0  0  0
 24 26  1  0  0  0  0
 26 27  1  0  0  0  0
 26 28  1  0  0  0  0
 26 29  1  0  0  0  0
M  END
$$$$

  -OEChem-01062216083D

 29 29  0     1  0  0  0  0  0999 V2000
   -3.4893   -2.5472    1.1193 H   0  0  0  0  0  0  0  0  0  0  0  0
   -3.3508   -1.5545    0.6810 C   0  0  0  0  0  0  0  0  0  0  0  0
   -3.6935   -0.8056    1.3992 H   0  0  0  0  0  0  0  0  0  0  0  0
   -3.9528   -1.4845   -0.2278 H   0  0  0  0  0  0  0  0  0  0  0  0
   -1.8861   -1.3287    0.3562 C   0  0  0  0  0  0  0  0  0  0  0  0
   -1.1058   -2.2555    0.4784 O   0  0  0  0  0  0  0  0  0  0  0  0
   -1.4968   -0.1182   -0.1903 N   0  0  0  0  0  0  0  0  0  0  0  0
   -2.2689    0.5373   -0.2630 H   0  0  0  0  0  0  0  0  0  0  0  0
   -0.1542    0.5183   -0.1049 C   0  0  1  0  0  0  0  0  0  0  0  0
   -0.3402    1.5345    0.2541 H   0  0  0  0  0  0  0  0  0  0  0  0
    0.8550   -0.0746    0.9122 C   0  0  0  0  0  0  0  0  0  0  0  0
    1.0585   -1.1252    0.6866 H   0  0  0  0  0  0  0  0  0  0  0  0
    1.8135    0.4488    0.8358 H   0  0  0  0  0  0  0  0  0  0  0  0
    0.3546    0.0901    2.3274 C   0  0  0  0  0  0  0  0  0  0  0  0
    0.3340    1.2510    3.0694 N   0  0  0  0  0  0  0  0  0  0  0  0
    0.6725    2.1633    2.7712 H   0  0  0  0  0  0  0  0  0  0  0  0
   -0.1552    0.9548    4.3275 C   0  0  0  0  0  0  0  0  0  0  0  0
   -0.2872    1.6734    5.1312 H   0  0  0  0  0  0  0  0  0  0  0  0
   -0.4387   -0.3218    4.4133 N   0  0  0  0  0  0  0  0  0  0  0  0
   -0.1020   -0.8795    3.1824 C   0  0  0  0  0  0  0  0  0  0  0  0
   -0.1883   -1.9339    2.9375 H   0  0  0  0  0  0  0  0  0  0  0  0
    0.4661    0.7265   -1.5070 C   0  0  0  0  0  0  0  0  0  0  0  0
    1.6733    0.8693   -1.6514 O   0  0  0  0  0  0  0  0  0  0  0  0
   -0.3555    0.9362   -2.6011 N   0  0  0  0  0  0  0  0  0  0  0  0
   -1.3288    0.6729   -2.4855 H   0  0  0  0  0  0  0  0  0  0  0  0
    0.1574    1.1284   -3.9530 C   0  0  0  0  0  0  0  0  0  0  0  0
    0.7232    0.2484   -4.2767 H   0  0  0  0  0  0  0  0  0  0  0  0
   -0.6691    1.2870   -4.6523 H   0  0  0  0  0  0  0  0  0  0  0  0
    0.8141    2.0039   -3.9941 H   0  0  0  0  0  0  0  0  0  0  0  0
  1  2  1  0  0  0  0
  2  3  1  0  0  0  0
  2  4  1  0  0  0  0
  2  5  1  0  0  0  0
  5  6  2  0  0  0  0
  5  7  1  0  0  0  0
  7  8  1  0  0  0  0
  7  9  1  0  0  0  0
  9 10  1  0  0  0  0
  9 11  1  0  0  0  0
  9 22  1  0  0  0  0
 11 12  1  0  0  0  0
 11 13  1  0  0  0  0
 11 14  1  0  0  0  0
 14 15  1  0  0  0  0
 14 20  2  0  0  0  0
 15 16  1  0  0  0  0
 15 17  1  0  0  0  0
 17 18  1  0  0  0  0
 17 19  2  0  0  0  0
 19 20  1  0  0  0  0
 20 21  1  0  0  0  0
 22 23  2  0  0  0  0
 22 24  1  0  0  0  0
 24 25  1  0  0  0  0
 24 26  1  0  0  0  0
 26 27  1  0  0  0  0
 26 28  1  0  0  0  0
 26 29  1  0  0  0  0
M  END
$$$$

  -OEChem-01062216083D

 29 29  0     1  0  0  0  0  0999 V2000
   -3.5037   -2.5484    1.0928 H   0  0  0  0  0  0  0  0  0  0  0  0
   -3.3590   -1.5716    0.6220 C   0  0  0  0  0  0  0  0  0  0  0  0
   -3.7446   -0.8012    1.2938 H   0  0  0  0  0  0  0  0  0  0  0  0
   -3.9193   -1.5465   -0.3156 H   0  0  0  0  0  0  0  0  0  0  0  0
   -1.8844   -1.3361    0.3537 C   0  0  0  0  0  0  0  0  0  0  0  0
   -1.1039   -2.2555    0.5209 O   0  0  0  0  0  0  0  0  0  0  0  0
   -1.4874   -0.1251   -0.1872 N   0  0  0  0  0  0  0  0  0  0  0  0
   -2.2608    0.5236   -0.2905 H   0  0  0  0  0  0  0  0  0  0  0  0
   -0.1442    0.5087   -0.1036 C   0  0  1  0  0  0  0  0  0  0  0  0
   -0.3283    1.5250    0.2558 H   0  0  0  0  0  0  0  0  0  0  0  0
    0.8660   -0.0783    0.9155 C   0  0  0  0  0  0  0  0  0  0  0  0
    1.0685   -1.1306    0.6952 H   0  0  0  0  0  0  0  0  0  0  0  0
    1.8239    0.4453    0.8319 H   0  0  0  0  0  0  0  0  0  0  0  0
    0.3671    0.0945    2.3308 C   0  0  0  0  0  0  0  0  0  0  0  0
    0.3480    1.2605    3.0652 N   0  0  0  0  0  0  0  0  0  0  0  0
    0.6900    2.1697    2.7620 H   0  0  0  0  0  0  0  0  0  0  0  0
   -0.1406    0.9735    4.3255 C   0  0  0  0  0  0  0  0  0  0  0  0
   -0.2711    1.6977    5.1243 H   0  0  0  0  0  0  0  0  0  0  0  0
   -0.4251   -0.3020    4.4202 N   0  0  0  0  0  0  0  0  0  0  0  0
   -0.0904   -0.8688    3.1927 C   0  0  0  0  0  0  0  0  0  0  0  0
   -0.1791   -1.9248    2.9554 H   0  0  0  0  0  0  0  0  0  0  0  0
    0.4673    0.7181   -1.5093 C   0  0  0  0  0  0  0  0  0  0  0  0
    1.6667    0.5831   -1.7137 O   0  0  0  0  0  0  0  0  0  0  0  0
   -0.3168    1.2342   -2.5274 N   0  0  0  0  0  0  0  0  0  0  0  0
   -1.3195    1.2393   -2.3756 H   0  0  0  0  0  0  0  0  0  0  0  0
    0.1865    1.4800   -3.8742 C   0  0  0  0  0  0  0  0  0  0  0  0
    0.5277    0.5455   -4.3317 H   0  0  0  0  0  0  0  0  0  0  0  0
   -0.6020    1.9066   -4.5015 H   0  0  0  0  0  0  0  0  0  0  0  0
    1.0237    2.1855   -3.8483 H   0  0  0  0  0  0  0  0  0  0  0  0
  1  2  1  0  0  0  0
  2  3  1  0  0  0  0
  2  4  1  0  0  0  0
  2  5  1  0  0  0  0
  5  6  2  0  0  0  0
  5  7  1  0  0  0  0
  7  8  1  0  0  0  0
  7  9  1  0  0  0  0
  9 10  1  0  0  0  0
  9 11  1  0  0  0  0
  9 22  1  0  0  0  0
 11 12  1  0  0  0  0
 11 13  1  0  0  0  0
 11 14  1  0  0  0  0
 14 15  1  0  0  0  0
 14 20  2  0  0  0  0
 15 16  1  0  0  0  0
 15 17  1  0  0  0  0
 17 18  1  0  0  0  0
 17 19  2  0  0  0  0
 19 20  1  0  0  0  0
 20 21  1  0  0  0  0
 22 23  2  0  0  0  0
 22 24  1  0  0  0  0
 24 25  1  0  0  0  0
 24 26  1  0  0  0  0
 26 27  1  0  0  0  0
 26 28  1  0  0  0  0
 26 29  1  0  0  0  0
M  END
$$$$

  -OEChem-01062216083D

 29 29  0     1  0  0  0  0  0999 V2000
   -3.5412   -2.5447    1.0353 H   0  0  0  0  0  0  0  0  0  0  0  0
   -3.3839   -1.5845    0.5354 C   0  0  0  0  0  0  0  0  0  0  0  0
   -3.8297   -0.7965    1.1469 H   0  0  0  0  0  0  0  0  0  0  0  0
   -3.8782   -1.6094   -0.4387 H   0  0  0  0  0  0  0  0  0  0  0  0
   -1.8994   -1.3278    0.3581 C   0  0  0  0  0  0  0  0  0  0  0  0
   -1.1192   -2.2305    0.5993 O   0  0  0  0  0  0  0  0  0  0  0  0
   -1.4908   -0.1193   -0.1798 N   0  0  0  0  0  0  0  0  0  0  0  0
   -2.2631    0.5096   -0.3719 H   0  0  0  0  0  0  0  0  0  0  0  0
   -0.1496    0.5158   -0.0952 C   0  0  1  0  0  0  0  0  0  0  0  0
   -0.3348    1.5308    0.2670 H   0  0  0  0  0  0  0  0  0  0  0  0
    0.8689   -0.0634    0.9187 C   0  0  0  0  0  0  0  0  0  0  0  0
    1.0722   -1.1156    0.6975 H   0  0  0  0  0  0  0  0  0  0  0  0
    1.8238    0.4631    0.8212 H   0  0  0  0  0  0  0  0  0  0  0  0
    0.3842    0.1039    2.3402 C   0  0  0  0  0  0  0  0  0  0  0  0
    0.3664    1.2697    3.0752 N   0  0  0  0  0  0  0  0  0  0  0  0
    0.6915    2.1826    2.7657 H   0  0  0  0  0  0  0  0  0  0  0  0
   -0.0973    0.9790    4.3441 C   0  0  0  0  0  0  0  0  0  0  0  0
   -0.2209    1.7026    5.1448 H   0  0  0  0  0  0  0  0  0  0  0  0
   -0.3672   -0.2989    4.4447 N   0  0  0  0  0  0  0  0  0  0  0  0
   -0.0498   -0.8628    3.2110 C   0  0  0  0  0  0  0  0  0  0  0  0
   -0.1304   -1.9203    2.9784 H   0  0  0  0  0  0  0  0  0  0  0  0
    0.4569    0.7199   -1.5025 C   0  0  0  0  0  0  0  0  0  0  0  0
    1.5721    0.3056   -1.7896 O   0  0  0  0  0  0  0  0  0  0  0  0
   -0.2103    1.5065   -2.4269 N   0  0  0  0  0  0  0  0  0  0  0  0
   -1.1437    1.8230   -2.1882 H   0  0  0  0  0  0  0  0  0  0  0  0
    0.2995    1.7701   -3.7679 C   0  0  0  0  0  0  0  0  0  0  0  0
    0.4062    0.8349   -4.3278 H   0  0  0  0  0  0  0  0  0  0  0  0
   -0.3881    2.4236   -4.3131 H   0  0  0  0  0  0  0  0  0  0  0  0
    1.2761    2.2631   -3.7168 H   0  0  0  0  0  0  0  0  0  0  0  0
  1  2  1  0  0  0  0
  2  3  1  0  0  0  0
  2  4  1  0  0  0  0
  2  5  1  0  0  0  0
  5  6  2  0  0  0  0
  5  7  1  0  0  0  0
  7  8  1  0  0  0  0
  7  9  1  0  0  0  0
  9 10  1  0  0  0  0
  9 11  1  0  0  0  0
  9 22  1  0  0  0  0
 11 12  1  0  0  0  0
 11 13  1  0  0  0  0
 11 14  1  0  0  0  0
 14 15  1  0  0  0  0
 14 20  2  0  0  0  0
 15 16  1  0  0  0  0
 15 17  1  0  0  0  0
 17 18  1  0  0  0  0
 17 19  2  0  0  0  0
 19 20  1  0  0  0  0
 20 21  1  0  0  0  0
 22 23  2  0  0  0  0
 22 24  1  0  0  0  0
 24 25  1  0  0  0  0
 24 26  1  0  0  0  0
 26 27  1  0  0  0  0
 26 28  1  0  0  0  0
 26 29  1  0  0  0  0
M  END
$$$$

  -OEChem-01062216083D

 29 29  0     1  0  0  0  0  0999 V2000
   -3.5859   -2.5552    0.9528 H   0  0  0  0  0  0  0  0  0  0  0  0
   -3.4104   -1.5923    0.4643 C   0  0  0  0  0  0  0  0  0  0  0  0
   -3.8968   -0.8097    1.0514 H   0  0  0  0  0  0  0  0  0  0  0  0
   -3.8500   -1.6194   -0.5354 H   0  0  0  0  0  0  0  0  0  0  0  0
   -1.9208   -1.3203    0.3692 C   0  0  0  0  0  0  0  0  0  0  0  0
   -1.1467   -2.2064    0.6811 O   0  0  0  0  0  0  0  0  0  0  0  0
   -1.5001   -0.1154   -0.1677 N   0  0  0  0  0  0  0  0  0  0  0  0
   -2.2639    0.4898   -0.4494 H   0  0  0  0  0  0  0  0  0  0  0  0
   -0.1600    0.5202   -0.0883 C   0  0  1  0  0  0  0  0  0  0  0  0
   -0.3466    1.5332    0.2781 H   0  0  0  0  0  0  0  0  0  0  0  0
    0.8697   -0.0519    0.9159 C   0  0  0  0  0  0  0  0  0  0  0  0
    1.0697   -1.1048    0.6938 H   0  0  0  0  0  0  0  0  0  0  0  0
    1.8222    0.4759    0.8024 H   0  0  0  0  0  0  0  0  0  0  0  0
    0.4011    0.1128    2.3438 C   0  0  0  0  0  0  0  0  0  0  0  0
    0.3868    1.2798    3.0773 N   0  0  0  0  0  0  0  0  0  0  0  0
    0.6997    2.1946    2.7619 H   0  0  0  0  0  0  0  0  0  0  0  0
   -0.0538    0.9884    4.3541 C   0  0  0  0  0  0  0  0  0  0  0  0
   -0.1702    1.7129    5.1549 H   0  0  0  0  0  0  0  0  0  0  0  0
   -0.3101   -0.2913    4.4629 N   0  0  0  0  0  0  0  0  0  0  0  0
   -0.0098   -0.8555    3.2248 C   0  0  0  0  0  0  0  0  0  0  0  0
   -0.0829   -1.9147    2.9972 H   0  0  0  0  0  0  0  0  0  0  0  0
    0.4431    0.7212   -1.4956 C   0  0  0  0  0  0  0  0  0  0  0  0
    1.4092    0.0765   -1.8795 O   0  0  0  0  0  0  0  0  0  0  0  0
   -0.0412    1.7336   -2.3074 N   0  0  0  0  0  0  0  0  0  0  0  0
   -0.8382    2.2665   -1.9759 H   0  0  0  0  0  0  0  0  0  0  0  0
    0.4931    2.0194   -3.6343 C   0  0  0  0  0  0  0  0  0  0  0  0
    0.3835    1.1469   -4.2870 H   0  0  0  0  0  0  0  0  0  0  0  0
   -0.0438    2.8590   -4.0862 H   0  0  0  0  0  0  0  0  0  0  0  0
    1.5546    2.2816   -3.5726 H   0  0  0  0  0  0  0  0  0  0  0  0
  1  2  1  0  0  0  0
  2  3  1  0  0  0  0
  2  4  1  0  0  0  0
  2  5  1  0  0  0  0
  5  6  2  0  0  0  0
  5  7  1  0  0  0  0
  7  8  1  0  0  0  0
  7  9  1  0  0  0  0
  9 10  1  0  0  0  0
  9 11  1  0  0  0  0
  9 22  1  0  0  0  0
 11 12  1  0  0  0  0
 11 13  1  0  0  0  0
 11 14  1  0  0  0  0
 14 15  1  0  0  0  0
 14 20  2  0  0  0  0
 15 16  1  0  0  0  0
 15 17  1  0  0  0  0
 17 18  1  0  0  0  0
 17 19  2  0  0  0  0
 19 20  1  0  0  0  0
 20 21  1  0  0  0  0
 22 23  2  0  0  0  0
 22 24  1  0  0  0  0
 24 25  1  0  0  0  0
 24 26  1  0  0  0  0
 26 27  1  0  0  0  0
 26 28  1  0  0  0  0
 26 29  1  0  0  0  0
M  END
$$$$

  -OEChem-01062216083D

 29 29  0     1  0  0  0  0  0999 V2000
   -3.6180   -2.5672    0.8864 H   0  0  0  0  0  0  0  0  0  0  0  0
   -3.4337   -1.6021    0.4055 C   0  0  0  0  0  0  0  0  0  0  0  0
   -3.9580   -0.8259    0.9678 H   0  0  0  0  0  0  0  0  0  0  0  0
   -3.8259   -1.6369   -0.6136 H   0  0  0  0  0  0  0  0  0  0  0  0
   -1.9455   -1.3082    0.3795 C   0  0  0  0  0  0  0  0  0  0  0  0
   -1.1765   -2.1763    0.7487 O   0  0  0  0  0  0  0  0  0  0  0  0
   -1.5184   -0.1053   -0.1565 N   0  0  0  0  0  0  0  0  0  0  0  0
   -2.2725    0.4794   -0.5012 H   0  0  0  0  0  0  0  0  0  0  0  0
   -0.1784    0.5290   -0.0817 C   0  0  1  0  0  0  0  0  0  0  0  0
   -0.3679    1.5392    0.2906 H   0  0  0  0  0  0  0  0  0  0  0  0
    0.8646   -0.0373    0.9106 C   0  0  0  0  0  0  0  0  0  0  0  0
    1.0615   -1.0906    0.6862 H   0  0  0  0  0  0  0  0  0  0  0  0
    1.8147    0.4911    0.7827 H   0  0  0  0  0  0  0  0  0  0  0  0
    0.4152    0.1227    2.3455 C   0  0  0  0  0  0  0  0  0  0  0  0
    0.4055    1.2897    3.0795 N   0  0  0  0  0  0  0  0  0  0  0  0
    0.7022    2.2074    2.7575 H   0  0  0  0  0  0  0  0  0  0  0  0
   -0.0071    0.9950    4.3650 C   0  0  0  0  0  0  0  0  0  0  0  0
   -0.1148    1.7187    5.1681 H   0  0  0  0  0  0  0  0  0  0  0  0
   -0.2478   -0.2870    4.4797 N   0  0  0  0  0  0  0  0  0  0  0  0
    0.0316   -0.8488    3.2355 C   0  0  0  0  0  0  0  0  0  0  0  0
   -0.0327   -1.9092    3.0112 H   0  0  0  0  0  0  0  0  0  0  0  0
    0.4243    0.7308   -1.4878 C   0  0  0  0  0  0  0  0  0  0  0  0
    1.1787   -0.0946   -1.9826 O   0  0  0  0  0  0  0  0  0  0  0  0
    0.1819    1.9068   -2.1783 N   0  0  0  0  0  0  0  0  0  0  0  0
   -0.4304    2.5931   -1.7494 H   0  0  0  0  0  0  0  0  0  0  0  0
    0.7547    2.1963   -3.4883 C   0  0  0  0  0  0  0  0  0  0  0  0
    0.4358    1.4469   -4.2205 H   0  0  0  0  0  0  0  0  0  0  0  0
    0.4269    3.1805   -3.8363 H   0  0  0  0  0  0  0  0  0  0  0  0
    1.8487    2.1949   -3.4372 H   0  0  0  0  0  0  0  0  0  0  0  0
  1  2  1  0  0  0  0
  2  3  1  0  0  0  0
  2  4  1  0  0  0  0
  2  5  1  0  0  0  0
  5  6  2  0  0  0  0
  5  7  1  0  0  0  0
  7  8  1  0  0  0  0
  7  9  1  0  0  0  0
  9 10  1  0  0  0  0
  9 11  1  0  0  0  0
  9 22  1  0  0  0  0
 11 12  1  0  0  0  0
 11 13  1  0  0  0  0
 11 14  1  0  0  0  0
 14 15  1  0  0  0  0
 14 20  2  0  0  0  0
 15 16  1  0  0  0  0
 15 17  1  0  0  0  0
 17 18  1  0  0  0  0
 17 19  2  0  0  0  0
 19 20  1  0  0  0  0
 20 21  1  0  0  0  0
 22 23  2  0  0  0  0
 22 24  1  0  0  0  0
 24 25  1  0  0  0  0
 24 26  1  0  0  0  0
 26 27  1  0  0  0  0
 26 28  1  0  0  0  0
 26 29  1  0  0  0  0
M  END
$$$$

  -OEChem-01062216083D

 29 29  0     1  0  0  0  0  0999 V2000
   -3.6413   -2.5734    0.8182 H   0  0  0  0  0  0  0  0  0  0  0  0
   -3.4479   -1.6050    0.3476 C   0  0  0  0  0  0  0  0  0  0  0  0
   -4.0079   -0.8367    0.8859 H   0  0  0  0  0  0  0  0  0  0  0  0
   -3.7926   -1.6429   -0.6884 H   0  0  0  0  0  0  0  0  0  0  0  0
   -1.9638   -1.2911    0.3887 C   0  0  0  0  0  0  0  0  0  0  0  0
   -1.2033   -2.1431    0.8098 O   0  0  0  0  0  0  0  0  0  0  0  0
   -1.5292   -0.0900   -0.1452 N   0  0  0  0  0  0  0  0  0  0  0  0
   -2.2689    0.4703   -0.5558 H   0  0  0  0  0  0  0  0  0  0  0  0
   -0.1892    0.5430   -0.0710 C   0  0  1  0  0  0  0  0  0  0  0  0
   -0.3842    1.5508    0.3046 H   0  0  0  0  0  0  0  0  0  0  0  0
    0.8615   -0.0213    0.9125 C   0  0  0  0  0  0  0  0  0  0  0  0
    1.0560   -1.0740    0.6822 H   0  0  0  0  0  0  0  0  0  0  0  0
    1.8096    0.5086    0.7780 H   0  0  0  0  0  0  0  0  0  0  0  0
    0.4276    0.1305    2.3533 C   0  0  0  0  0  0  0  0  0  0  0  0
    0.4223    1.2951    3.0918 N   0  0  0  0  0  0  0  0  0  0  0  0
    0.7041    2.2168    2.7683 H   0  0  0  0  0  0  0  0  0  0  0  0
    0.0321    0.9939    4.3827 C   0  0  0  0  0  0  0  0  0  0  0  0
   -0.0691    1.7147    5.1891 H   0  0  0  0  0  0  0  0  0  0  0  0
   -0.1955   -0.2901    4.4982 N   0  0  0  0  0  0  0  0  0  0  0  0
    0.0664   -0.8463    3.2476 C   0  0  0  0  0  0  0  0  0  0  0  0
    0.0086   -1.9071    3.0232 H   0  0  0  0  0  0  0  0  0  0  0  0
    0.4188    0.7465   -1.4740 C   0  0  0  0  0  0  0  0  0  0  0  0
    0.9038   -0.1885   -2.0941 O   0  0  0  0  0  0  0  0  0  0  0  0
    0.4546    2.0107   -2.0388 N   0  0  0  0  0  0  0  0  0  0  0  0
    0.0599    2.7808   -1.5084 H   0  0  0  0  0  0  0  0  0  0  0  0
    1.0436    2.2864   -3.3448 C   0  0  0  0  0  0  0  0  0  0  0  0
    0.5308    1.7146   -4.1256 H   0  0  0  0  0  0  0  0  0  0  0  0
    0.9558    3.3510   -3.5825 H   0  0  0  0  0  0  0  0  0  0  0  0
    2.1052    2.0174   -3.3517 H   0  0  0  0  0  0  0  0  0  0  0  0
  1  2  1  0  0  0  0
  2  3  1  0  0  0  0
  2  4  1  0  0  0  0
  2  5  1  0  0  0  0
  5  6  2  0  0  0  0
  5  7  1  0  0  0  0
  7  8  1  0  0  0  0
  7  9  1  0  0  0  0
  9 10  1  0  0  0  0
  9 11  1  0  0  0  0
  9 22  1  0  0  0  0
 11 12  1  0  0  0  0
 11 13  1  0  0  0  0
 11 14  1  0  0  0  0
 14 15  1  0  0  0  0
 14 20  2  0  0  0  0
 15 16  1  0  0  0  0
 15 17  1  0  0  0  0
 17 18  1  0  0  0  0
 17 19  2  0  0  0  0
 19 20  1  0  0  0  0
 20 21  1  0  0  0  0
 22 23  2  0  0  0  0
 22 24  1  0  0  0  0
 24 25  1  0  0  0  0
 24 26  1  0  0  0  0
 26 27  1  0  0  0  0
 26 28  1  0  0  0  0
 26 29  1  0  0  0  0
M  END
$$$$

  -OEChem-01062216083D

 29 29  0     1  0  0  0  0  0999 V2000
   -3.6565   -2.5717    0.7617 H   0  0  0  0  0  0  0  0  0  0  0  0
   -3.4539   -1.6039    0.2941 C   0  0  0  0  0  0  0  0  0  0  0  0
   -4.0407   -0.8382    0.8069 H   0  0  0  0  0  0  0  0  0  0  0  0
   -3.7586   -1.6495   -0.7541 H   0  0  0  0  0  0  0  0  0  0  0  0
   -1.9755   -1.2763    0.3908 C   0  0  0  0  0  0  0  0  0  0  0  0
   -1.2261   -2.1135    0.8593 O   0  0  0  0  0  0  0  0  0  0  0  0
   -1.5307   -0.0774   -0.1385 N   0  0  0  0  0  0  0  0  0  0  0  0
   -2.2473    0.4548   -0.6215 H   0  0  0  0  0  0  0  0  0  0  0  0
   -0.1879    0.5480   -0.0602 C   0  0  1  0  0  0  0  0  0  0  0  0
   -0.3860    1.5558    0.3142 H   0  0  0  0  0  0  0  0  0  0  0  0
    0.8631   -0.0150    0.9228 C   0  0  0  0  0  0  0  0  0  0  0  0
    1.0538   -1.0688    0.6933 H   0  0  0  0  0  0  0  0  0  0  0  0
    1.8121    0.5126    0.7860 H   0  0  0  0  0  0  0  0  0  0  0  0
    0.4356    0.1380    2.3657 C   0  0  0  0  0  0  0  0  0  0  0  0
    0.4333    1.3022    3.1055 N   0  0  0  0  0  0  0  0  0  0  0  0
    0.6979    2.2273    2.7776 H   0  0  0  0  0  0  0  0  0  0  0  0
    0.0606    0.9983    4.4011 C   0  0  0  0  0  0  0  0  0  0  0  0
   -0.0356    1.7182    5.2088 H   0  0  0  0  0  0  0  0  0  0  0  0
   -0.1566   -0.2870    4.5193 N   0  0  0  0  0  0  0  0  0  0  0  0
    0.0914   -0.8407    3.2649 C   0  0  0  0  0  0  0  0  0  0  0  0
    0.0405   -1.9021    3.0417 H   0  0  0  0  0  0  0  0  0  0  0  0
    0.4282    0.7529   -1.4592 C   0  0  0  0  0  0  0  0  0  0  0  0
    0.5883   -0.1893   -2.2215 O   0  0  0  0  0  0  0  0  0  0  0  0
    0.7608    2.0251   -1.8933 N   0  0  0  0  0  0  0  0  0  0  0  0
    0.6226    2.7990   -1.2512 H   0  0  0  0  0  0  0  0  0  0  0  0
    1.3364    2.2950   -3.2062 C   0  0  0  0  0  0  0  0  0  0  0  0
    0.6585    1.9602   -3.9985 H   0  0  0  0  0  0  0  0  0  0  0  0
    1.5094    3.3682   -3.3309 H   0  0  0  0  0  0  0  0  0  0  0  0
    2.2935    1.7748   -3.3191 H   0  0  0  0  0  0  0  0  0  0  0  0
  1  2  1  0  0  0  0
  2  3  1  0  0  0  0
  2  4  1  0  0  0  0
  2  5  1  0  0  0  0
  5  6  2  0  0  0  0
  5  7  1  0  0  0  0
  7  8  1  0  0  0  0
  7  9  1  0  0  0  0
  9 10  1  0  0  0  0
  9 11  1  0  0  0  0
  9 22  1  0  0  0  0
 11 12  1  0  0  0  0
 11 13  1  0  0  0  0
 11 14  1  0  0  0  0
 14 15  1  0  0  0  0
 14 20  2  0  0  0  0
 15 16  1  0  0  0  0
 15 17  1  0  0  0  0
 17 18  1  0  0  0  0
 17 19  2  0  0  0  0
 19 20  1  0  0  0  0
 20 21  1  0  0  0  0
 22 23  2  0  0  0  0
 22 24  1  0  0  0  0
 24 25  1  0  0  0  0
 24 26  1  0  0  0  0
 26 27  1  0  0  0  0
 26 28  1  0  0  0  0
 26 29  1  0  0  0  0
M  END
$$$$

  -OEChem-01062216083D

 29 29  0     1  0  0  0  0  0999 V2000
   -3.6718   -2.5817    0.6961 H   0  0  0  0  0  0  0  0  0  0  0  0
   -3.4601   -1.6092    0.2427 C   0  0  0  0  0  0  0  0  0  0  0  0
   -4.0762   -0.8520    0.7329 H   0  0  0  0  0  0  0  0  0  0  0  0
   -3.7183   -1.6525   -0.8181 H   0  0  0  0  0  0  0  0  0  0  0  0
   -1.9913   -1.2652    0.4041 C   0  0  0  0  0  0  0  0  0  0  0  0
   -1.2543   -2.0908    0.9116 O   0  0  0  0  0  0  0  0  0  0  0  0
   -1.5356   -0.0697   -0.1223 N   0  0  0  0  0  0  0  0  0  0  0  0
   -2.2252    0.4312   -0.6737 H   0  0  0  0  0  0  0  0  0  0  0  0
   -0.1871    0.5429   -0.0496 C   0  0  1  0  0  0  0  0  0  0  0  0
   -0.3815    1.5531    0.3207 H   0  0  0  0  0  0  0  0  0  0  0  0
    0.8640   -0.0212    0.9328 C   0  0  0  0  0  0  0  0  0  0  0  0
    1.0430   -1.0781    0.7093 H   0  0  0  0  0  0  0  0  0  0  0  0
    1.8172    0.4968    0.7895 H   0  0  0  0  0  0  0  0  0  0  0  0
    0.4463    0.1429    2.3775 C   0  0  0  0  0  0  0  0  0  0  0  0
    0.4561    1.3109    3.1118 N   0  0  0  0  0  0  0  0  0  0  0  0
    0.7105    2.2355    2.7749 H   0  0  0  0  0  0  0  0  0  0  0  0
    0.0948    1.0151    4.4124 C   0  0  0  0  0  0  0  0  0  0  0  0
    0.0067    1.7398    5.2165 H   0  0  0  0  0  0  0  0  0  0  0  0
   -0.1219   -0.2693    4.5403 N   0  0  0  0  0  0  0  0  0  0  0  0
    0.1099   -0.8300    3.2861 C   0  0  0  0  0  0  0  0  0  0  0  0
    0.0553   -1.8926    3.0697 H   0  0  0  0  0  0  0  0  0  0  0  0
    0.4290    0.7499   -1.4494 C   0  0  0  0  0  0  0  0  0  0  0  0
    0.2780   -0.0801   -2.3352 O   0  0  0  0  0  0  0  0  0  0  0  0
    1.0538    1.9459   -1.7609 N   0  0  0  0  0  0  0  0  0  0  0  0
    1.1722    2.6277   -1.0181 H   0  0  0  0  0  0  0  0  0  0  0  0
    1.6283    2.2295   -3.0713 C   0  0  0  0  0  0  0  0  0  0  0  0
    0.8573    2.1798   -3.8474 H   0  0  0  0  0  0  0  0  0  0  0  0
    2.0660    3.2323   -3.0835 H   0  0  0  0  0  0  0  0  0  0  0  0
    2.4147    1.5054   -3.3092 H   0  0  0  0  0  0  0  0  0  0  0  0
  1  2  1  0  0  0  0
  2  3  1  0  0  0  0
  2  4  1  0  0  0  0
  2  5  1  0  0  0  0
  5  6  2  0  0  0  0
  5  7  1  0  0  0  0
  7  8  1  0  0  0  0
  7  9  1  0  0  0  0
  9 10  1  0  0  0  0
  9 11  1  0  0  0  0
  9 22  1  0  0  0  0
 11 12  1  0  0  0  0
 11 13  1  0  0  0  0
 11 14  1  0  0  0  0
 14 15  1  0  0  0  0
 14 20  2  0  0  0  0
 15 16  1  0  0  0  0
 15 17  1  0  0  0  0
 17 18  1  0  0  0  0
 17 19  2  0  0  0  0
 19 20  1  0  0  0  0
 20 21  1  0  0  0  0
 22 23  2  0  0  0  0
 22 24  1  0  0  0  0
 24 25  1  0  0  0  0
 24 26  1  0  0  0  0
 26 27  1  0  0  0  0
 26 28  1  0  0  0  0
 26 29  1  0  0  0  0
M  END
$$$$

  -OEChem-01062216083D

 29 29  0     1  0  0  0  0  0999 V2000
   -3.6774   -2.5780    0.6630 H   0  0  0  0  0  0  0  0  0  0  0  0
   -3.4575   -1.6047    0.2153 C   0  0  0  0  0  0  0  0  0  0  0  0
   -4.0866   -0.8493    0.6918 H   0  0  0  0  0  0  0  0  0  0  0  0
   -3.6912   -1.6472   -0.8513 H   0  0  0  0  0  0  0  0  0  0  0  0
   -1.9935   -1.2575    0.4107 C   0  0  0  0  0  0  0  0  0  0  0  0
   -1.2649   -2.0827    0.9315 O   0  0  0  0  0  0  0  0  0  0  0  0
   -1.5272   -0.0635   -0.1086 N   0  0  0  0  0  0  0  0  0  0  0  0
   -2.1926    0.4161   -0.7077 H   0  0  0  0  0  0  0  0  0  0  0  0
   -0.1736    0.5379   -0.0380 C   0  0  1  0  0  0  0  0  0  0  0  0
   -0.3589    1.5508    0.3298 H   0  0  0  0  0  0  0  0  0  0  0  0
    0.8707   -0.0339    0.9483 C   0  0  0  0  0  0  0  0  0  0  0  0
    1.0399   -1.0932    0.7287 H   0  0  0  0  0  0  0  0  0  0  0  0
    1.8299    0.4735    0.8087 H   0  0  0  0  0  0  0  0  0  0  0  0
    0.4505    0.1397    2.3913 C   0  0  0  0  0  0  0  0  0  0  0  0
    0.4694    1.3102    3.1217 N   0  0  0  0  0  0  0  0  0  0  0  0
    0.7220    2.2336    2.7796 H   0  0  0  0  0  0  0  0  0  0  0  0
    0.1034    1.0225    4.4228 C   0  0  0  0  0  0  0  0  0  0  0  0
    0.0185    1.7514    5.2235 H   0  0  0  0  0  0  0  0  0  0  0  0
   -0.1224   -0.2598    4.5557 N   0  0  0  0  0  0  0  0  0  0  0  0
    0.1055   -0.8268    3.3036 C   0  0  0  0  0  0  0  0  0  0  0  0
    0.0430   -1.8898    3.0914 H   0  0  0  0  0  0  0  0  0  0  0  0
    0.4362    0.7479   -1.4415 C   0  0  0  0  0  0  0  0  0  0  0  0
    0.0269    0.1179   -2.4082 O   0  0  0  0  0  0  0  0  0  0  0  0
    1.3261    1.7861   -1.6609 N   0  0  0  0  0  0  0  0  0  0  0  0
    1.6575    2.3046   -0.8536 H   0  0  0  0  0  0  0  0  0  0  0  0
    1.8961    2.0866   -2.9697 C   0  0  0  0  0  0  0  0  0  0  0  0
    1.1041    2.3195   -3.6894 H   0  0  0  0  0  0  0  0  0  0  0  0
    2.5652    2.9498   -2.9027 H   0  0  0  0  0  0  0  0  0  0  0  0
    2.4701    1.2316   -3.3426 H   0  0  0  0  0  0  0  0  0  0  0  0
  1  2  1  0  0  0  0
  2  3  1  0  0  0  0
  2  4  1  0  0  0  0
  2  5  1  0  0  0  0
  5  6  2  0  0  0  0
  5  7  1  0  0  0  0
  7  8  1  0  0  0  0
  7  9  1  0  0  0  0
  9 10  1  0  0  0  0
  9 11  1  0  0  0  0
  9 22  1  0  0  0  0
 11 12  1  0  0  0  0
 11 13  1  0  0  0  0
 11 14  1  0  0  0  0
 14 15  1  0  0  0  0
 14 20  2  0  0  0  0
 15 16  1  0  0  0  0
 15 17  1  0  0  0  0
 17 18  1  0  0  0  0
 17 19  2  0  0  0  0
 19 20  1  0  0  0  0
 20 21  1  0  0  0  0
 22 23  2  0  0  0  0
 22 24  1  0  0  0  0
 24 25  1  0  0  0  0
 24 26  1  0  0  0  0
 26 27  1  0  0  0  0
 26 28  1  0  0  0  0
 26 29  1  0  0  0  0
M  END
$$$$

  -OEChem-01062216083D

 29 29  0     1  0  0  0  0  0999 V2000
   -3.6731   -2.5634    0.6666 H   0  0  0  0  0  0  0  0  0  0  0  0
   -3.4470   -1.5927    0.2161 C   0  0  0  0  0  0  0  0  0  0  0  0
   -4.0715   -0.8320    0.6903 H   0  0  0  0  0  0  0  0  0  0  0  0
   -3.6809   -1.6365   -0.8504 H   0  0  0  0  0  0  0  0  0  0  0  0
   -1.9810   -1.2542    0.4109 C   0  0  0  0  0  0  0  0  0  0  0  0
   -1.2535   -2.0916    0.9139 O   0  0  0  0  0  0  0  0  0  0  0  0
   -1.5087   -0.0584   -0.0983 N   0  0  0  0  0  0  0  0  0  0  0  0
   -2.1647    0.4206   -0.7093 H   0  0  0  0  0  0  0  0  0  0  0  0
   -0.1529    0.5382   -0.0260 C   0  0  1  0  0  0  0  0  0  0  0  0
   -0.3291    1.5524    0.3432 H   0  0  0  0  0  0  0  0  0  0  0  0
    0.8807   -0.0475    0.9671 C   0  0  0  0  0  0  0  0  0  0  0  0
    1.0424   -1.1078    0.7472 H   0  0  0  0  0  0  0  0  0  0  0  0
    1.8468    0.4494    0.8425 H   0  0  0  0  0  0  0  0  0  0  0  0
    0.4484    0.1277    2.4062 C   0  0  0  0  0  0  0  0  0  0  0  0
    0.4722    1.2972    3.1376 N   0  0  0  0  0  0  0  0  0  0  0  0
    0.7353    2.2185    2.7978 H   0  0  0  0  0  0  0  0  0  0  0  0
    0.0855    1.0137    4.4336 C   0  0  0  0  0  0  0  0  0  0  0  0
   -0.0015    1.7431    5.2339 H   0  0  0  0  0  0  0  0  0  0  0  0
   -0.1576   -0.2659    4.5623 N   0  0  0  0  0  0  0  0  0  0  0  0
    0.0789   -0.8350    3.3129 C   0  0  0  0  0  0  0  0  0  0  0  0
    0.0036   -1.8970    3.0996 H   0  0  0  0  0  0  0  0  0  0  0  0
    0.4478    0.7544   -1.4347 C   0  0  0  0  0  0  0  0  0  0  0  0
   -0.1401    0.3584   -2.4342 O   0  0  0  0  0  0  0  0  0  0  0  0
    1.5541    1.5697   -1.6068 N   0  0  0  0  0  0  0  0  0  0  0  0
    2.0331    1.8994   -0.7747 H   0  0  0  0  0  0  0  0  0  0  0  0
    2.1295    1.8732   -2.9127 C   0  0  0  0  0  0  0  0  0  0  0  0
    1.3900    2.3644   -3.5540 H   0  0  0  0  0  0  0  0  0  0  0  0
    2.9878    2.5429   -2.8019 H   0  0  0  0  0  0  0  0  0  0  0  0
    2.4678    0.9550   -3.4046 H   0  0  0  0  0  0  0  0  0  0  0  0
  1  2  1  0  0  0  0
  2  3  1  0  0  0  0
  2  4  1  0  0  0  0
  2  5  1  0  0  0  0
  5  6  2  0  0  0  0
  5  7  1  0  0  0  0
  7  8  1  0  0  0  0
  7  9  1  0  0  0  0
  9 10  1  0  0  0  0
  9 11  1  0  0  0  0
  9 22  1  0  0  0  0
 11 12  1  0  0  0  0
 11 13  1  0  0  0  0
 11 14  1  0  0  0  0
 14 15  1  0  0  0  0
 14 20  2  0  0  0  0
 15 16  1  0  0  0  0
 15 17  1  0  0  0  0
 17 18  1  0  0  0  0
 17 19  2  0  0  0  0
 19 20  1  0  0  0  0
 20 21  1  0  0  0  0
 22 23  2  0  0  0  0
 22 24  1  0  0  0  0
 24 25  1  0  0  0  0
 24 26  1  0  0  0  0
 26 27  1  0  0  0  0
 26 28  1  0  0  0  0
 26 29  1  0  0  0  0
M  END
$$$$

  -OEChem-01062216083D

 29 29  0     1  0  0  0  0  0999 V2000
   -2.5489   -2.0826    1.8901 H   0  0  0  0  0  0  0  0  0  0  0  0
   -2.7333   -1.1420    1.3652 C   0  0  0  0  0  0  0  0  0  0  0  0
   -2.3890   -0.3131    1.9863 H   0  0  0  0  0  0  0  0  0  0  0  0
   -3.8083   -1.0318    1.2039 H   0  0  0  0  0  0  0  0  0  0  0  0
   -2.0174   -1.1414    0.0251 C   0  0  0  0  0  0  0  0  0  0  0  0
   -2.2310   -2.0464   -0.7592 O   0  0  0  0  0  0  0  0  0  0  0  0
   -1.5742    0.0291   -0.5373 N   0  0  0  0  0  0  0  0  0  0  0  0
   -1.6945   -0.0404   -1.5518 H   0  0  0  0  0  0  0  0  0  0  0  0
   -0.3030    0.7200   -0.2227 C   0  0  1  0  0  0  0  0  0  0  0  0
   -0.5354    1.6161    0.3596 H   0  0  0  0  0  0  0  0  0  0  0  0
    0.7683   -0.1077    0.5433 C   0  0  0  0  0  0  0  0  0  0  0  0
    1.0036   -0.9974   -0.0528 H   0  0  0  0  0  0  0  0  0  0  0  0
    1.6918    0.4710    0.6345 H   0  0  0  0  0  0  0  0  0  0  0  0
    0.3874   -0.5454    1.9326 C   0  0  0  0  0  0  0  0  0  0  0  0
    0.3294    0.2309    3.0706 N   0  0  0  0  0  0  0  0  0  0  0  0
    0.4580    1.2389    3.1256 H   0  0  0  0  0  0  0  0  0  0  0  0
    0.0685   -0.5936    4.1494 C   0  0  0  0  0  0  0  0  0  0  0  0
   -0.0545   -0.2612    5.1764 H   0  0  0  0  0  0  0  0  0  0  0  0
   -0.0087   -1.8400    3.7529 N   0  0  0  0  0  0  0  0  0  0  0  0
    0.2203   -1.8312    2.3818 C   0  0  0  0  0  0  0  0  0  0  0  0
    0.2682   -2.7187    1.7572 H   0  0  0  0  0  0  0  0  0  0  0  0
    0.3664    1.1612   -1.5527 C   0  0  0  0  0  0  0  0  0  0  0  0
   -0.1854    0.9418   -2.6242 O   0  0  0  0  0  0  0  0  0  0  0  0
    1.5764    1.8366   -1.5664 N   0  0  0  0  0  0  0  0  0  0  0  0
    2.0105    2.0554   -0.6753 H   0  0  0  0  0  0  0  0  0  0  0  0
    2.2255    2.2920   -2.7913 C   0  0  0  0  0  0  0  0  0  0  0  0
    1.6017    3.0328   -3.3026 H   0  0  0  0  0  0  0  0  0  0  0  0
    3.1906    2.7529   -2.5598 H   0  0  0  0  0  0  0  0  0  0  0  0
    2.4001    1.4499   -3.4697 H   0  0  0  0  0  0  0  0  0  0  0  0
  1  2  1  0  0  0  0
  2  3  1  0  0  0  0
  2  4  1  0  0  0  0
  2  5  1  0  0  0  0
  5  6  2  0  0  0  0
  5  7  1  0  0  0  0
  7  8  1  0  0  0  0
  7  9  1  0  0  0  0
  9 10  1  0  0  0  0
  9 11  1  0  0  0  0
  9 22  1  0  0  0  0
 11 12  1  0  0  0  0
 11 13  1  0  0  0  0
 11 14  1  0  0  0  0
 14 15  1  0  0  0  0
 14 20  2  0  0  0  0
 15 16  1  0  0  0  0
 15 17  1  0  0  0  0
 17 18  1  0  0  0  0
 17 19  2  0  0  0  0
 19 20  1  0  0  0  0
 20 21  1  0  0  0  0
 22 23  2  0  0  0  0
 22 24  1  0  0  0  0
 24 25  1  0  0  0  0
 24 26  1  0  0  0  0
 26 27  1  0  0  0  0
 26 28  1  0  0  0  0
 26 29  1  0  0  0  0
M  END
$$$$

  -OEChem-01062216083D

 29 29  0     1  0  0  0  0  0999 V2000
   -2.5696   -2.0971    1.8691 H   0  0  0  0  0  0  0  0  0  0  0  0
   -2.7423   -1.1485    1.3549 C   0  0  0  0  0  0  0  0  0  0  0  0
   -2.4023   -0.3298    1.9920 H   0  0  0  0  0  0  0  0  0  0  0  0
   -3.8143   -1.0302    1.1805 H   0  0  0  0  0  0  0  0  0  0  0  0
   -2.0078   -1.1332    0.0250 C   0  0  0  0  0  0  0  0  0  0  0  0
   -2.2067   -2.0302   -0.7725 O   0  0  0  0  0  0  0  0  0  0  0  0
   -1.5576    0.0439   -0.5175 N   0  0  0  0  0  0  0  0  0  0  0  0
   -1.7065    0.0149   -1.5299 H   0  0  0  0  0  0  0  0  0  0  0  0
   -0.2745    0.7142   -0.2063 C   0  0  1  0  0  0  0  0  0  0  0  0
   -0.4913    1.6087    0.3846 H   0  0  0  0  0  0  0  0  0  0  0  0
    0.7815   -0.1328    0.5605 C   0  0  0  0  0  0  0  0  0  0  0  0
    1.0049   -1.0261   -0.0345 H   0  0  0  0  0  0  0  0  0  0  0  0
    1.7121    0.4324    0.6607 H   0  0  0  0  0  0  0  0  0  0  0  0
    0.3874   -0.5587    1.9496 C   0  0  0  0  0  0  0  0  0  0  0  0
    0.3419    0.2228    3.0845 N   0  0  0  0  0  0  0  0  0  0  0  0
    0.4885    1.2287    3.1356 H   0  0  0  0  0  0  0  0  0  0  0  0
    0.0611   -0.5921    4.1655 C   0  0  0  0  0  0  0  0  0  0  0  0
   -0.0584   -0.2534    5.1908 H   0  0  0  0  0  0  0  0  0  0  0  0
   -0.0393   -1.8383    3.7734 N   0  0  0  0  0  0  0  0  0  0  0  0
    0.1938   -1.8391    2.4031 C   0  0  0  0  0  0  0  0  0  0  0  0
    0.2257   -2.7297    1.7819 H   0  0  0  0  0  0  0  0  0  0  0  0
    0.3713    1.1700   -1.5460 C   0  0  0  0  0  0  0  0  0  0  0  0
   -0.3083    1.2093   -2.5647 O   0  0  0  0  0  0  0  0  0  0  0  0
    1.7000    1.5545   -1.6424 N   0  0  0  0  0  0  0  0  0  0  0  0
    2.2655    1.5358   -0.7999 H   0  0  0  0  0  0  0  0  0  0  0  0
    2.3225    1.9812   -2.8914 C   0  0  0  0  0  0  0  0  0  0  0  0
    1.8343    2.8836   -3.2741 H   0  0  0  0  0  0  0  0  0  0  0  0
    3.3817    2.2032   -2.7303 H   0  0  0  0  0  0  0  0  0  0  0  0
    2.2470    1.1922   -3.6473 H   0  0  0  0  0  0  0  0  0  0  0  0
  1  2  1  0  0  0  0
  2  3  1  0  0  0  0
  2  4  1  0  0  0  0
  2  5  1  0  0  0  0
  5  6  2  0  0  0  0
  5  7  1  0  0  0  0
  7  8  1  0  0  0  0
  7  9  1  0  0  0  0
  9 10  1  0  0  0  0
  9 11  1  0  0  0  0
  9 22  1  0  0  0  0
 11 12  1  0  0  0  0
 11 13  1  0  0  0  0
 11 14  1  0  0  0  0
 14 15  1  0  0  0  0
 14 20  2  0  0  0  0
 15 16  1  0  0  0  0
 15 17  1  0  0  0  0
 17 18  1  0  0  0  0
 17 19  2  0  0  0  0
 19 20  1  0  0  0  0
 20 21  1  0  0  0  0
 22 23  2  0  0  0  0
 22 24  1  0  0  0  0
 24 25  1  0  0  0  0
 24 26  1  0  0  0  0
 26 27  1  0  0  0  0
 26 28  1  0  0  0  0
 26 29  1  0  0  0  0
M  END
$$$$

  -OEChem-01062216083D

 29 29  0     1  0  0  0  0  0999 V2000
   -2.5679   -2.1139    1.8515 H   0  0  0  0  0  0  0  0  0  0  0  0
   -2.7407   -1.1599    1.3471 C   0  0  0  0  0  0  0  0  0  0  0  0
   -2.4026   -0.3477    1.9936 H   0  0  0  0  0  0  0  0  0  0  0  0
   -3.8125   -1.0405    1.1727 H   0  0  0  0  0  0  0  0  0  0  0  0
   -2.0050   -1.1283    0.0182 C   0  0  0  0  0  0  0  0  0  0  0  0
   -2.2079   -2.0108   -0.7947 O   0  0  0  0  0  0  0  0  0  0  0  0
   -1.5468    0.0531   -0.5074 N   0  0  0  0  0  0  0  0  0  0  0  0
   -1.7206    0.0600   -1.5153 H   0  0  0  0  0  0  0  0  0  0  0  0
   -0.2561    0.7056   -0.1925 C   0  0  1  0  0  0  0  0  0  0  0  0
   -0.4647    1.5999    0.4021 H   0  0  0  0  0  0  0  0  0  0  0  0
    0.7910   -0.1470    0.5795 C   0  0  0  0  0  0  0  0  0  0  0  0
    1.0128   -1.0436   -0.0109 H   0  0  0  0  0  0  0  0  0  0  0  0
    1.7214    0.4187    0.6835 H   0  0  0  0  0  0  0  0  0  0  0  0
    0.3888   -0.5633    1.9693 C   0  0  0  0  0  0  0  0  0  0  0  0
    0.3470    0.2242    3.1001 N   0  0  0  0  0  0  0  0  0  0  0  0
    0.5034    1.2290    3.1463 H   0  0  0  0  0  0  0  0  0  0  0  0
    0.0550   -0.5824    4.1844 C   0  0  0  0  0  0  0  0  0  0  0  0
   -0.0639   -0.2370    5.2075 H   0  0  0  0  0  0  0  0  0  0  0  0
   -0.0563   -1.8297    3.7982 N   0  0  0  0  0  0  0  0  0  0  0  0
    0.1820   -1.8394    2.4290 C   0  0  0  0  0  0  0  0  0  0  0  0
    0.2083   -2.7337    1.8130 H   0  0  0  0  0  0  0  0  0  0  0  0
    0.3752    1.1711   -1.5363 C   0  0  0  0  0  0  0  0  0  0  0  0
   -0.3612    1.4751   -2.4667 O   0  0  0  0  0  0  0  0  0  0  0  0
    1.7435    1.2585   -1.7448 N   0  0  0  0  0  0  0  0  0  0  0  0
    2.3603    0.9620   -0.9956 H   0  0  0  0  0  0  0  0  0  0  0  0
    2.3363    1.6538   -3.0184 C   0  0  0  0  0  0  0  0  0  0  0  0
    2.0298    2.6708   -3.2853 H   0  0  0  0  0  0  0  0  0  0  0  0
    3.4281    1.6293   -2.9515 H   0  0  0  0  0  0  0  0  0  0  0  0
    2.0239    0.9712   -3.8159 H   0  0  0  0  0  0  0  0  0  0  0  0
  1  2  1  0  0  0  0
  2  3  1  0  0  0  0
  2  4  1  0  0  0  0
  2  5  1  0  0  0  0
  5  6  2  0  0  0  0
  5  7  1  0  0  0  0
  7  8  1  0  0  0  0
  7  9  1  0  0  0  0
  9 10  1  0  0  0  0
  9 11  1  0  0  0  0
  9 22  1  0  0  0  0
 11 12  1  0  0  0  0
 11 13  1  0  0  0  0
 11 14  1  0  0  0  0
 14 15  1  0  0  0  0
 14 20  2  0  0  0  0
 15 16  1  0  0  0  0
 15 17  1  0  0  0  0
 17 18  1  0  0  0  0
 17 19  2  0  0  0  0
 19 20  1  0  0  0  0
 20 21  1  0  0  0  0
 22 23  2  0  0  0  0
 22 24  1  0  0  0  0
 24 25  1  0  0  0  0
 24 26  1  0  0  0  0
 26 27  1  0  0  0  0
 26 28  1  0  0  0  0
 26 29  1  0  0  0  0
M  END
$$$$

  -OEChem-01062216083D

 29 29  0     1  0  0  0  0  0999 V2000
   -2.5803   -2.1226    1.8356 H   0  0  0  0  0  0  0  0  0  0  0  0
   -2.7453   -1.1626    1.3402 C   0  0  0  0  0  0  0  0  0  0  0  0
   -2.4019   -0.3588    1.9945 H   0  0  0  0  0  0  0  0  0  0  0  0
   -3.8163   -1.0335    1.1662 H   0  0  0  0  0  0  0  0  0  0  0  0
   -2.0068   -1.1243    0.0131 C   0  0  0  0  0  0  0  0  0  0  0  0
   -2.2119   -1.9972   -0.8095 O   0  0  0  0  0  0  0  0  0  0  0  0
   -1.5402    0.0577   -0.5031 N   0  0  0  0  0  0  0  0  0  0  0  0
   -1.7279    0.0831   -1.5071 H   0  0  0  0  0  0  0  0  0  0  0  0
   -0.2425    0.6926   -0.1847 C   0  0  1  0  0  0  0  0  0  0  0  0
   -0.4442    1.5880    0.4107 H   0  0  0  0  0  0  0  0  0  0  0  0
    0.7965   -0.1629    0.5926 C   0  0  0  0  0  0  0  0  0  0  0  0
    1.0095   -1.0672    0.0114 H   0  0  0  0  0  0  0  0  0  0  0  0
    1.7311    0.3989    0.6884 H   0  0  0  0  0  0  0  0  0  0  0  0
    0.3870   -0.5671    1.9835 C   0  0  0  0  0  0  0  0  0  0  0  0
    0.3483    0.2284    3.1088 N   0  0  0  0  0  0  0  0  0  0  0  0
    0.5148    1.2321    3.1483 H   0  0  0  0  0  0  0  0  0  0  0  0
    0.0460   -0.5682    4.1976 C   0  0  0  0  0  0  0  0  0  0  0  0
   -0.0743   -0.2152    5.2180 H   0  0  0  0  0  0  0  0  0  0  0  0
   -0.0739   -1.8173    3.8195 N   0  0  0  0  0  0  0  0  0  0  0  0
    0.1680   -1.8381    2.4512 C   0  0  0  0  0  0  0  0  0  0  0  0
    0.1886   -2.7363    1.8409 H   0  0  0  0  0  0  0  0  0  0  0  0
    0.3859    1.1623   -1.5256 C   0  0  0  0  0  0  0  0  0  0  0  0
   -0.3332    1.7137   -2.3485 O   0  0  0  0  0  0  0  0  0  0  0  0
    1.7167    0.9616   -1.8603 N   0  0  0  0  0  0  0  0  0  0  0  0
    2.2928    0.4256   -1.2191 H   0  0  0  0  0  0  0  0  0  0  0  0
    2.2797    1.3376   -3.1527 C   0  0  0  0  0  0  0  0  0  0  0  0
    2.1972    2.4187   -3.3064 H   0  0  0  0  0  0  0  0  0  0  0  0
    3.3376    1.0620   -3.2000 H   0  0  0  0  0  0  0  0  0  0  0  0
    1.7529    0.8254   -3.9648 H   0  0  0  0  0  0  0  0  0  0  0  0
  1  2  1  0  0  0  0
  2  3  1  0  0  0  0
  2  4  1  0  0  0  0
  2  5  1  0  0  0  0
  5  6  2  0  0  0  0
  5  7  1  0  0  0  0
  7  8  1  0  0  0  0
  7  9  1  0  0  0  0
  9 10  1  0  0  0  0
  9 11  1  0  0  0  0
  9 22  1  0  0  0  0
 11 12  1  0  0  0  0
 11 13  1  0  0  0  0
 11 14  1  0  0  0  0
 14 15  1  0  0  0  0
 14 20  2  0  0  0  0
 15 16  1  0  0  0  0
 15 17  1  0  0  0  0
 17 18  1  0  0  0  0
 17 19  2  0  0  0  0
 19 20  1  0  0  0  0
 20 21  1  0  0  0  0
 22 23  2  0  0  0  0
 22 24  1  0  0  0  0
 24 25  1  0  0  0  0
 24 26  1  0  0  0  0
 26 27  1  0  0  0  0
 26 28  1  0  0  0  0
 26 29  1  0  0  0  0
M  END
$$$$

  -OEChem-01062216083D

 29 29  0     1  0  0  0  0  0999 V2000
   -2.5930   -2.1232    1.8397 H   0  0  0  0  0  0  0  0  0  0  0  0
   -2.7530   -1.1606    1.3478 C   0  0  0  0  0  0  0  0  0  0  0  0
   -2.4044   -0.3611    2.0048 H   0  0  0  0  0  0  0  0  0  0  0  0
   -3.8234   -1.0253    1.1761 H   0  0  0  0  0  0  0  0  0  0  0  0
   -2.0163   -1.1218    0.0195 C   0  0  0  0  0  0  0  0  0  0  0  0
   -2.2278   -1.9893   -0.8072 O   0  0  0  0  0  0  0  0  0  0  0  0
   -1.5445    0.0578   -0.4972 N   0  0  0  0  0  0  0  0  0  0  0  0
   -1.7455    0.0883   -1.4973 H   0  0  0  0  0  0  0  0  0  0  0  0
   -0.2384    0.6764   -0.1833 C   0  0  1  0  0  0  0  0  0  0  0  0
   -0.4317    1.5730    0.4137 H   0  0  0  0  0  0  0  0  0  0  0  0
    0.7967   -0.1814    0.5947 C   0  0  0  0  0  0  0  0  0  0  0  0
    0.9950   -1.0957    0.0242 H   0  0  0  0  0  0  0  0  0  0  0  0
    1.7381    0.3732    0.6732 H   0  0  0  0  0  0  0  0  0  0  0  0
    0.3868   -0.5717    1.9893 C   0  0  0  0  0  0  0  0  0  0  0  0
    0.3582    0.2343    3.1069 N   0  0  0  0  0  0  0  0  0  0  0  0
    0.5330    1.2370    3.1359 H   0  0  0  0  0  0  0  0  0  0  0  0
    0.0487   -0.5487    4.2034 C   0  0  0  0  0  0  0  0  0  0  0  0
   -0.0661   -0.1846    5.2205 H   0  0  0  0  0  0  0  0  0  0  0  0
   -0.0857   -1.7999    3.8368 N   0  0  0  0  0  0  0  0  0  0  0  0
    0.1551   -1.8360    2.4686 C   0  0  0  0  0  0  0  0  0  0  0  0
    0.1648   -2.7400    1.8665 H   0  0  0  0  0  0  0  0  0  0  0  0
    0.3915    1.1465   -1.5200 C   0  0  0  0  0  0  0  0  0  0  0  0
   -0.2384    1.9306   -2.2160 O   0  0  0  0  0  0  0  0  0  0  0  0
    1.6101    0.6845   -1.9931 N   0  0  0  0  0  0  0  0  0  0  0  0
    2.0715   -0.0534   -1.4702 H   0  0  0  0  0  0  0  0  0  0  0  0
    2.1522    1.0552   -3.2959 C   0  0  0  0  0  0  0  0  0  0  0  0
    2.2962    2.1392   -3.3568 H   0  0  0  0  0  0  0  0  0  0  0  0
    3.1200    0.5701   -3.4556 H   0  0  0  0  0  0  0  0  0  0  0  0
    1.4728    0.7442   -4.0966 H   0  0  0  0  0  0  0  0  0  0  0  0
  1  2  1  0  0  0  0
  2  3  1  0  0  0  0
  2  4  1  0  0  0  0
  2  5  1  0  0  0  0
  5  6  2  0  0  0  0
  5  7  1  0  0  0  0
  7  8  1  0  0  0  0
  7  9  1  0  0  0  0
  9 10  1  0  0  0  0
  9 11  1  0  0  0  0
  9 22  1  0  0  0  0
 11 12  1  0  0  0  0
 11 13  1  0  0  0  0
 11 14  1  0  0  0  0
 14 15  1  0  0  0  0
 14 20  2  0  0  0  0
 15 16  1  0  0  0  0
 15 17  1  0  0  0  0
 17 18  1  0  0  0  0
 17 19  2  0  0  0  0
 19 20  1  0  0  0  0
 20 21  1  0  0  0  0
 22 23  2  0  0  0  0
 22 24  1  0  0  0  0
 24 25  1  0  0  0  0
 24 26  1  0  0  0  0
 26 27  1  0  0  0  0
 26 28  1  0  0  0  0
 26 29  1  0  0  0  0
M  END
$$$$

  -OEChem-01062216083D

 29 29  0     1  0  0  0  0  0999 V2000
   -2.6060   -2.1187    1.8552 H   0  0  0  0  0  0  0  0  0  0  0  0
   -2.7638   -1.1559    1.3630 C   0  0  0  0  0  0  0  0  0  0  0  0
   -2.4079   -0.3578    2.0178 H   0  0  0  0  0  0  0  0  0  0  0  0
   -3.8342   -1.0151    1.1953 H   0  0  0  0  0  0  0  0  0  0  0  0
   -2.0320   -1.1226    0.0322 C   0  0  0  0  0  0  0  0  0  0  0  0
   -2.2346   -1.9973   -0.7893 O   0  0  0  0  0  0  0  0  0  0  0  0
   -1.5628    0.0534   -0.4938 N   0  0  0  0  0  0  0  0  0  0  0  0
   -1.7668    0.0708   -1.4926 H   0  0  0  0  0  0  0  0  0  0  0  0
   -0.2500    0.6603   -0.1873 C   0  0  1  0  0  0  0  0  0  0  0  0
   -0.4367    1.5578    0.4109 H   0  0  0  0  0  0  0  0  0  0  0  0
    0.7874   -0.1961    0.5878 C   0  0  0  0  0  0  0  0  0  0  0  0
    0.9764   -1.1168    0.0253 H   0  0  0  0  0  0  0  0  0  0  0  0
    1.7329    0.3540    0.6485 H   0  0  0  0  0  0  0  0  0  0  0  0
    0.3843   -0.5760    1.9872 C   0  0  0  0  0  0  0  0  0  0  0  0
    0.3660    0.2386    3.0987 N   0  0  0  0  0  0  0  0  0  0  0  0
    0.5452    1.2410    3.1184 H   0  0  0  0  0  0  0  0  0  0  0  0
    0.0579   -0.5343    4.2029 C   0  0  0  0  0  0  0  0  0  0  0  0
   -0.0512   -0.1613    5.2176 H   0  0  0  0  0  0  0  0  0  0  0  0
   -0.0850   -1.7877    3.8467 N   0  0  0  0  0  0  0  0  0  0  0  0
    0.1488   -1.8352    2.4776 C   0  0  0  0  0  0  0  0  0  0  0  0
    0.1503   -2.7434    1.8819 H   0  0  0  0  0  0  0  0  0  0  0  0
    0.3860    1.1274   -1.5187 C   0  0  0  0  0  0  0  0  0  0  0  0
   -0.0763    2.1144   -2.0721 O   0  0  0  0  0  0  0  0  0  0  0  0
    1.4271    0.4500   -2.1333 N   0  0  0  0  0  0  0  0  0  0  0  0
    1.7046   -0.4431   -1.7372 H   0  0  0  0  0  0  0  0  0  0  0  0
    1.9682    0.8310   -3.4335 C   0  0  0  0  0  0  0  0  0  0  0  0
    2.3505    1.8568   -3.4040 H   0  0  0  0  0  0  0  0  0  0  0  0
    2.7912    0.1655   -3.7109 H   0  0  0  0  0  0  0  0  0  0  0  0
    1.1944    0.7655   -4.2056 H   0  0  0  0  0  0  0  0  0  0  0  0
  1  2  1  0  0  0  0
  2  3  1  0  0  0  0
  2  4  1  0  0  0  0
  2  5  1  0  0  0  0
  5  6  2  0  0  0  0
  5  7  1  0  0  0  0
  7  8  1  0  0  0  0
  7  9  1  0  0  0  0
  9 10  1  0  0  0  0
  9 11  1  0  0  0  0
  9 22  1  0  0  0  0
 11 12  1  0  0  0  0
 11 13  1  0  0  0  0
 11 14  1  0  0  0  0
 14 15  1  0  0  0  0
 14 20  2  0  0  0  0
 15 16  1  0  0  0  0
 15 17  1  0  0  0  0
 17 18  1  0  0  0  0
 17 19  2  0  0  0  0
 19 20  1  0  0  0  0
 20 21  1  0  0  0  0
 22 23  2  0  0  0  0
 22 24  1  0  0  0  0
 24 25  1  0  0  0  0
 24 26  1  0  0  0  0
 26 27  1  0  0  0  0
 26 28  1  0  0  0  0
 26 29  1  0  0  0  0
M  END
$$$$

  -OEChem-01062216083D

 29 29  0     1  0  0  0  0  0999 V2000
   -2.6164   -2.1083    1.8866 H   0  0  0  0  0  0  0  0  0  0  0  0
   -2.7751   -1.1487    1.3883 C   0  0  0  0  0  0  0  0  0  0  0  0
   -2.4133   -0.3469    2.0355 H   0  0  0  0  0  0  0  0  0  0  0  0
   -3.8461   -1.0064    1.2258 H   0  0  0  0  0  0  0  0  0  0  0  0
   -2.0511   -1.1254    0.0531 C   0  0  0  0  0  0  0  0  0  0  0  0
   -2.2485   -2.0090   -0.7601 O   0  0  0  0  0  0  0  0  0  0  0  0
   -1.5911    0.0461   -0.4899 N   0  0  0  0  0  0  0  0  0  0  0  0
   -1.7974    0.0426   -1.4878 H   0  0  0  0  0  0  0  0  0  0  0  0
   -0.2769    0.6547   -0.1922 C   0  0  1  0  0  0  0  0  0  0  0  0
   -0.4626    1.5537    0.4044 H   0  0  0  0  0  0  0  0  0  0  0  0
    0.7731   -0.1938    0.5741 C   0  0  0  0  0  0  0  0  0  0  0  0
    0.9664   -1.1143    0.0131 H   0  0  0  0  0  0  0  0  0  0  0  0
    1.7152    0.3636    0.6234 H   0  0  0  0  0  0  0  0  0  0  0  0
    0.3838   -0.5737    1.9772 C   0  0  0  0  0  0  0  0  0  0  0  0
    0.3699    0.2429    3.0869 N   0  0  0  0  0  0  0  0  0  0  0  0
    0.5521    1.2447    3.1040 H   0  0  0  0  0  0  0  0  0  0  0  0
    0.0748   -0.5299    4.1946 C   0  0  0  0  0  0  0  0  0  0  0  0
   -0.0235   -0.1566    5.2101 H   0  0  0  0  0  0  0  0  0  0  0  0
   -0.0698   -1.7840    3.8410 N   0  0  0  0  0  0  0  0  0  0  0  0
    0.1541   -1.8328    2.4704 C   0  0  0  0  0  0  0  0  0  0  0  0
    0.1519   -2.7414    1.8755 H   0  0  0  0  0  0  0  0  0  0  0  0
    0.3609    1.1110   -1.5232 C   0  0  0  0  0  0  0  0  0  0  0  0
    0.1374    2.2413   -1.9306 O   0  0  0  0  0  0  0  0  0  0  0  0
    1.1745    0.2763   -2.2711 N   0  0  0  0  0  0  0  0  0  0  0  0
    1.2278   -0.6987   -1.9888 H   0  0  0  0  0  0  0  0  0  0  0  0
    1.7365    0.6583   -3.5619 C   0  0  0  0  0  0  0  0  0  0  0  0
    2.3551    1.5563   -3.4606 H   0  0  0  0  0  0  0  0  0  0  0  0
    2.3637   -0.1478   -3.9549 H   0  0  0  0  0  0  0  0  0  0  0  0
    0.9382    0.8600   -4.2838 H   0  0  0  0  0  0  0  0  0  0  0  0
  1  2  1  0  0  0  0
  2  3  1  0  0  0  0
  2  4  1  0  0  0  0
  2  5  1  0  0  0  0
  5  6  2  0  0  0  0
  5  7  1  0  0  0  0
  7  8  1  0  0  0  0
  7  9  1  0  0  0  0
  9 10  1  0  0  0  0
  9 11  1  0  0  0  0
  9 22  1  0  0  0  0
 11 12  1  0  0  0  0
 11 13  1  0  0  0  0
 11 14  1  0  0  0  0
 14 15  1  0  0  0  0
 14 20  2  0  0  0  0
 15 16  1  0  0  0  0
 15 17  1  0  0  0  0
 17 18  1  0  0  0  0
 17 19  2  0  0  0  0
 19 20  1  0  0  0  0
 20 21  1  0  0  0  0
 22 23  2  0  0  0  0
 22 24  1  0  0  0  0
 24 25  1  0  0  0  0
 24 26  1  0  0  0  0
 26 27  1  0  0  0  0
 26 28  1  0  0  0  0
 26 29  1  0  0  0  0
M  END
$$$$

  -OEChem-01062216083D

 29 29  0     1  0  0  0  0  0999 V2000
   -2.5875   -2.1069    1.9187 H   0  0  0  0  0  0  0  0  0  0  0  0
   -2.7740   -1.1545    1.4163 C   0  0  0  0  0  0  0  0  0  0  0  0
   -2.4146   -0.3409    2.0498 H   0  0  0  0  0  0  0  0  0  0  0  0
   -3.8506   -1.0339    1.2739 H   0  0  0  0  0  0  0  0  0  0  0  0
   -2.0760   -1.1294    0.0676 C   0  0  0  0  0  0  0  0  0  0  0  0
   -2.2829   -2.0130   -0.7433 O   0  0  0  0  0  0  0  0  0  0  0  0
   -1.6258    0.0394   -0.4886 N   0  0  0  0  0  0  0  0  0  0  0  0
   -1.8316    0.0193   -1.4861 H   0  0  0  0  0  0  0  0  0  0  0  0
   -0.3174    0.6621   -0.1947 C   0  0  1  0  0  0  0  0  0  0  0  0
   -0.5096    1.5617    0.3992 H   0  0  0  0  0  0  0  0  0  0  0  0
    0.7527   -0.1706    0.5594 C   0  0  0  0  0  0  0  0  0  0  0  0
    0.9602   -1.0837   -0.0086 H   0  0  0  0  0  0  0  0  0  0  0  0
    1.6848    0.4036    0.6020 H   0  0  0  0  0  0  0  0  0  0  0  0
    0.3820   -0.5634    1.9640 C   0  0  0  0  0  0  0  0  0  0  0  0
    0.3636    0.2492    3.0765 N   0  0  0  0  0  0  0  0  0  0  0  0
    0.5328    1.2534    3.0957 H   0  0  0  0  0  0  0  0  0  0  0  0
    0.0891   -0.5315    4.1838 C   0  0  0  0  0  0  0  0  0  0  0  0
   -0.0091   -0.1624    5.2009 H   0  0  0  0  0  0  0  0  0  0  0  0
   -0.0371   -1.7868    3.8271 N   0  0  0  0  0  0  0  0  0  0  0  0
    0.1777   -1.8277    2.4547 C   0  0  0  0  0  0  0  0  0  0  0  0
    0.1873   -2.7346    1.8570 H   0  0  0  0  0  0  0  0  0  0  0  0
    0.3192    1.1076   -1.5267 C   0  0  0  0  0  0  0  0  0  0  0  0
    0.3675    2.2968   -1.8034 O   0  0  0  0  0  0  0  0  0  0  0  0
    0.8753    0.1840   -2.3949 N   0  0  0  0  0  0  0  0  0  0  0  0
    0.7248   -0.8007   -2.1890 H   0  0  0  0  0  0  0  0  0  0  0  0
    1.4656    0.5487   -3.6776 C   0  0  0  0  0  0  0  0  0  0  0  0
    2.2924    1.2522   -3.5329 H   0  0  0  0  0  0  0  0  0  0  0  0
    1.8555   -0.3413   -4.1810 H   0  0  0  0  0  0  0  0  0  0  0  0
    0.7164    1.0139   -4.3268 H   0  0  0  0  0  0  0  0  0  0  0  0
  1  2  1  0  0  0  0
  2  3  1  0  0  0  0
  2  4  1  0  0  0  0
  2  5  1  0  0  0  0
  5  6  2  0  0  0  0
  5  7  1  0  0  0  0
  7  8  1  0  0  0  0
  7  9  1  0  0  0  0
  9 10  1  0  0  0  0
  9 11  1  0  0  0  0
  9 22  1  0  0  0  0
 11 12  1  0  0  0  0
 11 13  1  0  0  0  0
 11 14  1  0  0  0  0
 14 15  1  0  0  0  0
 14 20  2  0  0  0  0
 15 16  1  0  0  0  0
 15 17  1  0  0  0  0
 17 18  1  0  0  0  0
 17 19  2  0  0  0  0
 19 20  1  0  0  0  0
 20 21  1  0  0  0  0
 22 23  2  0  0  0  0
 22 24  1  0  0  0  0
 24 25  1  0  0  0  0
 24 26  1  0  0  0  0
 26 27  1  0  0  0  0
 26 28  1  0  0  0  0
 26 29  1  0  0  0  0
M  END
$$$$

  -OEChem-01062216083D

 29 29  0     1  0  0  0  0  0999 V2000
   -2.5650   -2.1069    1.9538 H   0  0  0  0  0  0  0  0  0  0  0  0
   -2.7694   -1.1579    1.4521 C   0  0  0  0  0  0  0  0  0  0  0  0
   -2.4024   -0.3393    2.0747 H   0  0  0  0  0  0  0  0  0  0  0  0
   -3.8497   -1.0457    1.3335 H   0  0  0  0  0  0  0  0  0  0  0  0
   -2.1019   -1.1326    0.0880 C   0  0  0  0  0  0  0  0  0  0  0  0
   -2.3305   -2.0117   -0.7219 O   0  0  0  0  0  0  0  0  0  0  0  0
   -1.6654    0.0346   -0.4818 N   0  0  0  0  0  0  0  0  0  0  0  0
   -1.8770    0.0049   -1.4776 H   0  0  0  0  0  0  0  0  0  0  0  0
   -0.3694    0.6859   -0.1928 C   0  0  1  0  0  0  0  0  0  0  0  0
   -0.5721    1.5856    0.3971 H   0  0  0  0  0  0  0  0  0  0  0  0
    0.7266   -0.1289    0.5422 C   0  0  0  0  0  0  0  0  0  0  0  0
    0.9523   -1.0282   -0.0407 H   0  0  0  0  0  0  0  0  0  0  0  0
    1.6448    0.4679    0.5838 H   0  0  0  0  0  0  0  0  0  0  0  0
    0.3811   -0.5476    1.9453 C   0  0  0  0  0  0  0  0  0  0  0  0
    0.3546    0.2502    3.0684 N   0  0  0  0  0  0  0  0  0  0  0  0
    0.5042    1.2573    3.0993 H   0  0  0  0  0  0  0  0  0  0  0  0
    0.1107   -0.5515    4.1677 C   0  0  0  0  0  0  0  0  0  0  0  0
    0.0148   -0.1986    5.1905 H   0  0  0  0  0  0  0  0  0  0  0  0
    0.0109   -1.8048    3.7960 N   0  0  0  0  0  0  0  0  0  0  0  0
    0.2127   -1.8228    2.4211 C   0  0  0  0  0  0  0  0  0  0  0  0
    0.2381   -2.7215    1.8116 H   0  0  0  0  0  0  0  0  0  0  0  0
    0.2624    1.1202   -1.5287 C   0  0  0  0  0  0  0  0  0  0  0  0
    0.5714    2.2893   -1.7044 O   0  0  0  0  0  0  0  0  0  0  0  0
    0.5520    0.1794   -2.5017 N   0  0  0  0  0  0  0  0  0  0  0  0
    0.2562   -0.7800   -2.3331 H   0  0  0  0  0  0  0  0  0  0  0  0
    1.1771    0.5107   -3.7761 C   0  0  0  0  0  0  0  0  0  0  0  0
    2.1614    0.9625   -3.6138 H   0  0  0  0  0  0  0  0  0  0  0  0
    1.3078   -0.3931   -4.3790 H   0  0  0  0  0  0  0  0  0  0  0  0
    0.5541    1.2148   -4.3376 H   0  0  0  0  0  0  0  0  0  0  0  0
  1  2  1  0  0  0  0
  2  3  1  0  0  0  0
  2  4  1  0  0  0  0
  2  5  1  0  0  0  0
  5  6  2  0  0  0  0
  5  7  1  0  0  0  0
  7  8  1  0  0  0  0
  7  9  1  0  0  0  0
  9 10  1  0  0  0  0
  9 11  1  0  0  0  0
  9 22  1  0  0  0  0
 11 12  1  0  0  0  0
 11 13  1  0  0  0  0
 11 14  1  0  0  0  0
 14 15  1  0  0  0  0
 14 20  2  0  0  0  0
 15 16  1  0  0  0  0
 15 17  1  0  0  0  0
 17 18  1  0  0  0  0
 17 19  2  0  0  0  0
 19 20  1  0  0  0  0
 20 21  1  0  0  0  0
 22 23  2  0  0  0  0
 22 24  1  0  0  0  0
 24 25  1  0  0  0  0
 24 26  1  0  0  0  0
 26 27  1  0  0  0  0
 26 28  1  0  0  0  0
 26 29  1  0  0  0  0
M  END
$$$$

  -OEChem-01062216083D

 29 29  0     1  0  0  0  0  0999 V2000
   -2.5216   -2.1280    1.9820 H   0  0  0  0  0  0  0  0  0  0  0  0
   -2.7596   -1.1861    1.4814 C   0  0  0  0  0  0  0  0  0  0  0  0
   -2.3993   -0.3559    2.0923 H   0  0  0  0  0  0  0  0  0  0  0  0
   -3.8447   -1.1009    1.3873 H   0  0  0  0  0  0  0  0  0  0  0  0
   -2.1253   -1.1509    0.1014 C   0  0  0  0  0  0  0  0  0  0  0  0
   -2.3982   -2.0103   -0.7159 O   0  0  0  0  0  0  0  0  0  0  0  0
   -1.6979    0.0185   -0.4710 N   0  0  0  0  0  0  0  0  0  0  0  0
   -1.9303    0.0005   -1.4622 H   0  0  0  0  0  0  0  0  0  0  0  0
   -0.4157    0.7007   -0.1874 C   0  0  1  0  0  0  0  0  0  0  0  0
   -0.6331    1.5974    0.4018 H   0  0  0  0  0  0  0  0  0  0  0  0
    0.7003   -0.0966    0.5351 C   0  0  0  0  0  0  0  0  0  0  0  0
    0.9412   -0.9844   -0.0602 H   0  0  0  0  0  0  0  0  0  0  0  0
    1.6063    0.5188    0.5771 H   0  0  0  0  0  0  0  0  0  0  0  0
    0.3758   -0.5344    1.9372 C   0  0  0  0  0  0  0  0  0  0  0  0
    0.3425    0.2553    3.0656 N   0  0  0  0  0  0  0  0  0  0  0  0
    0.4792    1.2640    3.1021 H   0  0  0  0  0  0  0  0  0  0  0  0
    0.1262   -0.5582    4.1620 C   0  0  0  0  0  0  0  0  0  0  0  0
    0.0341   -0.2140    5.1883 H   0  0  0  0  0  0  0  0  0  0  0  0
    0.0474   -1.8108    3.7824 N   0  0  0  0  0  0  0  0  0  0  0  0
    0.2382   -1.8158    2.4056 C   0  0  0  0  0  0  0  0  0  0  0  0
    0.2775   -2.7097    1.7898 H   0  0  0  0  0  0  0  0  0  0  0  0
    0.2168    1.1380   -1.5219 C   0  0  0  0  0  0  0  0  0  0  0  0
    0.7364    2.2403   -1.6151 O   0  0  0  0  0  0  0  0  0  0  0  0
    0.2522    0.2664   -2.5971 N   0  0  0  0  0  0  0  0  0  0  0  0
   -0.1296   -0.6678   -2.4609 H   0  0  0  0  0  0  0  0  0  0  0  0
    0.8896    0.5891   -3.8680 C   0  0  0  0  0  0  0  0  0  0  0  0
    1.9597    0.7722   -3.7249 H   0  0  0  0  0  0  0  0  0  0  0  0
    0.7715   -0.2406   -4.5717 H   0  0  0  0  0  0  0  0  0  0  0  0
    0.4351    1.4825   -4.3092 H   0  0  0  0  0  0  0  0  0  0  0  0
  1  2  1  0  0  0  0
  2  3  1  0  0  0  0
  2  4  1  0  0  0  0
  2  5  1  0  0  0  0
  5  6  2  0  0  0  0
  5  7  1  0  0  0  0
  7  8  1  0  0  0  0
  7  9  1  0  0  0  0
  9 10  1  0  0  0  0
  9 11  1  0  0  0  0
  9 22  1  0  0  0  0
 11 12  1  0  0  0  0
 11 13  1  0  0  0  0
 11 14  1  0  0  0  0
 14 15  1  0  0  0  0
 14 20  2  0  0  0  0
 15 16  1  0  0  0  0
 15 17  1  0  0  0  0
 17 18  1  0  0  0  0
 17 19  2  0  0  0  0
 19 20  1  0  0  0  0
 20 21  1  0  0  0  0
 22 23  2  0  0  0  0
 22 24  1  0  0  0  0
 24 25  1  0  0  0  0
 24 26  1  0  0  0  0
 26 27  1  0  0  0  0
 26 28  1  0  0  0  0
 26 29  1  0  0  0  0
M  END
$$$$

  -OEChem-01062216083D

 29 29  0     1  0  0  0  0  0999 V2000
   -2.4720   -2.1488    2.0031 H   0  0  0  0  0  0  0  0  0  0  0  0
   -2.7480   -1.2150    1.5073 C   0  0  0  0  0  0  0  0  0  0  0  0
   -2.3966   -0.3730    2.1072 H   0  0  0  0  0  0  0  0  0  0  0  0
   -3.8372   -1.1603    1.4408 H   0  0  0  0  0  0  0  0  0  0  0  0
   -2.1512   -1.1659    0.1111 C   0  0  0  0  0  0  0  0  0  0  0  0
   -2.4833   -1.9940   -0.7165 O   0  0  0  0  0  0  0  0  0  0  0  0
   -1.7249    0.0062   -0.4571 N   0  0  0  0  0  0  0  0  0  0  0  0
   -1.9899    0.0151   -1.4394 H   0  0  0  0  0  0  0  0  0  0  0  0
   -0.4541    0.7140   -0.1795 C   0  0  1  0  0  0  0  0  0  0  0  0
   -0.6830    1.6081    0.4093 H   0  0  0  0  0  0  0  0  0  0  0  0
    0.6758   -0.0729    0.5353 C   0  0  0  0  0  0  0  0  0  0  0  0
    0.9251   -0.9526   -0.0686 H   0  0  0  0  0  0  0  0  0  0  0  0
    1.5748    0.5527    0.5780 H   0  0  0  0  0  0  0  0  0  0  0  0
    0.3692   -0.5254    1.9368 C   0  0  0  0  0  0  0  0  0  0  0  0
    0.3334    0.2555    3.0712 N   0  0  0  0  0  0  0  0  0  0  0  0
    0.4515    1.2662    3.1131 H   0  0  0  0  0  0  0  0  0  0  0  0
    0.1479   -0.5700    4.1645 C   0  0  0  0  0  0  0  0  0  0  0  0
    0.0626   -0.2350    5.1944 H   0  0  0  0  0  0  0  0  0  0  0  0
    0.0898   -1.8212    3.7771 N   0  0  0  0  0  0  0  0  0  0  0  0
    0.2646   -1.8125    2.3983 C   0  0  0  0  0  0  0  0  0  0  0  0
    0.3176   -2.7017    1.7768 H   0  0  0  0  0  0  0  0  0  0  0  0
    0.1810    1.1594   -1.5130 C   0  0  0  0  0  0  0  0  0  0  0  0
    0.8807    2.1615   -1.5432 O   0  0  0  0  0  0  0  0  0  0  0  0
   -0.0204    0.4292   -2.6731 N   0  0  0  0  0  0  0  0  0  0  0  0
   -0.4788   -0.4751   -2.5817 H   0  0  0  0  0  0  0  0  0  0  0  0
    0.6204    0.7598   -3.9405 C   0  0  0  0  0  0  0  0  0  0  0  0
    1.7093    0.6866   -3.8503 H   0  0  0  0  0  0  0  0  0  0  0  0
    0.2896    0.0695   -4.7225 H   0  0  0  0  0  0  0  0  0  0  0  0
    0.3604    1.7782   -4.2482 H   0  0  0  0  0  0  0  0  0  0  0  0
  1  2  1  0  0  0  0
  2  3  1  0  0  0  0
  2  4  1  0  0  0  0
  2  5  1  0  0  0  0
  5  6  2  0  0  0  0
  5  7  1  0  0  0  0
  7  8  1  0  0  0  0
  7  9  1  0  0  0  0
  9 10  1  0  0  0  0
  9 11  1  0  0  0  0
  9 22  1  0  0  0  0
 11 12  1  0  0  0  0
 11 13  1  0  0  0  0
 11 14  1  0  0  0  0
 14 15  1  0  0  0  0
 14 20  2  0  0  0  0
 15 16  1  0  0  0  0
 15 17  1  0  0  0  0
 17 18  1  0  0  0  0
 17 19  2  0  0  0  0
 19 20  1  0  0  0  0
 20 21  1  0  0  0  0
 22 23  2  0  0  0  0
 22 24  1  0  0  0  0
 24 25  1  0  0  0  0
 24 26  1  0  0  0  0
 26 27  1  0  0  0  0
 26 28  1  0  0  0  0
 26 29  1  0  0  0  0
M  END
$$$$

  -OEChem-01062216083D

 29 29  0     1  0  0  0  0  0999 V2000
   -2.4275   -2.1688    2.0128 H   0  0  0  0  0  0  0  0  0  0  0  0
   -2.7356   -1.2426    1.5223 C   0  0  0  0  0  0  0  0  0  0  0  0
   -2.3950   -0.3908    2.1144 H   0  0  0  0  0  0  0  0  0  0  0  0
   -3.8270   -1.2164    1.4784 H   0  0  0  0  0  0  0  0  0  0  0  0
   -2.1687   -1.1802    0.1139 C   0  0  0  0  0  0  0  0  0  0  0  0
   -2.5640   -1.9701   -0.7233 O   0  0  0  0  0  0  0  0  0  0  0  0
   -1.7312   -0.0071   -0.4446 N   0  0  0  0  0  0  0  0  0  0  0  0
   -2.0334    0.0364   -1.4141 H   0  0  0  0  0  0  0  0  0  0  0  0
   -0.4649    0.7129   -0.1716 C   0  0  1  0  0  0  0  0  0  0  0  0
   -0.6991    1.6042    0.4187 H   0  0  0  0  0  0  0  0  0  0  0  0
    0.6652   -0.0744    0.5462 C   0  0  0  0  0  0  0  0  0  0  0  0
    0.9159   -0.9522   -0.0596 H   0  0  0  0  0  0  0  0  0  0  0  0
    1.5649    0.5496    0.5939 H   0  0  0  0  0  0  0  0  0  0  0  0
    0.3624   -0.5285    1.9477 C   0  0  0  0  0  0  0  0  0  0  0  0
    0.3279    0.2521    3.0823 N   0  0  0  0  0  0  0  0  0  0  0  0
    0.4438    1.2631    3.1235 H   0  0  0  0  0  0  0  0  0  0  0  0
    0.1562   -0.5746    4.1768 C   0  0  0  0  0  0  0  0  0  0  0  0
    0.0761   -0.2402    5.2074 H   0  0  0  0  0  0  0  0  0  0  0  0
    0.1052   -1.8263    3.7896 N   0  0  0  0  0  0  0  0  0  0  0  0
    0.2726   -1.8162    2.4098 C   0  0  0  0  0  0  0  0  0  0  0  0
    0.3321   -2.7047    1.7878 H   0  0  0  0  0  0  0  0  0  0  0  0
    0.1781    1.1675   -1.5028 C   0  0  0  0  0  0  0  0  0  0  0  0
    1.0242    2.0510   -1.4891 O   0  0  0  0  0  0  0  0  0  0  0  0
   -0.2316    0.6449   -2.7198 N   0  0  0  0  0  0  0  0  0  0  0  0
   -0.7855   -0.2077   -2.6941 H   0  0  0  0  0  0  0  0  0  0  0  0
    0.3746    1.0310   -3.9893 C   0  0  0  0  0  0  0  0  0  0  0  0
    1.4365    0.7640   -4.0050 H   0  0  0  0  0  0  0  0  0  0  0  0
   -0.1245    0.5187   -4.8176 H   0  0  0  0  0  0  0  0  0  0  0  0
    0.2808    2.1106   -4.1479 H   0  0  0  0  0  0  0  0  0  0  0  0
  1  2  1  0  0  0  0
  2  3  1  0  0  0  0
  2  4  1  0  0  0  0
  2  5  1  0  0  0  0
  5  6  2  0  0  0  0
  5  7  1  0  0  0  0
  7  8  1  0  0  0  0
  7  9  1  0  0  0  0
  9 10  1  0  0  0  0
  9 11  1  0  0  0  0
  9 22  1  0  0  0  0
 11 12  1  0  0  0  0
 11 13  1  0  0  0  0
 11 14  1  0  0  0  0
 14 15  1  0  0  0  0
 14 20  2  0  0  0  0
 15 16  1  0  0  0  0
 15 17  1  0  0  0  0
 17 18  1  0  0  0  0
 17 19  2  0  0  0  0
 19 20  1  0  0  0  0
 20 21  1  0  0  0  0
 22 23  2  0  0  0  0
 22 24  1  0  0  0  0
 24 25  1  0  0  0  0
 24 26  1  0  0  0  0
 26 27  1  0  0  0  0
 26 28  1  0  0  0  0
 26 29  1  0  0  0  0
M  END
$$$$

  -OEChem-01062216083D

 29 29  0     1  0  0  0  0  0999 V2000
   -2.4480   -2.1932    2.0193 H   0  0  0  0  0  0  0  0  0  0  0  0
   -2.7334   -1.2570    1.5339 C   0  0  0  0  0  0  0  0  0  0  0  0
   -2.3782   -0.4176    2.1348 H   0  0  0  0  0  0  0  0  0  0  0  0
   -3.8239   -1.2067    1.4836 H   0  0  0  0  0  0  0  0  0  0  0  0
   -2.1568   -1.1966    0.1292 C   0  0  0  0  0  0  0  0  0  0  0  0
   -2.5614   -1.9798   -0.7096 O   0  0  0  0  0  0  0  0  0  0  0  0
   -1.7296   -0.0196   -0.4290 N   0  0  0  0  0  0  0  0  0  0  0  0
   -2.0380    0.0125   -1.3947 H   0  0  0  0  0  0  0  0  0  0  0  0
   -0.4636    0.7080   -0.1675 C   0  0  1  0  0  0  0  0  0  0  0  0
   -0.6977    1.5960    0.4277 H   0  0  0  0  0  0  0  0  0  0  0  0
    0.6636   -0.0883    0.5519 C   0  0  0  0  0  0  0  0  0  0  0  0
    0.9087   -0.9670   -0.0552 H   0  0  0  0  0  0  0  0  0  0  0  0
    1.5689    0.5265    0.6043 H   0  0  0  0  0  0  0  0  0  0  0  0
    0.3614   -0.5385    1.9551 C   0  0  0  0  0  0  0  0  0  0  0  0
    0.3355    0.2433    3.0891 N   0  0  0  0  0  0  0  0  0  0  0  0
    0.4610    1.2532    3.1292 H   0  0  0  0  0  0  0  0  0  0  0  0
    0.1637   -0.5817    4.1847 C   0  0  0  0  0  0  0  0  0  0  0  0
    0.0892   -0.2456    5.2151 H   0  0  0  0  0  0  0  0  0  0  0  0
    0.1041   -1.8335    3.7994 N   0  0  0  0  0  0  0  0  0  0  0  0
    0.2672   -1.8254    2.4191 C   0  0  0  0  0  0  0  0  0  0  0  0
    0.3213   -2.7147    1.7979 H   0  0  0  0  0  0  0  0  0  0  0  0
    0.1776    1.1794   -1.4995 C   0  0  0  0  0  0  0  0  0  0  0  0
    1.1612    1.9072   -1.4680 O   0  0  0  0  0  0  0  0  0  0  0  0
   -0.4049    0.9182   -2.7312 N   0  0  0  0  0  0  0  0  0  0  0  0
   -1.0993    0.1789   -2.7712 H   0  0  0  0  0  0  0  0  0  0  0  0
    0.1798    1.3687   -3.9898 C   0  0  0  0  0  0  0  0  0  0  0  0
    1.1718    0.9272   -4.1320 H   0  0  0  0  0  0  0  0  0  0  0  0
   -0.4559    1.0716   -4.8295 H   0  0  0  0  0  0  0  0  0  0  0  0
    0.2748    2.4596   -4.0008 H   0  0  0  0  0  0  0  0  0  0  0  0
  1  2  1  0  0  0  0
  2  3  1  0  0  0  0
  2  4  1  0  0  0  0
  2  5  1  0  0  0  0
  5  6  2  0  0  0  0
  5  7  1  0  0  0  0
  7  8  1  0  0  0  0
  7  9  1  0  0  0  0
  9 10  1  0  0  0  0
  9 11  1  0  0  0  0
  9 22  1  0  0  0  0
 11 12  1  0  0  0  0
 11 13  1  0  0  0  0
 11 14  1  0  0  0  0
 14 15  1  0  0  0  0
 14 20  2  0  0  0  0
 15 16  1  0  0  0  0
 15 17  1  0  0  0  0
 17 18  1  0  0  0  0
 17 19  2  0  0  0  0
 19 20  1  0  0  0  0
 20 21  1  0  0  0  0
 22 23  2  0  0  0  0
 22 24  1  0  0  0  0
 24 25  1  0  0  0  0
 24 26  1  0  0  0  0
 26 27  1  0  0  0  0
 26 28  1  0  0  0  0
 26 29  1  0  0  0  0
M  END
$$$$

  -OEChem-01062216083D

 29 29  0     1  0  0  0  0  0999 V2000
   -2.5089   -2.1917    1.9989 H   0  0  0  0  0  0  0  0  0  0  0  0
   -2.7438   -1.2506    1.4954 C   0  0  0  0  0  0  0  0  0  0  0  0
   -2.4101   -0.4188    2.1191 H   0  0  0  0  0  0  0  0  0  0  0  0
   -3.8268   -1.1775    1.3718 H   0  0  0  0  0  0  0  0  0  0  0  0
   -2.0713   -1.2035    0.1337 C   0  0  0  0  0  0  0  0  0  0  0  0
   -2.3403   -2.0527   -0.6947 O   0  0  0  0  0  0  0  0  0  0  0  0
   -1.6855   -0.0168   -0.4333 N   0  0  0  0  0  0  0  0  0  0  0  0
   -1.8431   -0.1410   -1.4293 H   0  0  0  0  0  0  0  0  0  0  0  0
   -0.4074    0.6914   -0.1670 C   0  0  1  0  0  0  0  0  0  0  0  0
   -0.6332    1.5773    0.4337 H   0  0  0  0  0  0  0  0  0  0  0  0
    0.6999   -0.1220    0.5701 C   0  0  0  0  0  0  0  0  0  0  0  0
    0.9373   -1.0081   -0.0292 H   0  0  0  0  0  0  0  0  0  0  0  0
    1.6155    0.4759    0.6349 H   0  0  0  0  0  0  0  0  0  0  0  0
    0.3694   -0.5522    1.9748 C   0  0  0  0  0  0  0  0  0  0  0  0
    0.3445    0.2400    3.1017 N   0  0  0  0  0  0  0  0  0  0  0  0
    0.4979    1.2460    3.1363 H   0  0  0  0  0  0  0  0  0  0  0  0
    0.1315   -0.5702    4.2013 C   0  0  0  0  0  0  0  0  0  0  0  0
    0.0474   -0.2231    5.2273 H   0  0  0  0  0  0  0  0  0  0  0  0
    0.0461   -1.8233    3.8256 N   0  0  0  0  0  0  0  0  0  0  0  0
    0.2341   -1.8321    2.4483 C   0  0  0  0  0  0  0  0  0  0  0  0
    0.2723   -2.7280    1.8357 H   0  0  0  0  0  0  0  0  0  0  0  0
    0.2098    1.1801   -1.5084 C   0  0  0  0  0  0  0  0  0  0  0  0
    1.3702    1.5657   -1.5648 O   0  0  0  0  0  0  0  0  0  0  0  0
   -0.5420    1.2209   -2.6735 N   0  0  0  0  0  0  0  0  0  0  0  0
   -1.5438    1.0813   -2.5928 H   0  0  0  0  0  0  0  0  0  0  0  0
   -0.0160    1.7056   -3.9454 C   0  0  0  0  0  0  0  0  0  0  0  0
    0.8599    1.1207   -4.2459 H   0  0  0  0  0  0  0  0  0  0  0  0
   -0.7749    1.6124   -4.7283 H   0  0  0  0  0  0  0  0  0  0  0  0
    0.2732    2.7589   -3.8662 H   0  0  0  0  0  0  0  0  0  0  0  0
  1  2  1  0  0  0  0
  2  3  1  0  0  0  0
  2  4  1  0  0  0  0
  2  5  1  0  0  0  0
  5  6  2  0  0  0  0
  5  7  1  0  0  0  0
  7  8  1  0  0  0  0
  7  9  1  0  0  0  0
  9 10  1  0  0  0  0
  9 11  1  0  0  0  0
  9 22  1  0  0  0  0
 11 12  1  0  0  0  0
 11 13  1  0  0  0  0
 11 14  1  0  0  0  0
 14 15  1  0  0  0  0
 14 20  2  0  0  0  0
 15 16  1  0  0  0  0
 15 17  1  0  0  0  0
 17 18  1  0  0  0  0
 17 19  2  0  0  0  0
 19 20  1  0  0  0  0
 20 21  1  0  0  0  0
 22 23  2  0  0  0  0
 22 24  1  0  0  0  0
 24 25  1  0  0  0  0
 24 26  1  0  0  0  0
 26 27  1  0  0  0  0
 26 28  1  0  0  0  0
 26 29  1  0  0  0  0
M  END
$$$$

  -OEChem-01062216083D

 29 29  0     1  0  0  0  0  0999 V2000
   -2.4920   -2.2011    1.9364 H   0  0  0  0  0  0  0  0  0  0  0  0
   -2.7283   -1.2544    1.4445 C   0  0  0  0  0  0  0  0  0  0  0  0
   -2.4023   -0.4298    2.0817 H   0  0  0  0  0  0  0  0  0  0  0  0
   -3.8110   -1.1848    1.3155 H   0  0  0  0  0  0  0  0  0  0  0  0
   -2.0487   -1.1865    0.0872 C   0  0  0  0  0  0  0  0  0  0  0  0
   -2.3270   -2.0151   -0.7585 O   0  0  0  0  0  0  0  0  0  0  0  0
   -1.6468    0.0076   -0.4533 N   0  0  0  0  0  0  0  0  0  0  0  0
   -1.7916   -0.0916   -1.4565 H   0  0  0  0  0  0  0  0  0  0  0  0
   -0.3687    0.7025   -0.1582 C   0  0  1  0  0  0  0  0  0  0  0  0
   -0.5971    1.5857    0.4450 H   0  0  0  0  0  0  0  0  0  0  0  0
    0.7266   -0.1150    0.5906 C   0  0  0  0  0  0  0  0  0  0  0  0
    0.9742   -0.9977   -0.0098 H   0  0  0  0  0  0  0  0  0  0  0  0
    1.6395    0.4852    0.6705 H   0  0  0  0  0  0  0  0  0  0  0  0
    0.3739   -0.5525    1.9875 C   0  0  0  0  0  0  0  0  0  0  0  0
    0.3311    0.2322    3.1192 N   0  0  0  0  0  0  0  0  0  0  0  0
    0.4873    1.2372    3.1636 H   0  0  0  0  0  0  0  0  0  0  0  0
    0.1007   -0.5855    4.2096 C   0  0  0  0  0  0  0  0  0  0  0  0
    0.0008   -0.2454    5.2363 H   0  0  0  0  0  0  0  0  0  0  0  0
    0.0209   -1.8359    3.8245 N   0  0  0  0  0  0  0  0  0  0  0  0
    0.2314   -1.8357    2.4504 C   0  0  0  0  0  0  0  0  0  0  0  0
    0.2809   -2.7278    1.8328 H   0  0  0  0  0  0  0  0  0  0  0  0
    0.2410    1.1958   -1.5000 C   0  0  0  0  0  0  0  0  0  0  0  0
    1.4483    1.3145   -1.6626 O   0  0  0  0  0  0  0  0  0  0  0  0
   -0.5942    1.5318   -2.5539 N   0  0  0  0  0  0  0  0  0  0  0  0
   -1.5917    1.5726   -2.3645 H   0  0  0  0  0  0  0  0  0  0  0  0
   -0.1075    2.0301   -3.8358 C   0  0  0  0  0  0  0  0  0  0  0  0
    0.5559    1.2958   -4.3051 H   0  0  0  0  0  0  0  0  0  0  0  0
   -0.9471    2.2163   -4.5124 H   0  0  0  0  0  0  0  0  0  0  0  0
    0.4431    2.9669   -3.7004 H   0  0  0  0  0  0  0  0  0  0  0  0
  1  2  1  0  0  0  0
  2  3  1  0  0  0  0
  2  4  1  0  0  0  0
  2  5  1  0  0  0  0
  5  6  2  0  0  0  0
  5  7  1  0  0  0  0
  7  8  1  0  0  0  0
  7  9  1  0  0  0  0
  9 10  1  0  0  0  0
  9 11  1  0  0  0  0
  9 22  1  0  0  0  0
 11 12  1  0  0  0  0
 11 13  1  0  0  0  0
 11 14  1  0  0  0  0
 14 15  1  0  0  0  0
 14 20  2  0  0  0  0
 15 16  1  0  0  0  0
 15 17  1  0  0  0  0
 17 18  1  0  0  0  0
 17 19  2  0  0  0  0
 19 20  1  0  0  0  0
 20 21  1  0  0  0  0
 22 23  2  0  0  0  0
 22 24  1  0  0  0  0
 24 25  1  0  0  0  0
 24 26  1  0  0  0  0
 26 27  1  0  0  0  0
 26 28  1  0  0  0  0
 26 29  1  0  0  0  0
M  END
$$$$

  -OEChem-01062216083D

 29 29  0     1  0  0  0  0  0999 V2000
   -2.5004   -2.1847    1.8937 H   0  0  0  0  0  0  0  0  0  0  0  0
   -2.7231   -1.2279    1.4149 C   0  0  0  0  0  0  0  0  0  0  0  0
   -2.3802   -0.4164    2.0598 H   0  0  0  0  0  0  0  0  0  0  0  0
   -3.8052   -1.1386    1.2935 H   0  0  0  0  0  0  0  0  0  0  0  0
   -2.0511   -1.1545    0.0540 C   0  0  0  0  0  0  0  0  0  0  0  0
   -2.3613   -1.9614   -0.8017 O   0  0  0  0  0  0  0  0  0  0  0  0
   -1.6236    0.0394   -0.4683 N   0  0  0  0  0  0  0  0  0  0  0  0
   -1.7763   -0.0266   -1.4736 H   0  0  0  0  0  0  0  0  0  0  0  0
   -0.3407    0.7137   -0.1538 C   0  0  1  0  0  0  0  0  0  0  0  0
   -0.5615    1.5961    0.4538 H   0  0  0  0  0  0  0  0  0  0  0  0
    0.7407   -0.1185    0.5976 C   0  0  0  0  0  0  0  0  0  0  0  0
    0.9810   -1.0013   -0.0059 H   0  0  0  0  0  0  0  0  0  0  0  0
    1.6588    0.4737    0.6813 H   0  0  0  0  0  0  0  0  0  0  0  0
    0.3746   -0.5644    1.9881 C   0  0  0  0  0  0  0  0  0  0  0  0
    0.3285    0.2075    3.1287 N   0  0  0  0  0  0  0  0  0  0  0  0
    0.4862    1.2115    3.1860 H   0  0  0  0  0  0  0  0  0  0  0  0
    0.0848   -0.6213    4.2077 C   0  0  0  0  0  0  0  0  0  0  0  0
   -0.0213   -0.2923    5.2375 H   0  0  0  0  0  0  0  0  0  0  0  0
    0.0008   -1.8666    3.8077 N   0  0  0  0  0  0  0  0  0  0  0  0
    0.2214   -1.8517    2.4352 C   0  0  0  0  0  0  0  0  0  0  0  0
    0.2707   -2.7366    1.8074 H   0  0  0  0  0  0  0  0  0  0  0  0
    0.2731    1.2035   -1.4930 C   0  0  0  0  0  0  0  0  0  0  0  0
    1.4600    1.0756   -1.7642 O   0  0  0  0  0  0  0  0  0  0  0  0
   -0.5453    1.8381   -2.4124 N   0  0  0  0  0  0  0  0  0  0  0  0
   -1.5140    1.9963   -2.1480 H   0  0  0  0  0  0  0  0  0  0  0  0
   -0.0727    2.3518   -3.6931 C   0  0  0  0  0  0  0  0  0  0  0  0
    0.3267    1.5383   -4.3080 H   0  0  0  0  0  0  0  0  0  0  0  0
   -0.8957    2.8237   -4.2381 H   0  0  0  0  0  0  0  0  0  0  0  0
    0.7139    3.0983   -3.5408 H   0  0  0  0  0  0  0  0  0  0  0  0
  1  2  1  0  0  0  0
  2  3  1  0  0  0  0
  2  4  1  0  0  0  0
  2  5  1  0  0  0  0
  5  6  2  0  0  0  0
  5  7  1  0  0  0  0
  7  8  1  0  0  0  0
  7  9  1  0  0  0  0
  9 10  1  0  0  0  0
  9 11  1  0  0  0  0
  9 22  1  0  0  0  0
 11 12  1  0  0  0  0
 11 13  1  0  0  0  0
 11 14  1  0  0  0  0
 14 15  1  0  0  0  0
 14 20  2  0  0  0  0
 15 16  1  0  0  0  0
 15 17  1  0  0  0  0
 17 18  1  0  0  0  0
 17 19  2  0  0  0  0
 19 20  1  0  0  0  0
 20 21  1  0  0  0  0
 22 23  2  0  0  0  0
 22 24  1  0  0  0  0
 24 25  1  0  0  0  0
 24 26  1  0  0  0  0
 26 27  1  0  0  0  0
 26 28  1  0  0  0  0
 26 29  1  0  0  0  0
M  END
$$$$

  -OEChem-01062216083D

 29 29  0     1  0  0  0  0  0999 V2000
   -2.4730   -2.1863    1.8630 H   0  0  0  0  0  0  0  0  0  0  0  0
   -2.7109   -1.2308    1.3892 C   0  0  0  0  0  0  0  0  0  0  0  0
   -2.3740   -0.4168    2.0339 H   0  0  0  0  0  0  0  0  0  0  0  0
   -3.7952   -1.1544    1.2765 H   0  0  0  0  0  0  0  0  0  0  0  0
   -2.0500   -1.1455    0.0234 C   0  0  0  0  0  0  0  0  0  0  0  0
   -2.3859   -1.9331   -0.8405 O   0  0  0  0  0  0  0  0  0  0  0  0
   -1.6095    0.0499   -0.4852 N   0  0  0  0  0  0  0  0  0  0  0  0
   -1.7664    0.0044   -1.4913 H   0  0  0  0  0  0  0  0  0  0  0  0
   -0.3299    0.7206   -0.1556 C   0  0  1  0  0  0  0  0  0  0  0  0
   -0.5561    1.5996    0.4547 H   0  0  0  0  0  0  0  0  0  0  0  0
    0.7485   -0.1080    0.6023 C   0  0  0  0  0  0  0  0  0  0  0  0
    0.9925   -0.9922    0.0019 H   0  0  0  0  0  0  0  0  0  0  0  0
    1.6651    0.4868    0.6843 H   0  0  0  0  0  0  0  0  0  0  0  0
    0.3758   -0.5587    1.9895 C   0  0  0  0  0  0  0  0  0  0  0  0
    0.3189    0.2098    3.1321 N   0  0  0  0  0  0  0  0  0  0  0  0
    0.4694    1.2146    3.1932 H   0  0  0  0  0  0  0  0  0  0  0  0
    0.0720   -0.6233    4.2074 C   0  0  0  0  0  0  0  0  0  0  0  0
   -0.0445   -0.2986    5.2376 H   0  0  0  0  0  0  0  0  0  0  0  0
   -0.0016   -1.8679    3.8034 N   0  0  0  0  0  0  0  0  0  0  0  0
    0.2270   -1.8482    2.4321 C   0  0  0  0  0  0  0  0  0  0  0  0
    0.2843   -2.7312    1.8022 H   0  0  0  0  0  0  0  0  0  0  0  0
    0.2936    1.2133   -1.4867 C   0  0  0  0  0  0  0  0  0  0  0  0
    1.4011    0.8624   -1.8724 O   0  0  0  0  0  0  0  0  0  0  0  0
   -0.4203    2.1121   -2.2596 N   0  0  0  0  0  0  0  0  0  0  0  0
   -1.3435    2.3836   -1.9318 H   0  0  0  0  0  0  0  0  0  0  0  0
    0.0560    2.6320   -3.5367 C   0  0  0  0  0  0  0  0  0  0  0  0
    0.1856    1.8177   -4.2575 H   0  0  0  0  0  0  0  0  0  0  0  0
   -0.6646    3.3459   -3.9472 H   0  0  0  0  0  0  0  0  0  0  0  0
    1.0150    3.1455   -3.4095 H   0  0  0  0  0  0  0  0  0  0  0  0
  1  2  1  0  0  0  0
  2  3  1  0  0  0  0
  2  4  1  0  0  0  0
  2  5  1  0  0  0  0
  5  6  2  0  0  0  0
  5  7  1  0  0  0  0
  7  8  1  0  0  0  0
  7  9  1  0  0  0  0
  9 10  1  0  0  0  0
  9 11  1  0  0  0  0
  9 22  1  0  0  0  0
 11 12  1  0  0  0  0
 11 13  1  0  0  0  0
 11 14  1  0  0  0  0
 14 15  1  0  0  0  0
 14 20  2  0  0  0  0
 15 16  1  0  0  0  0
 15 17  1  0  0  0  0
 17 18  1  0  0  0  0
 17 19  2  0  0  0  0
 19 20  1  0  0  0  0
 20 21  1  0  0  0  0
 22 23  2  0  0  0  0
 22 24  1  0  0  0  0
 24 25  1  0  0  0  0
 24 26  1  0  0  0  0
 26 27  1  0  0  0  0
 26 28  1  0  0  0  0
 26 29  1  0  0  0  0
M  END
$$$$

  -OEChem-01062216083D

 29 29  0     1  0  0  0  0  0999 V2000
   -2.4664   -2.1826    1.8501 H   0  0  0  0  0  0  0  0  0  0  0  0
   -2.7063   -1.2284    1.3745 C   0  0  0  0  0  0  0  0  0  0  0  0
   -2.3718   -0.4125    2.0178 H   0  0  0  0  0  0  0  0  0  0  0  0
   -3.7905   -1.1551    1.2611 H   0  0  0  0  0  0  0  0  0  0  0  0
   -2.0466   -1.1435    0.0082 C   0  0  0  0  0  0  0  0  0  0  0  0
   -2.3874   -1.9312   -0.8535 O   0  0  0  0  0  0  0  0  0  0  0  0
   -1.6035    0.0514   -0.4998 N   0  0  0  0  0  0  0  0  0  0  0  0
   -1.7565    0.0082   -1.5068 H   0  0  0  0  0  0  0  0  0  0  0  0
   -0.3281    0.7243   -0.1626 C   0  0  1  0  0  0  0  0  0  0  0  0
   -0.5599    1.6008    0.4488 H   0  0  0  0  0  0  0  0  0  0  0  0
    0.7507   -0.0987    0.5995 C   0  0  0  0  0  0  0  0  0  0  0  0
    0.9982   -0.9848    0.0031 H   0  0  0  0  0  0  0  0  0  0  0  0
    1.6650    0.4996    0.6791 H   0  0  0  0  0  0  0  0  0  0  0  0
    0.3755   -0.5517    1.9853 C   0  0  0  0  0  0  0  0  0  0  0  0
    0.3107    0.2166    3.1277 N   0  0  0  0  0  0  0  0  0  0  0  0
    0.4550    1.2222    3.1897 H   0  0  0  0  0  0  0  0  0  0  0  0
    0.0639   -0.6173    4.2024 C   0  0  0  0  0  0  0  0  0  0  0  0
   -0.0575   -0.2922    5.2320 H   0  0  0  0  0  0  0  0  0  0  0  0
   -0.0026   -1.8622    3.7984 N   0  0  0  0  0  0  0  0  0  0  0  0
    0.2300   -1.8418    2.4276 C   0  0  0  0  0  0  0  0  0  0  0  0
    0.2934   -2.7246    1.7979 H   0  0  0  0  0  0  0  0  0  0  0  0
    0.3103    1.2173   -1.4846 C   0  0  0  0  0  0  0  0  0  0  0  0
    1.2804    0.6704   -1.9921 O   0  0  0  0  0  0  0  0  0  0  0  0
   -0.2246    2.3306   -2.1079 N   0  0  0  0  0  0  0  0  0  0  0  0
   -1.0679    2.7327   -1.7077 H   0  0  0  0  0  0  0  0  0  0  0  0
    0.2722    2.8570   -3.3746 C   0  0  0  0  0  0  0  0  0  0  0  0
    0.1362    2.1221   -4.1750 H   0  0  0  0  0  0  0  0  0  0  0  0
   -0.2704    3.7682   -3.6446 H   0  0  0  0  0  0  0  0  0  0  0  0
    1.3371    3.1011   -3.2979 H   0  0  0  0  0  0  0  0  0  0  0  0
  1  2  1  0  0  0  0
  2  3  1  0  0  0  0
  2  4  1  0  0  0  0
  2  5  1  0  0  0  0
  5  6  2  0  0  0  0
  5  7  1  0  0  0  0
  7  8  1  0  0  0  0
  7  9  1  0  0  0  0
  9 10  1  0  0  0  0
  9 11  1  0  0  0  0
  9 22  1  0  0  0  0
 11 12  1  0  0  0  0
 11 13  1  0  0  0  0
 11 14  1  0  0  0  0
 14 15  1  0  0  0  0
 14 20  2  0  0  0  0
 15 16  1  0  0  0  0
 15 17  1  0  0  0  0
 17 18  1  0  0  0  0
 17 19  2  0  0  0  0
 19 20  1  0  0  0  0
 20 21  1  0  0  0  0
 22 23  2  0  0  0  0
 22 24  1  0  0  0  0
 24 25  1  0  0  0  0
 24 26  1  0  0  0  0
 26 27  1  0  0  0  0
 26 28  1  0  0  0  0
 26 29  1  0  0  0  0
M  END
$$$$

  -OEChem-01062216083D

 29 29  0     1  0  0  0  0  0999 V2000
   -2.4595   -2.1739    1.8444 H   0  0  0  0  0  0  0  0  0  0  0  0
   -2.7011   -1.2220    1.3648 C   0  0  0  0  0  0  0  0  0  0  0  0
   -2.3674   -0.4026    2.0040 H   0  0  0  0  0  0  0  0  0  0  0  0
   -3.7857   -1.1507    1.2524 H   0  0  0  0  0  0  0  0  0  0  0  0
   -2.0432   -1.1426   -0.0031 C   0  0  0  0  0  0  0  0  0  0  0  0
   -2.3834   -1.9377   -0.8584 O   0  0  0  0  0  0  0  0  0  0  0  0
   -1.5992    0.0504   -0.5155 N   0  0  0  0  0  0  0  0  0  0  0  0
   -1.7354   -0.0033   -1.5247 H   0  0  0  0  0  0  0  0  0  0  0  0
   -0.3322    0.7324   -0.1678 C   0  0  1  0  0  0  0  0  0  0  0  0
   -0.5770    1.6064    0.4422 H   0  0  0  0  0  0  0  0  0  0  0  0
    0.7519   -0.0798    0.5967 C   0  0  0  0  0  0  0  0  0  0  0  0
    1.0103   -0.9636    0.0015 H   0  0  0  0  0  0  0  0  0  0  0  0
    1.6602    0.5269    0.6783 H   0  0  0  0  0  0  0  0  0  0  0  0
    0.3764   -0.5414    1.9793 C   0  0  0  0  0  0  0  0  0  0  0  0
    0.2975    0.2216    3.1245 N   0  0  0  0  0  0  0  0  0  0  0  0
    0.4312    1.2283    3.1920 H   0  0  0  0  0  0  0  0  0  0  0  0
    0.0518   -0.6198    4.1936 C   0  0  0  0  0  0  0  0  0  0  0  0
   -0.0789   -0.3011    5.2240 H   0  0  0  0  0  0  0  0  0  0  0  0
   -0.0002   -1.8634    3.7838 N   0  0  0  0  0  0  0  0  0  0  0  0
    0.2394   -1.8350    2.4145 C   0  0  0  0  0  0  0  0  0  0  0  0
    0.3130   -2.7145    1.7814 H   0  0  0  0  0  0  0  0  0  0  0  0
    0.3280    1.2212   -1.4788 C   0  0  0  0  0  0  0  0  0  0  0  0
    1.1013    0.5180   -2.1146 O   0  0  0  0  0  0  0  0  0  0  0  0
    0.0270    2.4831   -1.9593 N   0  0  0  0  0  0  0  0  0  0  0  0
   -0.6872    3.0144   -1.4695 H   0  0  0  0  0  0  0  0  0  0  0  0
    0.5483    3.0048   -3.2182 C   0  0  0  0  0  0  0  0  0  0  0  0
    0.1880    2.4046   -4.0604 H   0  0  0  0  0  0  0  0  0  0  0  0
    0.2214    4.0389   -3.3640 H   0  0  0  0  0  0  0  0  0  0  0  0
    1.6433    2.9876   -3.2170 H   0  0  0  0  0  0  0  0  0  0  0  0
  1  2  1  0  0  0  0
  2  3  1  0  0  0  0
  2  4  1  0  0  0  0
  2  5  1  0  0  0  0
  5  6  2  0  0  0  0
  5  7  1  0  0  0  0
  7  8  1  0  0  0  0
  7  9  1  0  0  0  0
  9 10  1  0  0  0  0
  9 11  1  0  0  0  0
  9 22  1  0  0  0  0
 11 12  1  0  0  0  0
 11 13  1  0  0  0  0
 11 14  1  0  0  0  0
 14 15  1  0  0  0  0
 14 20  2  0  0  0  0
 15 16  1  0  0  0  0
 15 17  1  0  0  0  0
 17 18  1  0  0  0  0
 17 19  2  0  0  0  0
 19 20  1  0  0  0  0
 20 21  1  0  0  0  0
 22 23  2  0  0  0  0
 22 24  1  0  0  0  0
 24 25  1  0  0  0  0
 24 26  1  0  0  0  0
 26 27  1  0  0  0  0
 26 28  1  0  0  0  0
 26 29  1  0  0  0  0
M  END
$$$$

  -OEChem-01062216083D

 29 29  0     1  0  0  0  0  0999 V2000
   -2.4601   -2.1441    1.8518 H   0  0  0  0  0  0  0  0  0  0  0  0
   -2.7023   -1.1994    1.3591 C   0  0  0  0  0  0  0  0  0  0  0  0
   -2.3723   -0.3707    1.9883 H   0  0  0  0  0  0  0  0  0  0  0  0
   -3.7865   -1.1324    1.2418 H   0  0  0  0  0  0  0  0  0  0  0  0
   -2.0402   -1.1372   -0.0074 C   0  0  0  0  0  0  0  0  0  0  0  0
   -2.3678   -1.9514   -0.8496 O   0  0  0  0  0  0  0  0  0  0  0  0
   -1.5944    0.0503   -0.5312 N   0  0  0  0  0  0  0  0  0  0  0  0
   -1.7045   -0.0241   -1.5429 H   0  0  0  0  0  0  0  0  0  0  0  0
   -0.3354    0.7410   -0.1737 C   0  0  1  0  0  0  0  0  0  0  0  0
   -0.5912    1.6161    0.4303 H   0  0  0  0  0  0  0  0  0  0  0  0
    0.7523   -0.0628    0.5918 C   0  0  0  0  0  0  0  0  0  0  0  0
    1.0206   -0.9412   -0.0072 H   0  0  0  0  0  0  0  0  0  0  0  0
    1.6545    0.5519    0.6794 H   0  0  0  0  0  0  0  0  0  0  0  0
    0.3771   -0.5347    1.9709 C   0  0  0  0  0  0  0  0  0  0  0  0
    0.2858    0.2202    3.1206 N   0  0  0  0  0  0  0  0  0  0  0  0
    0.4079    1.2278    3.1957 H   0  0  0  0  0  0  0  0  0  0  0  0
    0.0438   -0.6305    4.1833 C   0  0  0  0  0  0  0  0  0  0  0  0
   -0.0934   -0.3194    5.2151 H   0  0  0  0  0  0  0  0  0  0  0  0
    0.0048   -1.8718    3.7652 N   0  0  0  0  0  0  0  0  0  0  0  0
    0.2479   -1.8322    2.3967 C   0  0  0  0  0  0  0  0  0  0  0  0
    0.3290   -2.7063    1.7570 H   0  0  0  0  0  0  0  0  0  0  0  0
    0.3475    1.2165   -1.4759 C   0  0  0  0  0  0  0  0  0  0  0  0
    0.8821    0.4210   -2.2355 O   0  0  0  0  0  0  0  0  0  0  0  0
    0.3146    2.5554   -1.8227 N   0  0  0  0  0  0  0  0  0  0  0  0
   -0.2258    3.1823   -1.2336 H   0  0  0  0  0  0  0  0  0  0  0  0
    0.8618    3.0687   -3.0739 C   0  0  0  0  0  0  0  0  0  0  0  0
    0.3192    2.6523   -3.9291 H   0  0  0  0  0  0  0  0  0  0  0  0
    0.7755    4.1591   -3.1055 H   0  0  0  0  0  0  0  0  0  0  0  0
    1.9210    2.8054   -3.1673 H   0  0  0  0  0  0  0  0  0  0  0  0
  1  2  1  0  0  0  0
  2  3  1  0  0  0  0
  2  4  1  0  0  0  0
  2  5  1  0  0  0  0
  5  6  2  0  0  0  0
  5  7  1  0  0  0  0
  7  8  1  0  0  0  0
  7  9  1  0  0  0  0
  9 10  1  0  0  0  0
  9 11  1  0  0  0  0
  9 22  1  0  0  0  0
 11 12  1  0  0  0  0
 11 13  1  0  0  0  0
 11 14  1  0  0  0  0
 14 15  1  0  0  0  0
 14 20  2  0  0  0  0
 15 16  1  0  0  0  0
 15 17  1  0  0  0  0
 17 18  1  0  0  0  0
 17 19  2  0  0  0  0
 19 20  1  0  0  0  0
 20 21  1  0  0  0  0
 22 23  2  0  0  0  0
 22 24  1  0  0  0  0
 24 25  1  0  0  0  0
 24 26  1  0  0  0  0
 26 27  1  0  0  0  0
 26 28  1  0  0  0  0
 26 29  1  0  0  0  0
M  END
$$$$

  -OEChem-01062216083D

 29 29  0     1  0  0  0  0  0999 V2000
   -2.4508   -2.1151    1.8678 H   0  0  0  0  0  0  0  0  0  0  0  0
   -2.6990   -1.1829    1.3547 C   0  0  0  0  0  0  0  0  0  0  0  0
   -2.3789   -0.3384    1.9680 H   0  0  0  0  0  0  0  0  0  0  0  0
   -3.7833   -1.1281    1.2308 H   0  0  0  0  0  0  0  0  0  0  0  0
   -2.0305   -1.1424   -0.0095 C   0  0  0  0  0  0  0  0  0  0  0  0
   -2.3395   -1.9820   -0.8336 O   0  0  0  0  0  0  0  0  0  0  0  0
   -1.5853    0.0382   -0.5499 N   0  0  0  0  0  0  0  0  0  0  0  0
   -1.6681   -0.0592   -1.5632 H   0  0  0  0  0  0  0  0  0  0  0  0
   -0.3366    0.7433   -0.1848 C   0  0  1  0  0  0  0  0  0  0  0  0
   -0.6061    1.6225    0.4066 H   0  0  0  0  0  0  0  0  0  0  0  0
    0.7546   -0.0472    0.5866 C   0  0  0  0  0  0  0  0  0  0  0  0
    1.0370   -0.9204   -0.0138 H   0  0  0  0  0  0  0  0  0  0  0  0
    1.6492    0.5777    0.6816 H   0  0  0  0  0  0  0  0  0  0  0  0
    0.3773   -0.5242    1.9633 C   0  0  0  0  0  0  0  0  0  0  0  0
    0.2705    0.2287    3.1130 N   0  0  0  0  0  0  0  0  0  0  0  0
    0.3748    1.2381    3.1890 H   0  0  0  0  0  0  0  0  0  0  0  0
    0.0347   -0.6256    4.1741 C   0  0  0  0  0  0  0  0  0  0  0  0
   -0.1098   -0.3169    5.2057 H   0  0  0  0  0  0  0  0  0  0  0  0
    0.0114   -1.8668    3.7547 N   0  0  0  0  0  0  0  0  0  0  0  0
    0.2593   -1.8236    2.3872 C   0  0  0  0  0  0  0  0  0  0  0  0
    0.3523   -2.6967    1.7476 H   0  0  0  0  0  0  0  0  0  0  0  0
    0.3674    1.2003   -1.4809 C   0  0  0  0  0  0  0  0  0  0  0  0
    0.6616    0.3887   -2.3470 O   0  0  0  0  0  0  0  0  0  0  0  0
    0.6106    2.5434   -1.7065 N   0  0  0  0  0  0  0  0  0  0  0  0
    0.2700    3.2089   -1.0190 H   0  0  0  0  0  0  0  0  0  0  0  0
    1.1800    3.0509   -2.9500 C   0  0  0  0  0  0  0  0  0  0  0  0
    0.5049    2.8526   -3.7893 H   0  0  0  0  0  0  0  0  0  0  0  0
    1.3395    4.1312   -2.8805 H   0  0  0  0  0  0  0  0  0  0  0  0
    2.1445    2.5736   -3.1542 H   0  0  0  0  0  0  0  0  0  0  0  0
  1  2  1  0  0  0  0
  2  3  1  0  0  0  0
  2  4  1  0  0  0  0
  2  5  1  0  0  0  0
  5  6  2  0  0  0  0
  5  7  1  0  0  0  0
  7  8  1  0  0  0  0
  7  9  1  0  0  0  0
  9 10  1  0  0  0  0
  9 11  1  0  0  0  0
  9 22  1  0  0  0  0
 11 12  1  0  0  0  0
 11 13  1  0  0  0  0
 11 14  1  0  0  0  0
 14 15  1  0  0  0  0
 14 20  2  0  0  0  0
 15 16  1  0  0  0  0
 15 17  1  0  0  0  0
 17 18  1  0  0  0  0
 17 19  2  0  0  0  0
 19 20  1  0  0  0  0
 20 21  1  0  0  0  0
 22 23  2  0  0  0  0
 22 24  1  0  0  0  0
 24 25  1  0  0  0  0
 24 26  1  0  0  0  0
 26 27  1  0  0  0  0
 26 28  1  0  0  0  0
 26 29  1  0  0  0  0
M  END
$$$$

  -OEChem-01062216083D

 29 29  0     1  0  0  0  0  0999 V2000
   -2.4722   -2.0851    1.8872 H   0  0  0  0  0  0  0  0  0  0  0  0
   -2.7066   -1.1582    1.3581 C   0  0  0  0  0  0  0  0  0  0  0  0
   -2.3821   -0.3085    1.9617 H   0  0  0  0  0  0  0  0  0  0  0  0
   -3.7890   -1.0938    1.2241 H   0  0  0  0  0  0  0  0  0  0  0  0
   -2.0266   -1.1446   -0.0009 C   0  0  0  0  0  0  0  0  0  0  0  0
   -2.3102   -2.0130   -0.8037 O   0  0  0  0  0  0  0  0  0  0  0  0
   -1.5825    0.0277   -0.5598 N   0  0  0  0  0  0  0  0  0  0  0  0
   -1.6516   -0.0870   -1.5733 H   0  0  0  0  0  0  0  0  0  0  0  0
   -0.3348    0.7381   -0.2019 C   0  0  1  0  0  0  0  0  0  0  0  0
   -0.6046    1.6245    0.3788 H   0  0  0  0  0  0  0  0  0  0  0  0
    0.7571   -0.0496    0.5700 C   0  0  0  0  0  0  0  0  0  0  0  0
    1.0374   -0.9242   -0.0295 H   0  0  0  0  0  0  0  0  0  0  0  0
    1.6525    0.5742    0.6635 H   0  0  0  0  0  0  0  0  0  0  0  0
    0.3800   -0.5211    1.9490 C   0  0  0  0  0  0  0  0  0  0  0  0
    0.2732    0.2335    3.0980 N   0  0  0  0  0  0  0  0  0  0  0  0
    0.3727    1.2435    3.1726 H   0  0  0  0  0  0  0  0  0  0  0  0
    0.0338   -0.6194    4.1596 C   0  0  0  0  0  0  0  0  0  0  0  0
   -0.1146   -0.3097    5.1902 H   0  0  0  0  0  0  0  0  0  0  0  0
    0.0117   -1.8611    3.7419 N   0  0  0  0  0  0  0  0  0  0  0  0
    0.2599   -1.8198    2.3746 C   0  0  0  0  0  0  0  0  0  0  0  0
    0.3525   -2.6937    1.7362 H   0  0  0  0  0  0  0  0  0  0  0  0
    0.3765    1.1777   -1.5003 C   0  0  0  0  0  0  0  0  0  0  0  0
    0.4289    0.4242   -2.4625 O   0  0  0  0  0  0  0  0  0  0  0  0
    0.8985    2.4541   -1.6145 N   0  0  0  0  0  0  0  0  0  0  0  0
    0.7716    3.0914   -0.8341 H   0  0  0  0  0  0  0  0  0  0  0  0
    1.5042    2.9597   -2.8415 C   0  0  0  0  0  0  0  0  0  0  0  0
    0.7584    3.0168   -3.6414 H   0  0  0  0  0  0  0  0  0  0  0  0
    1.9142    3.9608   -2.6769 H   0  0  0  0  0  0  0  0  0  0  0  0
    2.3192    2.3042   -3.1667 H   0  0  0  0  0  0  0  0  0  0  0  0
  1  2  1  0  0  0  0
  2  3  1  0  0  0  0
  2  4  1  0  0  0  0
  2  5  1  0  0  0  0
  5  6  2  0  0  0  0
  5  7  1  0  0  0  0
  7  8  1  0  0  0  0
  7  9  1  0  0  0  0
  9 10  1  0  0  0  0
  9 11  1  0  0  0  0
  9 22  1  0  0  0  0
 11 12  1  0  0  0  0
 11 13  1  0  0  0  0
 11 14  1  0  0  0  0
 14 15  1  0  0  0  0
 14 20  2  0  0  0  0
 15 16  1  0  0  0  0
 15 17  1  0  0  0  0
 17 18  1  0  0  0  0
 17 19  2  0  0  0  0
 19 20  1  0  0  0  0
 20 21  1  0  0  0  0
 22 23  2  0  0  0  0
 22 24  1  0  0  0  0
 24 25  1  0  0  0  0
 24 26  1  0  0  0  0
 26 27  1  0  0  0  0
 26 28  1  0  0  0  0
 26 29  1  0  0  0  0
M  END
$$$$

  -OEChem-01062216083D

 29 29  0     1  0  0  0  0  0999 V2000
   -2.4922   -2.0658    1.9012 H   0  0  0  0  0  0  0  0  0  0  0  0
   -2.7162   -1.1417    1.3631 C   0  0  0  0  0  0  0  0  0  0  0  0
   -2.3877   -0.2901    1.9615 H   0  0  0  0  0  0  0  0  0  0  0  0
   -3.7972   -1.0692    1.2226 H   0  0  0  0  0  0  0  0  0  0  0  0
   -2.0280   -1.1444    0.0082 C   0  0  0  0  0  0  0  0  0  0  0  0
   -2.2933   -2.0308   -0.7813 O   0  0  0  0  0  0  0  0  0  0  0  0
   -1.5810    0.0214   -0.5617 N   0  0  0  0  0  0  0  0  0  0  0  0
   -1.6554   -0.0938   -1.5760 H   0  0  0  0  0  0  0  0  0  0  0  0
   -0.3271    0.7286   -0.2186 C   0  0  1  0  0  0  0  0  0  0  0  0
   -0.5874    1.6218    0.3559 H   0  0  0  0  0  0  0  0  0  0  0  0
    0.7597   -0.0669    0.5530 C   0  0  0  0  0  0  0  0  0  0  0  0
    1.0270   -0.9470   -0.0441 H   0  0  0  0  0  0  0  0  0  0  0  0
    1.6630    0.5456    0.6415 H   0  0  0  0  0  0  0  0  0  0  0  0
    0.3838   -0.5259    1.9367 C   0  0  0  0  0  0  0  0  0  0  0  0
    0.2916    0.2382    3.0806 N   0  0  0  0  0  0  0  0  0  0  0  0
    0.4015    1.2476    3.1468 H   0  0  0  0  0  0  0  0  0  0  0  0
    0.0473   -0.6036    4.1499 C   0  0  0  0  0  0  0  0  0  0  0  0
   -0.0907   -0.2845    5.1792 H   0  0  0  0  0  0  0  0  0  0  0  0
    0.0074   -1.8478    3.7411 N   0  0  0  0  0  0  0  0  0  0  0  0
    0.2485   -1.8199    2.3722 C   0  0  0  0  0  0  0  0  0  0  0  0
    0.3254   -2.6992    1.7392 H   0  0  0  0  0  0  0  0  0  0  0  0
    0.3809    1.1570   -1.5245 C   0  0  0  0  0  0  0  0  0  0  0  0
    0.2049    0.5304   -2.5608 O   0  0  0  0  0  0  0  0  0  0  0  0
    1.1708    2.2933   -1.5534 N   0  0  0  0  0  0  0  0  0  0  0  0
    1.2455    2.8433   -0.7031 H   0  0  0  0  0  0  0  0  0  0  0  0
    1.7977    2.7965   -2.7707 C   0  0  0  0  0  0  0  0  0  0  0  0
    1.0360    3.0879   -3.5018 H   0  0  0  0  0  0  0  0  0  0  0  0
    2.4142    3.6717   -2.5451 H   0  0  0  0  0  0  0  0  0  0  0  0
    2.4394    2.0297   -3.2178 H   0  0  0  0  0  0  0  0  0  0  0  0
  1  2  1  0  0  0  0
  2  3  1  0  0  0  0
  2  4  1  0  0  0  0
  2  5  1  0  0  0  0
  5  6  2  0  0  0  0
  5  7  1  0  0  0  0
  7  8  1  0  0  0  0
  7  9  1  0  0  0  0
  9 10  1  0  0  0  0
  9 11  1  0  0  0  0
  9 22  1  0  0  0  0
 11 12  1  0  0  0  0
 11 13  1  0  0  0  0
 11 14  1  0  0  0  0
 14 15  1  0  0  0  0
 14 20  2  0  0  0  0
 15 16  1  0  0  0  0
 15 17  1  0  0  0  0
 17 18  1  0  0  0  0
 17 19  2  0  0  0  0
 19 20  1  0  0  0  0
 20 21  1  0  0  0  0
 22 23  2  0  0  0  0
 22 24  1  0  0  0  0
 24 25  1  0  0  0  0
 24 26  1  0  0  0  0
 26 27  1  0  0  0  0
 26 28  1  0  0  0  0
 26 29  1  0  0  0  0
M  END
$$$$

  -OEChem-01062216083D

 29 29  0     1  0  0  0  0  0999 V2000
   -2.5333   -2.0674    1.8982 H   0  0  0  0  0  0  0  0  0  0  0  0
   -2.7290   -1.1329    1.3665 C   0  0  0  0  0  0  0  0  0  0  0  0
   -2.3848   -0.2953    1.9760 H   0  0  0  0  0  0  0  0  0  0  0  0
   -3.8063   -1.0315    1.2152 H   0  0  0  0  0  0  0  0  0  0  0  0
   -2.0269   -1.1409    0.0188 C   0  0  0  0  0  0  0  0  0  0  0  0
   -2.2665   -2.0411   -0.7633 O   0  0  0  0  0  0  0  0  0  0  0  0
   -1.5808    0.0247   -0.5522 N   0  0  0  0  0  0  0  0  0  0  0  0
   -1.6749   -0.0738   -1.5671 H   0  0  0  0  0  0  0  0  0  0  0  0
   -0.3166    0.7228   -0.2265 C   0  0  1  0  0  0  0  0  0  0  0  0
   -0.5615    1.6189    0.3507 H   0  0  0  0  0  0  0  0  0  0  0  0
    0.7634   -0.0894    0.5401 C   0  0  0  0  0  0  0  0  0  0  0  0
    1.0108   -0.9754   -0.0568 H   0  0  0  0  0  0  0  0  0  0  0  0
    1.6790    0.5044    0.6257 H   0  0  0  0  0  0  0  0  0  0  0  0
    0.3869   -0.5362    1.9277 C   0  0  0  0  0  0  0  0  0  0  0  0
    0.3146    0.2347    3.0685 N   0  0  0  0  0  0  0  0  0  0  0  0
    0.4339    1.2435    3.1287 H   0  0  0  0  0  0  0  0  0  0  0  0
    0.0597   -0.5974    4.1427 C   0  0  0  0  0  0  0  0  0  0  0  0
   -0.0705   -0.2706    5.1707 H   0  0  0  0  0  0  0  0  0  0  0  0
   -0.0018   -1.8429    3.7406 N   0  0  0  0  0  0  0  0  0  0  0  0
    0.2325   -1.8257    2.3704 C   0  0  0  0  0  0  0  0  0  0  0  0
    0.2911   -2.7095    1.7417 H   0  0  0  0  0  0  0  0  0  0  0  0
    0.3755    1.1534   -1.5437 C   0  0  0  0  0  0  0  0  0  0  0  0
   -0.0093    0.7152   -2.6203 O   0  0  0  0  0  0  0  0  0  0  0  0
    1.4026    2.0823   -1.5338 N   0  0  0  0  0  0  0  0  0  0  0  0
    1.6773    2.4801   -0.6410 H   0  0  0  0  0  0  0  0  0  0  0  0
    2.0490    2.5698   -2.7474 C   0  0  0  0  0  0  0  0  0  0  0  0
    1.3273    3.0972   -3.3802 H   0  0  0  0  0  0  0  0  0  0  0  0
    2.8580    3.2617   -2.4943 H   0  0  0  0  0  0  0  0  0  0  0  0
    2.4746    1.7370   -3.3174 H   0  0  0  0  0  0  0  0  0  0  0  0
  1  2  1  0  0  0  0
  2  3  1  0  0  0  0
  2  4  1  0  0  0  0
  2  5  1  0  0  0  0
  5  6  2  0  0  0  0
  5  7  1  0  0  0  0
  7  8  1  0  0  0  0
  7  9  1  0  0  0  0
  9 10  1  0  0  0  0
  9 11  1  0  0  0  0
  9 22  1  0  0  0  0
 11 12  1  0  0  0  0
 11 13  1  0  0  0  0
 11 14  1  0  0  0  0
 14 15  1  0  0  0  0
 14 20  2  0  0  0  0
 15 16  1  0  0  0  0
 15 17  1  0  0  0  0
 17 18  1  0  0  0  0
 17 19  2  0  0  0  0
 19 20  1  0  0  0  0
 20 21  1  0  0  0  0
 22 23  2  0  0  0  0
 22 24  1  0  0  0  0
 24 25  1  0  0  0  0
 24 26  1  0  0  0  0
 26 27  1  0  0  0  0
 26 28  1  0  0  0  0
 26 29  1  0  0  0  0
M  END
$$$$

  -OEChem-01062216083D

 29 29  0     1  0  0  0  0  0999 V2000
   -2.2891   -2.0856    1.9336 H   0  0  0  0  0  0  0  0  0  0  0  0
   -2.5431   -1.0969    1.5443 C   0  0  0  0  0  0  0  0  0  0  0  0
   -2.0130   -0.3366    2.1203 H   0  0  0  0  0  0  0  0  0  0  0  0
   -3.6169   -0.9361    1.6659 H   0  0  0  0  0  0  0  0  0  0  0  0
   -2.1817   -1.0056    0.0706 C   0  0  0  0  0  0  0  0  0  0  0  0
   -2.7444   -1.7379   -0.7215 O   0  0  0  0  0  0  0  0  0  0  0  0
   -1.6469    0.1355   -0.4753 N   0  0  0  0  0  0  0  0  0  0  0  0
   -1.8772    0.1818   -1.4712 H   0  0  0  0  0  0  0  0  0  0  0  0
   -0.3364    0.7561   -0.1796 C   0  0  1  0  0  0  0  0  0  0  0  0
   -0.4603    1.4826    0.6284 H   0  0  0  0  0  0  0  0  0  0  0  0
    0.8059   -0.2360    0.1838 C   0  0  0  0  0  0  0  0  0  0  0  0
    0.9244   -0.9356   -0.6522 H   0  0  0  0  0  0  0  0  0  0  0  0
    1.7509    0.3055    0.2861 H   0  0  0  0  0  0  0  0  0  0  0  0
    0.6229   -1.0332    1.4471 C   0  0  0  0  0  0  0  0  0  0  0  0
    0.7545   -0.5918    2.7469 N   0  0  0  0  0  0  0  0  0  0  0  0
    0.9315    0.3636    3.0494 H   0  0  0  0  0  0  0  0  0  0  0  0
    0.6214   -1.6781    3.5918 C   0  0  0  0  0  0  0  0  0  0  0  0
    0.6631   -1.6368    4.6767 H   0  0  0  0  0  0  0  0  0  0  0  0
    0.4373   -2.7705    2.8922 N   0  0  0  0  0  0  0  0  0  0  0  0
    0.4632   -2.3918    1.5548 C   0  0  0  0  0  0  0  0  0  0  0  0
    0.3780   -3.0765    0.7158 H   0  0  0  0  0  0  0  0  0  0  0  0
    0.1611    1.4965   -1.4514 C   0  0  0  0  0  0  0  0  0  0  0  0
   -0.5095    1.4860   -2.4766 O   0  0  0  0  0  0  0  0  0  0  0  0
    1.3689    2.1761   -1.4677 N   0  0  0  0  0  0  0  0  0  0  0  0
    1.9089    2.2099   -0.6088 H   0  0  0  0  0  0  0  0  0  0  0  0
    1.8684    2.8930   -2.6361 C   0  0  0  0  0  0  0  0  0  0  0  0
    1.1978    3.7195   -2.8940 H   0  0  0  0  0  0  0  0  0  0  0  0
    2.8617    3.3041   -2.4320 H   0  0  0  0  0  0  0  0  0  0  0  0
    1.9447    2.2194   -3.4963 H   0  0  0  0  0  0  0  0  0  0  0  0
  1  2  1  0  0  0  0
  2  3  1  0  0  0  0
  2  4  1  0  0  0  0
  2  5  1  0  0  0  0
  5  6  2  0  0  0  0
  5  7  1  0  0  0  0
  7  8  1  0  0  0  0
  7  9  1  0  0  0  0
  9 10  1  0  0  0  0
  9 11  1  0  0  0  0
  9 22  1  0  0  0  0
 11 12  1  0  0  0  0
 11 13  1  0  0  0  0
 11 14  1  0  0  0  0
 14 15  1  0  0  0  0
 14 20  2  0  0  0  0
 15 16  1  0  0  0  0
 15 17  1  0  0  0  0
 17 18  1  0  0  0  0
 17 19  2  0  0  0  0
 19 20  1  0  0  0  0
 20 21  1  0  0  0  0
 22 23  2  0  0  0  0
 22 24  1  0  0  0  0
 24 25  1  0  0  0  0
 24 26  1  0  0  0  0
 26 27  1  0  0  0  0
 26 28  1  0  0  0  0
 26 29  1  0  0  0  0
M  END
$$$$

  -OEChem-01062216083D

 29 29  0     1  0  0  0  0  0999 V2000
   -2.3086   -2.1076    1.9140 H   0  0  0  0  0  0  0  0  0  0  0  0
   -2.5445   -1.1102    1.5355 C   0  0  0  0  0  0  0  0  0  0  0  0
   -2.0060   -0.3653    2.1238 H   0  0  0  0  0  0  0  0  0  0  0  0
   -3.6164   -0.9340    1.6538 H   0  0  0  0  0  0  0  0  0  0  0  0
   -2.1741   -1.0057    0.0647 C   0  0  0  0  0  0  0  0  0  0  0  0
   -2.7417   -1.7218   -0.7388 O   0  0  0  0  0  0  0  0  0  0  0  0
   -1.6296    0.1377   -0.4661 N   0  0  0  0  0  0  0  0  0  0  0  0
   -1.8890    0.2250   -1.4515 H   0  0  0  0  0  0  0  0  0  0  0  0
   -0.3121    0.7467   -0.1752 C   0  0  1  0  0  0  0  0  0  0  0  0
   -0.4261    1.4722    0.6352 H   0  0  0  0  0  0  0  0  0  0  0  0
    0.8169   -0.2604    0.1938 C   0  0  0  0  0  0  0  0  0  0  0  0
    0.9301   -0.9639   -0.6394 H   0  0  0  0  0  0  0  0  0  0  0  0
    1.7673    0.2691    0.3034 H   0  0  0  0  0  0  0  0  0  0  0  0
    0.6225   -1.0480    1.4614 C   0  0  0  0  0  0  0  0  0  0  0  0
    0.7612   -0.5989    2.7577 N   0  0  0  0  0  0  0  0  0  0  0  0
    0.9504    0.3565    3.0528 H   0  0  0  0  0  0  0  0  0  0  0  0
    0.6155   -1.6769    3.6111 C   0  0  0  0  0  0  0  0  0  0  0  0
    0.6597   -1.6279    4.6956 H   0  0  0  0  0  0  0  0  0  0  0  0
    0.4163   -2.7720    2.9197 N   0  0  0  0  0  0  0  0  0  0  0  0
    0.4458   -2.4036    1.5794 C   0  0  0  0  0  0  0  0  0  0  0  0
    0.3512   -3.0934    0.7458 H   0  0  0  0  0  0  0  0  0  0  0  0
    0.1684    1.4984   -1.4511 C   0  0  0  0  0  0  0  0  0  0  0  0
   -0.6199    1.7201   -2.3624 O   0  0  0  0  0  0  0  0  0  0  0  0
    1.4791    1.9186   -1.6197 N   0  0  0  0  0  0  0  0  0  0  0  0
    2.1330    1.7573   -0.8606 H   0  0  0  0  0  0  0  0  0  0  0  0
    1.9512    2.6190   -2.8098 C   0  0  0  0  0  0  0  0  0  0  0  0
    1.4288    3.5747   -2.9244 H   0  0  0  0  0  0  0  0  0  0  0  0
    3.0242    2.8185   -2.7309 H   0  0  0  0  0  0  0  0  0  0  0  0
    1.7788    2.0135   -3.7061 H   0  0  0  0  0  0  0  0  0  0  0  0
  1  2  1  0  0  0  0
  2  3  1  0  0  0  0
  2  4  1  0  0  0  0
  2  5  1  0  0  0  0
  5  6  2  0  0  0  0
  5  7  1  0  0  0  0
  7  8  1  0  0  0  0
  7  9  1  0  0  0  0
  9 10  1  0  0  0  0
  9 11  1  0  0  0  0
  9 22  1  0  0  0  0
 11 12  1  0  0  0  0
 11 13  1  0  0  0  0
 11 14  1  0  0  0  0
 14 15  1  0  0  0  0
 14 20  2  0  0  0  0
 15 16  1  0  0  0  0
 15 17  1  0  0  0  0
 17 18  1  0  0  0  0
 17 19  2  0  0  0  0
 19 20  1  0  0  0  0
 20 21  1  0  0  0  0
 22 23  2  0  0  0  0
 22 24  1  0  0  0  0
 24 25  1  0  0  0  0
 24 26  1  0  0  0  0
 26 27  1  0  0  0  0
 26 28  1  0  0  0  0
 26 29  1  0  0  0  0
M  END
$$$$

  -OEChem-01062216083D

 29 29  0     1  0  0  0  0  0999 V2000
   -2.3206   -2.1074    1.9042 H   0  0  0  0  0  0  0  0  0  0  0  0
   -2.5492   -1.1061    1.5316 C   0  0  0  0  0  0  0  0  0  0  0  0
   -2.0080   -0.3684    2.1265 H   0  0  0  0  0  0  0  0  0  0  0  0
   -3.6204   -0.9241    1.6474 H   0  0  0  0  0  0  0  0  0  0  0  0
   -2.1744   -0.9936    0.0628 C   0  0  0  0  0  0  0  0  0  0  0  0
   -2.7540   -1.6911   -0.7484 O   0  0  0  0  0  0  0  0  0  0  0  0
   -1.6165    0.1483   -0.4568 N   0  0  0  0  0  0  0  0  0  0  0  0
   -1.9000    0.2709   -1.4310 H   0  0  0  0  0  0  0  0  0  0  0  0
   -0.2885    0.7346   -0.1686 C   0  0  1  0  0  0  0  0  0  0  0  0
   -0.3906    1.4615    0.6423 H   0  0  0  0  0  0  0  0  0  0  0  0
    0.8277   -0.2832    0.2066 C   0  0  0  0  0  0  0  0  0  0  0  0
    0.9376   -0.9925   -0.6221 H   0  0  0  0  0  0  0  0  0  0  0  0
    1.7802    0.2417    0.3214 H   0  0  0  0  0  0  0  0  0  0  0  0
    0.6223   -1.0592    1.4788 C   0  0  0  0  0  0  0  0  0  0  0  0
    0.7655   -0.6021    2.7717 N   0  0  0  0  0  0  0  0  0  0  0  0
    0.9631    0.3541    3.0596 H   0  0  0  0  0  0  0  0  0  0  0  0
    0.6064   -1.6719    3.6330 C   0  0  0  0  0  0  0  0  0  0  0  0
    0.6473   -1.6143    4.7171 H   0  0  0  0  0  0  0  0  0  0  0  0
    0.3985   -2.7705    2.9496 N   0  0  0  0  0  0  0  0  0  0  0  0
    0.4336   -2.4123    1.6067 C   0  0  0  0  0  0  0  0  0  0  0  0
    0.3342   -3.1078    0.7783 H   0  0  0  0  0  0  0  0  0  0  0  0
    0.1803    1.4915   -1.4465 C   0  0  0  0  0  0  0  0  0  0  0  0
   -0.6582    1.9619   -2.2052 O   0  0  0  0  0  0  0  0  0  0  0  0
    1.5137    1.6429   -1.7979 N   0  0  0  0  0  0  0  0  0  0  0  0
    2.2177    1.2385   -1.1891 H   0  0  0  0  0  0  0  0  0  0  0  0
    1.9517    2.3211   -3.0136 C   0  0  0  0  0  0  0  0  0  0  0  0
    1.6117    3.3623   -3.0161 H   0  0  0  0  0  0  0  0  0  0  0  0
    3.0441    2.3148   -3.0780 H   0  0  0  0  0  0  0  0  0  0  0  0
    1.5510    1.8171   -3.8995 H   0  0  0  0  0  0  0  0  0  0  0  0
  1  2  1  0  0  0  0
  2  3  1  0  0  0  0
  2  4  1  0  0  0  0
  2  5  1  0  0  0  0
  5  6  2  0  0  0  0
  5  7  1  0  0  0  0
  7  8  1  0  0  0  0
  7  9  1  0  0  0  0
  9 10  1  0  0  0  0
  9 11  1  0  0  0  0
  9 22  1  0  0  0  0
 11 12  1  0  0  0  0
 11 13  1  0  0  0  0
 11 14  1  0  0  0  0
 14 15  1  0  0  0  0
 14 20  2  0  0  0  0
 15 16  1  0  0  0  0
 15 17  1  0  0  0  0
 17 18  1  0  0  0  0
 17 19  2  0  0  0  0
 19 20  1  0  0  0  0
 20 21  1  0  0  0  0
 22 23  2  0  0  0  0
 22 24  1  0  0  0  0
 24 25  1  0  0  0  0
 24 26  1  0  0  0  0
 26 27  1  0  0  0  0
 26 28  1  0  0  0  0
 26 29  1  0  0  0  0
M  END
$$$$

  -OEChem-01062216083D

 29 29  0     1  0  0  0  0  0999 V2000
   -1.5779   -2.3331    0.2763 H   0  0  0  0  0  0  0  0  0  0  0  0
   -2.3680   -1.7856    0.7908 C   0  0  0  0  0  0  0  0  0  0  0  0
   -2.1059   -1.6070    1.8350 H   0  0  0  0  0  0  0  0  0  0  0  0
   -3.2743   -2.3972    0.7690 H   0  0  0  0  0  0  0  0  0  0  0  0
   -2.6194   -0.4694    0.0919 C   0  0  0  0  0  0  0  0  0  0  0  0
   -3.7545   -0.2135   -0.2652 O   0  0  0  0  0  0  0  0  0  0  0  0
   -1.7099    0.4821   -0.3107 N   0  0  0  0  0  0  0  0  0  0  0  0
   -2.1849    1.2107   -0.8475 H   0  0  0  0  0  0  0  0  0  0  0  0
   -0.2657    0.7476   -0.1098 C   0  0  1  0  0  0  0  0  0  0  0  0
   -0.2238    1.4959    0.6873 H   0  0  0  0  0  0  0  0  0  0  0  0
    0.7567   -0.3387    0.3263 C   0  0  0  0  0  0  0  0  0  0  0  0
    0.7409   -1.1429   -0.4173 H   0  0  0  0  0  0  0  0  0  0  0  0
    1.7610    0.0975    0.3221 H   0  0  0  0  0  0  0  0  0  0  0  0
    0.5648   -0.9428    1.6937 C   0  0  0  0  0  0  0  0  0  0  0  0
    0.8513   -0.3408    2.9015 N   0  0  0  0  0  0  0  0  0  0  0  0
    1.0641    0.6438    3.0502 H   0  0  0  0  0  0  0  0  0  0  0  0
    0.7846   -1.2921    3.9020 C   0  0  0  0  0  0  0  0  0  0  0  0
    0.9220   -1.0973    4.9619 H   0  0  0  0  0  0  0  0  0  0  0  0
    0.5364   -2.4687    3.3826 N   0  0  0  0  0  0  0  0  0  0  0  0
    0.4500   -2.2745    2.0106 C   0  0  0  0  0  0  0  0  0  0  0  0
    0.3443   -3.0765    1.2863 H   0  0  0  0  0  0  0  0  0  0  0  0
    0.2372    1.4743   -1.3859 C   0  0  0  0  0  0  0  0  0  0  0  0
   -0.4322    2.3939   -1.8387 O   0  0  0  0  0  0  0  0  0  0  0  0
    1.4179    1.1464   -2.0352 N   0  0  0  0  0  0  0  0  0  0  0  0
    1.9323    0.3367   -1.7038 H   0  0  0  0  0  0  0  0  0  0  0  0
    1.8642    1.7999   -3.2610 C   0  0  0  0  0  0  0  0  0  0  0  0
    1.9557    2.8807   -3.1096 H   0  0  0  0  0  0  0  0  0  0  0  0
    2.8419    1.4117   -3.5625 H   0  0  0  0  0  0  0  0  0  0  0  0
    1.1528    1.6171   -4.0732 H   0  0  0  0  0  0  0  0  0  0  0  0
  1  2  1  0  0  0  0
  2  3  1  0  0  0  0
  2  4  1  0  0  0  0
  2  5  1  0  0  0  0
  5  6  2  0  0  0  0
  5  7  1  0  0  0  0
  7  8  1  0  0  0  0
  7  9  1  0  0  0  0
  9 10  1  0  0  0  0
  9 11  1  0  0  0  0
  9 22  1  0  0  0  0
 11 12  1  0  0  0  0
 11 13  1  0  0  0  0
 11 14  1  0  0  0  0
 14 15  1  0  0  0  0
 14 20  2  0  0  0  0
 15 16  1  0  0  0  0
 15 17  1  0  0  0  0
 17 18  1  0  0  0  0
 17 19  2  0  0  0  0
 19 20  1  0  0  0  0
 20 21  1  0  0  0  0
 22 23  2  0  0  0  0
 22 24  1  0  0  0  0
 24 25  1  0  0  0  0
 24 26  1  0  0  0  0
 26 27  1  0  0  0  0
 26 28  1  0  0  0  0
 26 29  1  0  0  0  0
M  END
$$$$

  -OEChem-01062216083D

 29 29  0     1  0  0  0  0  0999 V2000
   -1.5652   -2.3219    0.2448 H   0  0  0  0  0  0  0  0  0  0  0  0
   -2.3638   -1.7912    0.7638 C   0  0  0  0  0  0  0  0  0  0  0  0
   -2.1157   -1.6414    1.8159 H   0  0  0  0  0  0  0  0  0  0  0  0
   -3.2680   -2.4041    0.7130 H   0  0  0  0  0  0  0  0  0  0  0  0
   -2.6111   -0.4555    0.1015 C   0  0  0  0  0  0  0  0  0  0  0  0
   -3.7481   -0.1754   -0.2301 O   0  0  0  0  0  0  0  0  0  0  0  0
   -1.6945    0.4858   -0.3081 N   0  0  0  0  0  0  0  0  0  0  0  0
   -2.1729    1.2407   -0.8025 H   0  0  0  0  0  0  0  0  0  0  0  0
   -0.2469    0.7301   -0.1106 C   0  0  1  0  0  0  0  0  0  0  0  0
   -0.1962    1.4796    0.6856 H   0  0  0  0  0  0  0  0  0  0  0  0
    0.7670   -0.3610    0.3296 C   0  0  0  0  0  0  0  0  0  0  0  0
    0.7398   -1.1737   -0.4039 H   0  0  0  0  0  0  0  0  0  0  0  0
    1.7746    0.0680    0.3100 H   0  0  0  0  0  0  0  0  0  0  0  0
    0.5698   -0.9508    1.7028 C   0  0  0  0  0  0  0  0  0  0  0  0
    0.8640   -0.3385    2.9034 N   0  0  0  0  0  0  0  0  0  0  0  0
    1.0930    0.6444    3.0393 H   0  0  0  0  0  0  0  0  0  0  0  0
    0.7802   -1.2755    3.9158 C   0  0  0  0  0  0  0  0  0  0  0  0
    0.9182   -1.0695    4.9737 H   0  0  0  0  0  0  0  0  0  0  0  0
    0.5145   -2.4544    3.4106 N   0  0  0  0  0  0  0  0  0  0  0  0
    0.4341   -2.2765    2.0361 C   0  0  0  0  0  0  0  0  0  0  0  0
    0.3160   -3.0861    1.3221 H   0  0  0  0  0  0  0  0  0  0  0  0
    0.2665    1.4461   -1.3840 C   0  0  0  0  0  0  0  0  0  0  0  0
   -0.2438    2.5131   -1.6972 O   0  0  0  0  0  0  0  0  0  0  0  0
    1.2590    0.9234   -2.1983 N   0  0  0  0  0  0  0  0  0  0  0  0
    1.5995   -0.0096   -1.9889 H   0  0  0  0  0  0  0  0  0  0  0  0
    1.6805    1.5552   -3.4442 C   0  0  0  0  0  0  0  0  0  0  0  0
    2.0205    2.5800   -3.2606 H   0  0  0  0  0  0  0  0  0  0  0  0
    2.5067    0.9951   -3.8926 H   0  0  0  0  0  0  0  0  0  0  0  0
    0.8514    1.5827   -4.1592 H   0  0  0  0  0  0  0  0  0  0  0  0
  1  2  1  0  0  0  0
  2  3  1  0  0  0  0
  2  4  1  0  0  0  0
  2  5  1  0  0  0  0
  5  6  2  0  0  0  0
  5  7  1  0  0  0  0
  7  8  1  0  0  0  0
  7  9  1  0  0  0  0
  9 10  1  0  0  0  0
  9 11  1  0  0  0  0
  9 22  1  0  0  0  0
 11 12  1  0  0  0  0
 11 13  1  0  0  0  0
 11 14  1  0  0  0  0
 14 15  1  0  0  0  0
 14 20  2  0  0  0  0
 15 16  1  0  0  0  0
 15 17  1  0  0  0  0
 17 18  1  0  0  0  0
 17 19  2  0  0  0  0
 19 20  1  0  0  0  0
 20 21  1  0  0  0  0
 22 23  2  0  0  0  0
 22 24  1  0  0  0  0
 24 25  1  0  0  0  0
 24 26  1  0  0  0  0
 26 27  1  0  0  0  0
 26 28  1  0  0  0  0
 26 29  1  0  0  0  0
M  END
$$$$

  -OEChem-01062216083D

 29 29  0     1  0  0  0  0  0999 V2000
   -1.3284   -2.1818   -0.3436 H   0  0  0  0  0  0  0  0  0  0  0  0
   -2.2592   -1.9626    0.1773 C   0  0  0  0  0  0  0  0  0  0  0  0
   -2.2992   -2.5268    1.1119 H   0  0  0  0  0  0  0  0  0  0  0  0
   -3.0878   -2.2853   -0.4586 H   0  0  0  0  0  0  0  0  0  0  0  0
   -2.3990   -0.4775    0.4658 C   0  0  0  0  0  0  0  0  0  0  0  0
   -3.4788   -0.0705    0.8510 O   0  0  0  0  0  0  0  0  0  0  0  0
   -1.6375    0.4996   -0.1288 N   0  0  0  0  0  0  0  0  0  0  0  0
   -2.1766    1.3642   -0.1678 H   0  0  0  0  0  0  0  0  0  0  0  0
   -0.1779    0.7266   -0.0637 C   0  0  1  0  0  0  0  0  0  0  0  0
   -0.0432    1.4984    0.7014 H   0  0  0  0  0  0  0  0  0  0  0  0
    0.7849   -0.4092    0.3572 C   0  0  0  0  0  0  0  0  0  0  0  0
    0.6816   -1.2573   -0.3249 H   0  0  0  0  0  0  0  0  0  0  0  0
    1.8169   -0.0516    0.2705 H   0  0  0  0  0  0  0  0  0  0  0  0
    0.5751   -0.8686    1.7789 C   0  0  0  0  0  0  0  0  0  0  0  0
    0.9551   -0.1969    2.9218 N   0  0  0  0  0  0  0  0  0  0  0  0
    1.3184    0.7531    2.9728 H   0  0  0  0  0  0  0  0  0  0  0  0
    0.7306   -1.0160    4.0126 C   0  0  0  0  0  0  0  0  0  0  0  0
    0.9048   -0.7413    5.0491 H   0  0  0  0  0  0  0  0  0  0  0  0
    0.2812   -2.1799    3.6126 N   0  0  0  0  0  0  0  0  0  0  0  0
    0.2120   -2.1127    2.2279 C   0  0  0  0  0  0  0  0  0  0  0  0
   -0.0578   -2.9490    1.5907 H   0  0  0  0  0  0  0  0  0  0  0  0
    0.2870    1.3797   -1.3832 C   0  0  0  0  0  0  0  0  0  0  0  0
    0.0409    2.5622   -1.5751 O   0  0  0  0  0  0  0  0  0  0  0  0
    0.9730    0.6698   -2.3550 N   0  0  0  0  0  0  0  0  0  0  0  0
    1.0648   -0.3328   -2.2263 H   0  0  0  0  0  0  0  0  0  0  0  0
    1.3482    1.2451   -3.6420 C   0  0  0  0  0  0  0  0  0  0  0  0
    1.9709    2.1346   -3.4988 H   0  0  0  0  0  0  0  0  0  0  0  0
    1.9175    0.5190   -4.2303 H   0  0  0  0  0  0  0  0  0  0  0  0
    0.4555    1.5283   -4.2096 H   0  0  0  0  0  0  0  0  0  0  0  0
  1  2  1  0  0  0  0
  2  3  1  0  0  0  0
  2  4  1  0  0  0  0
  2  5  1  0  0  0  0
  5  6  2  0  0  0  0
  5  7  1  0  0  0  0
  7  8  1  0  0  0  0
  7  9  1  0  0  0  0
  9 10  1  0  0  0  0
  9 11  1  0  0  0  0
  9 22  1  0  0  0  0
 11 12  1  0  0  0  0
 11 13  1  0  0  0  0
 11 14  1  0  0  0  0
 14 15  1  0  0  0  0
 14 20  2  0  0  0  0
 15 16  1  0  0  0  0
 15 17  1  0  0  0  0
 17 18  1  0  0  0  0
 17 19  2  0  0  0  0
 19 20  1  0  0  0  0
 20 21  1  0  0  0  0
 22 23  2  0  0  0  0
 22 24  1  0  0  0  0
 24 25  1  0  0  0  0
 24 26  1  0  0  0  0
 26 27  1  0  0  0  0
 26 28  1  0  0  0  0
 26 29  1  0  0  0  0
M  END
$$$$

  -OEChem-01062216083D

 29 29  0     1  0  0  0  0  0999 V2000
   -1.3417   -2.1898   -0.3159 H   0  0  0  0  0  0  0  0  0  0  0  0
   -2.2720   -1.9625    0.2025 C   0  0  0  0  0  0  0  0  0  0  0  0
   -2.3123   -2.5153    1.1439 H   0  0  0  0  0  0  0  0  0  0  0  0
   -3.1010   -2.2914   -0.4294 H   0  0  0  0  0  0  0  0  0  0  0  0
   -2.4093   -0.4739    0.4729 C   0  0  0  0  0  0  0  0  0  0  0  0
   -3.4884   -0.0584    0.8505 O   0  0  0  0  0  0  0  0  0  0  0  0
   -1.6479    0.4937   -0.1372 N   0  0  0  0  0  0  0  0  0  0  0  0
   -2.1827    1.3611   -0.1666 H   0  0  0  0  0  0  0  0  0  0  0  0
   -0.1867    0.7112   -0.0767 C   0  0  1  0  0  0  0  0  0  0  0  0
   -0.0475    1.4863    0.6847 H   0  0  0  0  0  0  0  0  0  0  0  0
    0.7773   -0.4227    0.3444 C   0  0  0  0  0  0  0  0  0  0  0  0
    0.6723   -1.2736   -0.3339 H   0  0  0  0  0  0  0  0  0  0  0  0
    1.8083   -0.0650    0.2485 H   0  0  0  0  0  0  0  0  0  0  0  0
    0.5750   -0.8767    1.7685 C   0  0  0  0  0  0  0  0  0  0  0  0
    0.9627   -0.1980    2.9044 N   0  0  0  0  0  0  0  0  0  0  0  0
    1.3313    0.7505    2.9463 H   0  0  0  0  0  0  0  0  0  0  0  0
    0.7470   -1.0108    4.0014 C   0  0  0  0  0  0  0  0  0  0  0  0
    0.9303   -0.7297    5.0348 H   0  0  0  0  0  0  0  0  0  0  0  0
    0.2935   -2.1769    3.6118 N   0  0  0  0  0  0  0  0  0  0  0  0
    0.2150   -2.1181    2.2271 C   0  0  0  0  0  0  0  0  0  0  0  0
   -0.0596   -2.9579    1.5965 H   0  0  0  0  0  0  0  0  0  0  0  0
    0.2890    1.3445   -1.3994 C   0  0  0  0  0  0  0  0  0  0  0  0
    0.3321    2.5626   -1.4962 O   0  0  0  0  0  0  0  0  0  0  0  0
    0.6891    0.5634   -2.4702 N   0  0  0  0  0  0  0  0  0  0  0  0
    0.5180   -0.4353   -2.4065 H   0  0  0  0  0  0  0  0  0  0  0  0
    1.0720    1.1236   -3.7612 C   0  0  0  0  0  0  0  0  0  0  0  0
    1.8902    1.8418   -3.6412 H   0  0  0  0  0  0  0  0  0  0  0  0
    1.4093    0.3292   -4.4339 H   0  0  0  0  0  0  0  0  0  0  0  0
    0.2210    1.6336   -4.2248 H   0  0  0  0  0  0  0  0  0  0  0  0
  1  2  1  0  0  0  0
  2  3  1  0  0  0  0
  2  4  1  0  0  0  0
  2  5  1  0  0  0  0
  5  6  2  0  0  0  0
  5  7  1  0  0  0  0
  7  8  1  0  0  0  0
  7  9  1  0  0  0  0
  9 10  1  0  0  0  0
  9 11  1  0  0  0  0
  9 22  1  0  0  0  0
 11 12  1  0  0  0  0
 11 13  1  0  0  0  0
 11 14  1  0  0  0  0
 14 15  1  0  0  0  0
 14 20  2  0  0  0  0
 15 16  1  0  0  0  0
 15 17  1  0  0  0  0
 17 18  1  0  0  0  0
 17 19  2  0  0  0  0
 19 20  1  0  0  0  0
 20 21  1  0  0  0  0
 22 23  2  0  0  0  0
 22 24  1  0  0  0  0
 24 25  1  0  0  0  0
 24 26  1  0  0  0  0
 26 27  1  0  0  0  0
 26 28  1  0  0  0  0
 26 29  1  0  0  0  0
M  END
$$$$

  -OEChem-01062216083D

 29 29  0     1  0  0  0  0  0999 V2000
   -1.6008   -2.3232    0.2801 H   0  0  0  0  0  0  0  0  0  0  0  0
   -2.3895   -1.7926    0.8142 C   0  0  0  0  0  0  0  0  0  0  0  0
   -2.1230   -1.6500    1.8629 H   0  0  0  0  0  0  0  0  0  0  0  0
   -3.2961   -2.4028    0.7751 H   0  0  0  0  0  0  0  0  0  0  0  0
   -2.6446   -0.4520    0.1639 C   0  0  0  0  0  0  0  0  0  0  0  0
   -3.7867   -0.1541   -0.1317 O   0  0  0  0  0  0  0  0  0  0  0  0
   -1.7341    0.4657   -0.3073 N   0  0  0  0  0  0  0  0  0  0  0  0
   -2.2344    1.2353   -0.7511 H   0  0  0  0  0  0  0  0  0  0  0  0
   -0.2811    0.6981   -0.1334 C   0  0  1  0  0  0  0  0  0  0  0  0
   -0.2139    1.4654    0.6453 H   0  0  0  0  0  0  0  0  0  0  0  0
    0.7412   -0.3845    0.2996 C   0  0  0  0  0  0  0  0  0  0  0  0
    0.7059   -1.2061   -0.4231 H   0  0  0  0  0  0  0  0  0  0  0  0
    1.7473    0.0471    0.2473 H   0  0  0  0  0  0  0  0  0  0  0  0
    0.5671   -0.9575    1.6827 C   0  0  0  0  0  0  0  0  0  0  0  0
    0.8817   -0.3260    2.8674 N   0  0  0  0  0  0  0  0  0  0  0  0
    1.1260    0.6564    2.9802 H   0  0  0  0  0  0  0  0  0  0  0  0
    0.8131   -1.2461    3.8960 C   0  0  0  0  0  0  0  0  0  0  0  0
    0.9714   -1.0233    4.9475 H   0  0  0  0  0  0  0  0  0  0  0  0
    0.5326   -2.4322    3.4153 N   0  0  0  0  0  0  0  0  0  0  0  0
    0.4328   -2.2770    2.0390 C   0  0  0  0  0  0  0  0  0  0  0  0
    0.3011   -3.0980    1.3407 H   0  0  0  0  0  0  0  0  0  0  0  0
    0.2568    1.3449   -1.4246 C   0  0  0  0  0  0  0  0  0  0  0  0
    0.5669    2.5272   -1.4218 O   0  0  0  0  0  0  0  0  0  0  0  0
    0.4383    0.5935   -2.5721 N   0  0  0  0  0  0  0  0  0  0  0  0
    0.0539   -0.3470   -2.5744 H   0  0  0  0  0  0  0  0  0  0  0  0
    0.8962    1.1659   -3.8328 C   0  0  0  0  0  0  0  0  0  0  0  0
    1.8538    1.6796   -3.6961 H   0  0  0  0  0  0  0  0  0  0  0  0
    1.0338    0.3774   -4.5790 H   0  0  0  0  0  0  0  0  0  0  0  0
    0.1635    1.8838   -4.2162 H   0  0  0  0  0  0  0  0  0  0  0  0
  1  2  1  0  0  0  0
  2  3  1  0  0  0  0
  2  4  1  0  0  0  0
  2  5  1  0  0  0  0
  5  6  2  0  0  0  0
  5  7  1  0  0  0  0
  7  8  1  0  0  0  0
  7  9  1  0  0  0  0
  9 10  1  0  0  0  0
  9 11  1  0  0  0  0
  9 22  1  0  0  0  0
 11 12  1  0  0  0  0
 11 13  1  0  0  0  0
 11 14  1  0  0  0  0
 14 15  1  0  0  0  0
 14 20  2  0  0  0  0
 15 16  1  0  0  0  0
 15 17  1  0  0  0  0
 17 18  1  0  0  0  0
 17 19  2  0  0  0  0
 19 20  1  0  0  0  0
 20 21  1  0  0  0  0
 22 23  2  0  0  0  0
 22 24  1  0  0  0  0
 24 25  1  0  0  0  0
 24 26  1  0  0  0  0
 26 27  1  0  0  0  0
 26 28  1  0  0  0  0
 26 29  1  0  0  0  0
M  END
$$$$

  -OEChem-01062216083D

 29 29  0     1  0  0  0  0  0999 V2000
   -1.6182   -2.3298    0.3058 H   0  0  0  0  0  0  0  0  0  0  0  0
   -2.3995   -1.7952    0.8468 C   0  0  0  0  0  0  0  0  0  0  0  0
   -2.1189   -1.6462    1.8908 H   0  0  0  0  0  0  0  0  0  0  0  0
   -3.3072   -2.4047    0.8232 H   0  0  0  0  0  0  0  0  0  0  0  0
   -2.6621   -0.4587    0.1915 C   0  0  0  0  0  0  0  0  0  0  0  0
   -3.8061   -0.1632   -0.0987 O   0  0  0  0  0  0  0  0  0  0  0  0
   -1.7585    0.4553   -0.2993 N   0  0  0  0  0  0  0  0  0  0  0  0
   -2.2677    1.2206   -0.7396 H   0  0  0  0  0  0  0  0  0  0  0  0
   -0.3049    0.6968   -0.1344 C   0  0  1  0  0  0  0  0  0  0  0  0
   -0.2349    1.4717    0.6362 H   0  0  0  0  0  0  0  0  0  0  0  0
    0.7254   -0.3803    0.2915 C   0  0  0  0  0  0  0  0  0  0  0  0
    0.6909   -1.1993   -0.4344 H   0  0  0  0  0  0  0  0  0  0  0  0
    1.7290    0.0570    0.2340 H   0  0  0  0  0  0  0  0  0  0  0  0
    0.5643   -0.9565    1.6747 C   0  0  0  0  0  0  0  0  0  0  0  0
    0.8832   -0.3257    2.8586 N   0  0  0  0  0  0  0  0  0  0  0  0
    1.1268    0.6570    2.9710 H   0  0  0  0  0  0  0  0  0  0  0  0
    0.8276   -1.2487    3.8856 C   0  0  0  0  0  0  0  0  0  0  0  0
    0.9938   -1.0276    4.9362 H   0  0  0  0  0  0  0  0  0  0  0  0
    0.5492   -2.4351    3.4045 N   0  0  0  0  0  0  0  0  0  0  0  0
    0.4403   -2.2776    2.0291 C   0  0  0  0  0  0  0  0  0  0  0  0
    0.3088   -3.0977    1.3296 H   0  0  0  0  0  0  0  0  0  0  0  0
    0.2308    1.3235   -1.4350 C   0  0  0  0  0  0  0  0  0  0  0  0
    0.8237    2.3916   -1.3933 O   0  0  0  0  0  0  0  0  0  0  0  0
    0.1233    0.6434   -2.6343 N   0  0  0  0  0  0  0  0  0  0  0  0
   -0.4616   -0.1881   -2.6410 H   0  0  0  0  0  0  0  0  0  0  0  0
    0.5864    1.1879   -3.9053 C   0  0  0  0  0  0  0  0  0  0  0  0
    1.6459    1.4583   -3.8447 H   0  0  0  0  0  0  0  0  0  0  0  0
    0.4672    0.4458   -4.7005 H   0  0  0  0  0  0  0  0  0  0  0  0
    0.0103    2.0799   -4.1726 H   0  0  0  0  0  0  0  0  0  0  0  0
  1  2  1  0  0  0  0
  2  3  1  0  0  0  0
  2  4  1  0  0  0  0
  2  5  1  0  0  0  0
  5  6  2  0  0  0  0
  5  7  1  0  0  0  0
  7  8  1  0  0  0  0
  7  9  1  0  0  0  0
  9 10  1  0  0  0  0
  9 11  1  0  0  0  0
  9 22  1  0  0  0  0
 11 12  1  0  0  0  0
 11 13  1  0  0  0  0
 11 14  1  0  0  0  0
 14 15  1  0  0  0  0
 14 20  2  0  0  0  0
 15 16  1  0  0  0  0
 15 17  1  0  0  0  0
 17 18  1  0  0  0  0
 17 19  2  0  0  0  0
 19 20  1  0  0  0  0
 20 21  1  0  0  0  0
 22 23  2  0  0  0  0
 22 24  1  0  0  0  0
 24 25  1  0  0  0  0
 24 26  1  0  0  0  0
 26 27  1  0  0  0  0
 26 28  1  0  0  0  0
 26 29  1  0  0  0  0
M  END
$$$$

  -OEChem-01062216083D

 29 29  0     1  0  0  0  0  0999 V2000
   -1.4223   -2.2185   -0.2547 H   0  0  0  0  0  0  0  0  0  0  0  0
   -2.3301   -1.9752    0.2966 C   0  0  0  0  0  0  0  0  0  0  0  0
   -2.3351   -2.5097    1.2494 H   0  0  0  0  0  0  0  0  0  0  0  0
   -3.1869   -2.3105   -0.2934 H   0  0  0  0  0  0  0  0  0  0  0  0
   -2.4450   -0.4807    0.5438 C   0  0  0  0  0  0  0  0  0  0  0  0
   -3.5096   -0.0436    0.9377 O   0  0  0  0  0  0  0  0  0  0  0  0
   -1.7114    0.4667   -0.1280 N   0  0  0  0  0  0  0  0  0  0  0  0
   -2.2517    1.3306   -0.1388 H   0  0  0  0  0  0  0  0  0  0  0  0
   -0.2478    0.6934   -0.0981 C   0  0  1  0  0  0  0  0  0  0  0  0
   -0.0943    1.4894    0.6383 H   0  0  0  0  0  0  0  0  0  0  0  0
    0.7277   -0.4335    0.3105 C   0  0  0  0  0  0  0  0  0  0  0  0
    0.6117   -1.2841   -0.3673 H   0  0  0  0  0  0  0  0  0  0  0  0
    1.7557   -0.0728    0.1913 H   0  0  0  0  0  0  0  0  0  0  0  0
    0.5608   -0.8850    1.7400 C   0  0  0  0  0  0  0  0  0  0  0  0
    0.9722   -0.1987    2.8624 N   0  0  0  0  0  0  0  0  0  0  0  0
    1.3501    0.7468    2.8867 H   0  0  0  0  0  0  0  0  0  0  0  0
    0.7913   -1.0079    3.9682 C   0  0  0  0  0  0  0  0  0  0  0  0
    1.0000   -0.7210    4.9950 H   0  0  0  0  0  0  0  0  0  0  0  0
    0.3353   -2.1786    3.5954 N   0  0  0  0  0  0  0  0  0  0  0  0
    0.2251   -2.1277    2.2122 C   0  0  0  0  0  0  0  0  0  0  0  0
   -0.0562   -2.9728    1.5916 H   0  0  0  0  0  0  0  0  0  0  0  0
    0.2260    1.2661   -1.4458 C   0  0  0  0  0  0  0  0  0  0  0  0
    1.0816    2.1393   -1.4665 O   0  0  0  0  0  0  0  0  0  0  0  0
   -0.2273    0.7195   -2.6320 N   0  0  0  0  0  0  0  0  0  0  0  0
   -0.9971    0.0587   -2.5664 H   0  0  0  0  0  0  0  0  0  0  0  0
    0.1765    1.2080   -3.9448 C   0  0  0  0  0  0  0  0  0  0  0  0
    1.2670    1.1851   -4.0441 H   0  0  0  0  0  0  0  0  0  0  0  0
   -0.2530    0.5795   -4.7310 H   0  0  0  0  0  0  0  0  0  0  0  0
   -0.1691    2.2364   -4.0935 H   0  0  0  0  0  0  0  0  0  0  0  0
  1  2  1  0  0  0  0
  2  3  1  0  0  0  0
  2  4  1  0  0  0  0
  2  5  1  0  0  0  0
  5  6  2  0  0  0  0
  5  7  1  0  0  0  0
  7  8  1  0  0  0  0
  7  9  1  0  0  0  0
  9 10  1  0  0  0  0
  9 11  1  0  0  0  0
  9 22  1  0  0  0  0
 11 12  1  0  0  0  0
 11 13  1  0  0  0  0
 11 14  1  0  0  0  0
 14 15  1  0  0  0  0
 14 20  2  0  0  0  0
 15 16  1  0  0  0  0
 15 17  1  0  0  0  0
 17 18  1  0  0  0  0
 17 19  2  0  0  0  0
 19 20  1  0  0  0  0
 20 21  1  0  0  0  0
 22 23  2  0  0  0  0
 22 24  1  0  0  0  0
 24 25  1  0  0  0  0
 24 26  1  0  0  0  0
 26 27  1  0  0  0  0
 26 28  1  0  0  0  0
 26 29  1  0  0  0  0
M  END
$$$$

  -OEChem-01062216083D

 29 29  0     1  0  0  0  0  0999 V2000
   -1.4340   -2.2529   -0.2422 H   0  0  0  0  0  0  0  0  0  0  0  0
   -2.3408   -2.0068    0.3095 C   0  0  0  0  0  0  0  0  0  0  0  0
   -2.3510   -2.5495    1.2577 H   0  0  0  0  0  0  0  0  0  0  0  0
   -3.1987   -2.3309   -0.2850 H   0  0  0  0  0  0  0  0  0  0  0  0
   -2.4449   -0.5134    0.5696 C   0  0  0  0  0  0  0  0  0  0  0  0
   -3.5001   -0.0747    0.9858 O   0  0  0  0  0  0  0  0  0  0  0  0
   -1.7265    0.4353   -0.1165 N   0  0  0  0  0  0  0  0  0  0  0  0
   -2.2691    1.2978   -0.1105 H   0  0  0  0  0  0  0  0  0  0  0  0
   -0.2623    0.6686   -0.1066 C   0  0  1  0  0  0  0  0  0  0  0  0
   -0.1033    1.4709    0.6213 H   0  0  0  0  0  0  0  0  0  0  0  0
    0.7135   -0.4577    0.3075 C   0  0  0  0  0  0  0  0  0  0  0  0
    0.5881   -1.3163   -0.3584 H   0  0  0  0  0  0  0  0  0  0  0  0
    1.7431   -0.1060    0.1768 H   0  0  0  0  0  0  0  0  0  0  0  0
    0.5543   -0.8872    1.7450 C   0  0  0  0  0  0  0  0  0  0  0  0
    0.9770   -0.1858    2.8539 N   0  0  0  0  0  0  0  0  0  0  0  0
    1.3642    0.7562    2.8607 H   0  0  0  0  0  0  0  0  0  0  0  0
    0.7977   -0.9764    3.9731 C   0  0  0  0  0  0  0  0  0  0  0  0
    1.0154   -0.6752    4.9939 H   0  0  0  0  0  0  0  0  0  0  0  0
    0.3309   -2.1494    3.6218 N   0  0  0  0  0  0  0  0  0  0  0  0
    0.2123   -2.1198    2.2388 C   0  0  0  0  0  0  0  0  0  0  0  0
   -0.0782   -2.9728    1.6336 H   0  0  0  0  0  0  0  0  0  0  0  0
    0.2014    1.2389   -1.4614 C   0  0  0  0  0  0  0  0  0  0  0  0
    1.2065    1.9338   -1.5151 O   0  0  0  0  0  0  0  0  0  0  0  0
   -0.4694    0.9160   -2.6265 N   0  0  0  0  0  0  0  0  0  0  0  0
   -1.3272    0.3784   -2.5284 H   0  0  0  0  0  0  0  0  0  0  0  0
   -0.1004    1.4349   -3.9379 C   0  0  0  0  0  0  0  0  0  0  0  0
    0.9244    1.1431   -4.1911 H   0  0  0  0  0  0  0  0  0  0  0  0
   -0.7718    1.0374   -4.7052 H   0  0  0  0  0  0  0  0  0  0  0  0
   -0.1687    2.5278   -3.9502 H   0  0  0  0  0  0  0  0  0  0  0  0
  1  2  1  0  0  0  0
  2  3  1  0  0  0  0
  2  4  1  0  0  0  0
  2  5  1  0  0  0  0
  5  6  2  0  0  0  0
  5  7  1  0  0  0  0
  7  8  1  0  0  0  0
  7  9  1  0  0  0  0
  9 10  1  0  0  0  0
  9 11  1  0  0  0  0
  9 22  1  0  0  0  0
 11 12  1  0  0  0  0
 11 13  1  0  0  0  0
 11 14  1  0  0  0  0
 14 15  1  0  0  0  0
 14 20  2  0  0  0  0
 15 16  1  0  0  0  0
 15 17  1  0  0  0  0
 17 18  1  0  0  0  0
 17 19  2  0  0  0  0
 19 20  1  0  0  0  0
 20 21  1  0  0  0  0
 22 23  2  0  0  0  0
 22 24  1  0  0  0  0
 24 25  1  0  0  0  0
 24 26  1  0  0  0  0
 26 27  1  0  0  0  0
 26 28  1  0  0  0  0
 26 29  1  0  0  0  0
M  END
$$$$

  -OEChem-01062216083D

 29 29  0     1  0  0  0  0  0999 V2000
   -1.4502   -2.2699   -0.2479 H   0  0  0  0  0  0  0  0  0  0  0  0
   -2.3540   -2.0256    0.3094 C   0  0  0  0  0  0  0  0  0  0  0  0
   -2.3687   -2.5888    1.2455 H   0  0  0  0  0  0  0  0  0  0  0  0
   -3.2155   -2.3272   -0.2919 H   0  0  0  0  0  0  0  0  0  0  0  0
   -2.4404   -0.5370    0.6025 C   0  0  0  0  0  0  0  0  0  0  0  0
   -3.4794   -0.0990    1.0586 O   0  0  0  0  0  0  0  0  0  0  0  0
   -1.7432    0.4184   -0.0954 N   0  0  0  0  0  0  0  0  0  0  0  0
   -2.2873    1.2790   -0.0571 H   0  0  0  0  0  0  0  0  0  0  0  0
   -0.2796    0.6620   -0.1059 C   0  0  1  0  0  0  0  0  0  0  0  0
   -0.1136    1.4661    0.6181 H   0  0  0  0  0  0  0  0  0  0  0  0
    0.6970   -0.4674    0.3038 C   0  0  0  0  0  0  0  0  0  0  0  0
    0.5625   -1.3269   -0.3586 H   0  0  0  0  0  0  0  0  0  0  0  0
    1.7279   -0.1229    0.1649 H   0  0  0  0  0  0  0  0  0  0  0  0
    0.5502   -0.8907    1.7449 C   0  0  0  0  0  0  0  0  0  0  0  0
    0.9870   -0.1855    2.8457 N   0  0  0  0  0  0  0  0  0  0  0  0
    1.3852    0.7519    2.8427 H   0  0  0  0  0  0  0  0  0  0  0  0
    0.8128   -0.9684    3.9713 C   0  0  0  0  0  0  0  0  0  0  0  0
    1.0436   -0.6630    4.9880 H   0  0  0  0  0  0  0  0  0  0  0  0
    0.3333   -2.1398    3.6319 N   0  0  0  0  0  0  0  0  0  0  0  0
    0.2015   -2.1171    2.2496 C   0  0  0  0  0  0  0  0  0  0  0  0
   -0.1027   -2.9709    1.6526 H   0  0  0  0  0  0  0  0  0  0  0  0
    0.1654    1.2364   -1.4684 C   0  0  0  0  0  0  0  0  0  0  0  0
    1.2693    1.7505   -1.5841 O   0  0  0  0  0  0  0  0  0  0  0  0
   -0.6706    1.1720   -2.5683 N   0  0  0  0  0  0  0  0  0  0  0  0
   -1.5778    0.7326   -2.4318 H   0  0  0  0  0  0  0  0  0  0  0  0
   -0.3238    1.7007   -3.8817 C   0  0  0  0  0  0  0  0  0  0  0  0
    0.5481    1.1768   -4.2872 H   0  0  0  0  0  0  0  0  0  0  0  0
   -1.1602    1.5693   -4.5751 H   0  0  0  0  0  0  0  0  0  0  0  0
   -0.0946    2.7696   -3.8162 H   0  0  0  0  0  0  0  0  0  0  0  0
  1  2  1  0  0  0  0
  2  3  1  0  0  0  0
  2  4  1  0  0  0  0
  2  5  1  0  0  0  0
  5  6  2  0  0  0  0
  5  7  1  0  0  0  0
  7  8  1  0  0  0  0
  7  9  1  0  0  0  0
  9 10  1  0  0  0  0
  9 11  1  0  0  0  0
  9 22  1  0  0  0  0
 11 12  1  0  0  0  0
 11 13  1  0  0  0  0
 11 14  1  0  0  0  0
 14 15  1  0  0  0  0
 14 20  2  0  0  0  0
 15 16  1  0  0  0  0
 15 17  1  0  0  0  0
 17 18  1  0  0  0  0
 17 19  2  0  0  0  0
 19 20  1  0  0  0  0
 20 21  1  0  0  0  0
 22 23  2  0  0  0  0
 22 24  1  0  0  0  0
 24 25  1  0  0  0  0
 24 26  1  0  0  0  0
 26 27  1  0  0  0  0
 26 28  1  0  0  0  0
 26 29  1  0  0  0  0
M  END
$$$$

  -OEChem-01062216083D

 29 29  0     1  0  0  0  0  0999 V2000
   -1.4616   -2.2689   -0.2659 H   0  0  0  0  0  0  0  0  0  0  0  0
   -2.3610   -2.0315    0.3015 C   0  0  0  0  0  0  0  0  0  0  0  0
   -2.3754   -2.6186    1.2228 H   0  0  0  0  0  0  0  0  0  0  0  0
   -3.2279   -2.3098   -0.3030 H   0  0  0  0  0  0  0  0  0  0  0  0
   -2.4334   -0.5504    0.6330 C   0  0  0  0  0  0  0  0  0  0  0  0
   -3.4562   -0.1190    1.1303 O   0  0  0  0  0  0  0  0  0  0  0  0
   -1.7585    0.4163   -0.0704 N   0  0  0  0  0  0  0  0  0  0  0  0
   -2.3049    1.2729    0.0045 H   0  0  0  0  0  0  0  0  0  0  0  0
   -0.2964    0.6716   -0.0969 C   0  0  1  0  0  0  0  0  0  0  0  0
   -0.1253    1.4744    0.6271 H   0  0  0  0  0  0  0  0  0  0  0  0
    0.6833   -0.4619    0.3033 C   0  0  0  0  0  0  0  0  0  0  0  0
    0.5440   -1.3186   -0.3617 H   0  0  0  0  0  0  0  0  0  0  0  0
    1.7147   -0.1214    0.1627 H   0  0  0  0  0  0  0  0  0  0  0  0
    0.5479   -0.8891    1.7444 C   0  0  0  0  0  0  0  0  0  0  0  0
    0.9935   -0.1900    2.8456 N   0  0  0  0  0  0  0  0  0  0  0  0
    1.3938    0.7463    2.8443 H   0  0  0  0  0  0  0  0  0  0  0  0
    0.8256   -0.9782    3.9684 C   0  0  0  0  0  0  0  0  0  0  0  0
    1.0637   -0.6777    4.9849 H   0  0  0  0  0  0  0  0  0  0  0  0
    0.3416   -2.1471    3.6265 N   0  0  0  0  0  0  0  0  0  0  0  0
    0.2006   -2.1176    2.2453 C   0  0  0  0  0  0  0  0  0  0  0  0
   -0.1089   -2.9678    1.6458 H   0  0  0  0  0  0  0  0  0  0  0  0
    0.1242    1.2574   -1.4660 C   0  0  0  0  0  0  0  0  0  0  0  0
    1.2886    1.5704   -1.6740 O   0  0  0  0  0  0  0  0  0  0  0  0
   -0.8136    1.4729   -2.4603 N   0  0  0  0  0  0  0  0  0  0  0  0
   -1.7546    1.1306   -2.2826 H   0  0  0  0  0  0  0  0  0  0  0  0
   -0.4832    1.9812   -3.7863 C   0  0  0  0  0  0  0  0  0  0  0  0
    0.1443    1.2639   -4.3254 H   0  0  0  0  0  0  0  0  0  0  0  0
   -1.3966    2.1483   -4.3652 H   0  0  0  0  0  0  0  0  0  0  0  0
    0.0541    2.9326   -3.7108 H   0  0  0  0  0  0  0  0  0  0  0  0
  1  2  1  0  0  0  0
  2  3  1  0  0  0  0
  2  4  1  0  0  0  0
  2  5  1  0  0  0  0
  5  6  2  0  0  0  0
  5  7  1  0  0  0  0
  7  8  1  0  0  0  0
  7  9  1  0  0  0  0
  9 10  1  0  0  0  0
  9 11  1  0  0  0  0
  9 22  1  0  0  0  0
 11 12  1  0  0  0  0
 11 13  1  0  0  0  0
 11 14  1  0  0  0  0
 14 15  1  0  0  0  0
 14 20  2  0  0  0  0
 15 16  1  0  0  0  0
 15 17  1  0  0  0  0
 17 18  1  0  0  0  0
 17 19  2  0  0  0  0
 19 20  1  0  0  0  0
 20 21  1  0  0  0  0
 22 23  2  0  0  0  0
 22 24  1  0  0  0  0
 24 25  1  0  0  0  0
 24 26  1  0  0  0  0
 26 27  1  0  0  0  0
 26 28  1  0  0  0  0
 26 29  1  0  0  0  0
M  END
$$$$

  -OEChem-01062216083D

 29 29  0     1  0  0  0  0  0999 V2000
   -1.4670   -2.2846   -0.2750 H   0  0  0  0  0  0  0  0  0  0  0  0
   -2.3659   -2.0482    0.2939 C   0  0  0  0  0  0  0  0  0  0  0  0
   -2.3850   -2.6463    1.2081 H   0  0  0  0  0  0  0  0  0  0  0  0
   -3.2336   -2.3141   -0.3151 H   0  0  0  0  0  0  0  0  0  0  0  0
   -2.4297   -0.5706    0.6433 C   0  0  0  0  0  0  0  0  0  0  0  0
   -3.4405   -0.1415    1.1667 O   0  0  0  0  0  0  0  0  0  0  0  0
   -1.7662    0.4043   -0.0594 N   0  0  0  0  0  0  0  0  0  0  0  0
   -2.3109    1.2583    0.0445 H   0  0  0  0  0  0  0  0  0  0  0  0
   -0.3049    0.6618   -0.0992 C   0  0  1  0  0  0  0  0  0  0  0  0
   -0.1278    1.4622    0.6258 H   0  0  0  0  0  0  0  0  0  0  0  0
    0.6748   -0.4741    0.2996 C   0  0  0  0  0  0  0  0  0  0  0  0
    0.5310   -1.3329   -0.3617 H   0  0  0  0  0  0  0  0  0  0  0  0
    1.7072   -0.1379    0.1554 H   0  0  0  0  0  0  0  0  0  0  0  0
    0.5455   -0.8930    1.7438 C   0  0  0  0  0  0  0  0  0  0  0  0
    0.9988   -0.1908    2.8398 N   0  0  0  0  0  0  0  0  0  0  0  0
    1.4045    0.7430    2.8326 H   0  0  0  0  0  0  0  0  0  0  0  0
    0.8318   -0.9731    3.9669 C   0  0  0  0  0  0  0  0  0  0  0  0
    1.0760   -0.6698    4.9811 H   0  0  0  0  0  0  0  0  0  0  0  0
    0.3404   -2.1409    3.6324 N   0  0  0  0  0  0  0  0  0  0  0  0
    0.1933   -2.1171    2.2517 C   0  0  0  0  0  0  0  0  0  0  0  0
   -0.1233   -2.9683    1.6573 H   0  0  0  0  0  0  0  0  0  0  0  0
    0.0957    1.2613   -1.4714 C   0  0  0  0  0  0  0  0  0  0  0  0
    1.2722    1.3646   -1.7923 O   0  0  0  0  0  0  0  0  0  0  0  0
   -0.8684    1.7670   -2.3265 N   0  0  0  0  0  0  0  0  0  0  0  0
   -1.8363    1.5645   -2.0917 H   0  0  0  0  0  0  0  0  0  0  0  0
   -0.5664    2.3224   -3.6408 C   0  0  0  0  0  0  0  0  0  0  0  0
   -0.1513    1.5504   -4.2970 H   0  0  0  0  0  0  0  0  0  0  0  0
   -1.4763    2.7182   -4.1020 H   0  0  0  0  0  0  0  0  0  0  0  0
    0.1582    3.1393   -3.5558 H   0  0  0  0  0  0  0  0  0  0  0  0
  1  2  1  0  0  0  0
  2  3  1  0  0  0  0
  2  4  1  0  0  0  0
  2  5  1  0  0  0  0
  5  6  2  0  0  0  0
  5  7  1  0  0  0  0
  7  8  1  0  0  0  0
  7  9  1  0  0  0  0
  9 10  1  0  0  0  0
  9 11  1  0  0  0  0
  9 22  1  0  0  0  0
 11 12  1  0  0  0  0
 11 13  1  0  0  0  0
 11 14  1  0  0  0  0
 14 15  1  0  0  0  0
 14 20  2  0  0  0  0
 15 16  1  0  0  0  0
 15 17  1  0  0  0  0
 17 18  1  0  0  0  0
 17 19  2  0  0  0  0
 19 20  1  0  0  0  0
 20 21  1  0  0  0  0
 22 23  2  0  0  0  0
 22 24  1  0  0  0  0
 24 25  1  0  0  0  0
 24 26  1  0  0  0  0
 26 27  1  0  0  0  0
 26 28  1  0  0  0  0
 26 29  1  0  0  0  0
M  END
$$$$

  -OEChem-01062216083D

 29 29  0     1  0  0  0  0  0999 V2000
   -1.4477   -2.2885   -0.3130 H   0  0  0  0  0  0  0  0  0  0  0  0
   -2.3500   -2.0674    0.2565 C   0  0  0  0  0  0  0  0  0  0  0  0
   -2.3707   -2.6848    1.1578 H   0  0  0  0  0  0  0  0  0  0  0  0
   -3.2141   -2.3228   -0.3618 H   0  0  0  0  0  0  0  0  0  0  0  0
   -2.4199   -0.5976    0.6365 C   0  0  0  0  0  0  0  0  0  0  0  0
   -3.4236   -0.1848    1.1861 O   0  0  0  0  0  0  0  0  0  0  0  0
   -1.7737    0.3945   -0.0576 N   0  0  0  0  0  0  0  0  0  0  0  0
   -2.3306    1.2373    0.0642 H   0  0  0  0  0  0  0  0  0  0  0  0
   -0.3161    0.6703   -0.0910 C   0  0  1  0  0  0  0  0  0  0  0  0
   -0.1496    1.4675    0.6399 H   0  0  0  0  0  0  0  0  0  0  0  0
    0.6732   -0.4580    0.3073 C   0  0  0  0  0  0  0  0  0  0  0  0
    0.5425   -1.3143   -0.3600 H   0  0  0  0  0  0  0  0  0  0  0  0
    1.7023   -0.1085    0.1708 H   0  0  0  0  0  0  0  0  0  0  0  0
    0.5426   -0.8862    1.7493 C   0  0  0  0  0  0  0  0  0  0  0  0
    0.9828   -0.1894    2.8545 N   0  0  0  0  0  0  0  0  0  0  0  0
    1.3836    0.7463    2.8585 H   0  0  0  0  0  0  0  0  0  0  0  0
    0.8131   -0.9823    3.9739 C   0  0  0  0  0  0  0  0  0  0  0  0
    1.0481   -0.6859    4.9923 H   0  0  0  0  0  0  0  0  0  0  0  0
    0.3321   -2.1506    3.6265 N   0  0  0  0  0  0  0  0  0  0  0  0
    0.1939   -2.1164    2.2452 C   0  0  0  0  0  0  0  0  0  0  0  0
   -0.1159   -2.9641    1.6424 H   0  0  0  0  0  0  0  0  0  0  0  0
    0.0711    1.2876   -1.4604 C   0  0  0  0  0  0  0  0  0  0  0  0
    1.2022    1.1726   -1.9145 O   0  0  0  0  0  0  0  0  0  0  0  0
   -0.8420    2.0556   -2.1630 N   0  0  0  0  0  0  0  0  0  0  0  0
   -1.8039    2.0342   -1.8385 H   0  0  0  0  0  0  0  0  0  0  0  0
   -0.5604    2.6413   -3.4688 C   0  0  0  0  0  0  0  0  0  0  0  0
   -0.3654    1.8566   -4.2073 H   0  0  0  0  0  0  0  0  0  0  0  0
   -1.4151    3.2339   -3.8090 H   0  0  0  0  0  0  0  0  0  0  0  0
    0.3135    3.2991   -3.4144 H   0  0  0  0  0  0  0  0  0  0  0  0
  1  2  1  0  0  0  0
  2  3  1  0  0  0  0
  2  4  1  0  0  0  0
  2  5  1  0  0  0  0
  5  6  2  0  0  0  0
  5  7  1  0  0  0  0
  7  8  1  0  0  0  0
  7  9  1  0  0  0  0
  9 10  1  0  0  0  0
  9 11  1  0  0  0  0
  9 22  1  0  0  0  0
 11 12  1  0  0  0  0
 11 13  1  0  0  0  0
 11 14  1  0  0  0  0
 14 15  1  0  0  0  0
 14 20  2  0  0  0  0
 15 16  1  0  0  0  0
 15 17  1  0  0  0  0
 17 18  1  0  0  0  0
 17 19  2  0  0  0  0
 19 20  1  0  0  0  0
 20 21  1  0  0  0  0
 22 23  2  0  0  0  0
 22 24  1  0  0  0  0
 24 25  1  0  0  0  0
 24 26  1  0  0  0  0
 26 27  1  0  0  0  0
 26 28  1  0  0  0  0
 26 29  1  0  0  0  0
M  END
$$$$

  -OEChem-01062216083D

 29 29  0     1  0  0  0  0  0999 V2000
   -2.2991   -2.1812    1.9288 H   0  0  0  0  0  0  0  0  0  0  0  0
   -2.5481   -1.1782    1.5737 C   0  0  0  0  0  0  0  0  0  0  0  0
   -2.0166   -0.4418    2.1789 H   0  0  0  0  0  0  0  0  0  0  0  0
   -3.6219   -1.0177    1.6973 H   0  0  0  0  0  0  0  0  0  0  0  0
   -2.1791   -1.0368    0.1061 C   0  0  0  0  0  0  0  0  0  0  0  0
   -2.7530   -1.7190   -0.7213 O   0  0  0  0  0  0  0  0  0  0  0  0
   -1.6771    0.1304   -0.4129 N   0  0  0  0  0  0  0  0  0  0  0  0
   -1.9068    0.1377   -1.4059 H   0  0  0  0  0  0  0  0  0  0  0  0
   -0.3538    0.7328   -0.1230 C   0  0  1  0  0  0  0  0  0  0  0  0
   -0.4638    1.4409    0.7032 H   0  0  0  0  0  0  0  0  0  0  0  0
    0.7944   -0.2601    0.2303 C   0  0  0  0  0  0  0  0  0  0  0  0
    0.9185   -0.9557   -0.6077 H   0  0  0  0  0  0  0  0  0  0  0  0
    1.7339    0.2953    0.3295 H   0  0  0  0  0  0  0  0  0  0  0  0
    0.6203   -1.0584    1.4944 C   0  0  0  0  0  0  0  0  0  0  0  0
    0.7620   -0.6132    2.7910 N   0  0  0  0  0  0  0  0  0  0  0  0
    0.9711    0.3389    3.0843 H   0  0  0  0  0  0  0  0  0  0  0  0
    0.6371   -1.6969    3.6402 C   0  0  0  0  0  0  0  0  0  0  0  0
    0.6925   -1.6523    4.7243 H   0  0  0  0  0  0  0  0  0  0  0  0
    0.4413   -2.7913    2.9461 N   0  0  0  0  0  0  0  0  0  0  0  0
    0.4644   -2.4163    1.6073 C   0  0  0  0  0  0  0  0  0  0  0  0
    0.3766   -3.1030    0.7707 H   0  0  0  0  0  0  0  0  0  0  0  0
    0.0850    1.5243   -1.3849 C   0  0  0  0  0  0  0  0  0  0  0  0
    1.2222    1.4801   -1.8364 O   0  0  0  0  0  0  0  0  0  0  0  0
   -0.8388    2.3386   -2.0173 N   0  0  0  0  0  0  0  0  0  0  0  0
   -1.7715    2.3875   -1.6153 H   0  0  0  0  0  0  0  0  0  0  0  0
   -0.5420    3.1227   -3.2110 C   0  0  0  0  0  0  0  0  0  0  0  0
   -0.2639    2.4650   -4.0413 H   0  0  0  0  0  0  0  0  0  0  0  0
   -1.4197    3.7038   -3.5096 H   0  0  0  0  0  0  0  0  0  0  0  0
    0.2829    3.8171   -3.0198 H   0  0  0  0  0  0  0  0  0  0  0  0
  1  2  1  0  0  0  0
  2  3  1  0  0  0  0
  2  4  1  0  0  0  0
  2  5  1  0  0  0  0
  5  6  2  0  0  0  0
  5  7  1  0  0  0  0
  7  8  1  0  0  0  0
  7  9  1  0  0  0  0
  9 10  1  0  0  0  0
  9 11  1  0  0  0  0
  9 22  1  0  0  0  0
 11 12  1  0  0  0  0
 11 13  1  0  0  0  0
 11 14  1  0  0  0  0
 14 15  1  0  0  0  0
 14 20  2  0  0  0  0
 15 16  1  0  0  0  0
 15 17  1  0  0  0  0
 17 18  1  0  0  0  0
 17 19  2  0  0  0  0
 19 20  1  0  0  0  0
 20 21  1  0  0  0  0
 22 23  2  0  0  0  0
 22 24  1  0  0  0  0
 24 25  1  0  0  0  0
 24 26  1  0  0  0  0
 26 27  1  0  0  0  0
 26 28  1  0  0  0  0
 26 29  1  0  0  0  0
M  END
$$$$

  -OEChem-01062216083D

 29 29  0     1  0  0  0  0  0999 V2000
   -2.2896   -2.1929    1.8882 H   0  0  0  0  0  0  0  0  0  0  0  0
   -2.5440   -1.1893    1.5391 C   0  0  0  0  0  0  0  0  0  0  0  0
   -2.0208   -0.4526    2.1510 H   0  0  0  0  0  0  0  0  0  0  0  0
   -3.6194   -1.0375    1.6595 H   0  0  0  0  0  0  0  0  0  0  0  0
   -2.1705   -1.0352    0.0742 C   0  0  0  0  0  0  0  0  0  0  0  0
   -2.7502   -1.7053   -0.7591 O   0  0  0  0  0  0  0  0  0  0  0  0
   -1.6605    0.1344   -0.4317 N   0  0  0  0  0  0  0  0  0  0  0  0
   -1.8911    0.1607   -1.4243 H   0  0  0  0  0  0  0  0  0  0  0  0
   -0.3409    0.7345   -0.1284 C   0  0  1  0  0  0  0  0  0  0  0  0
   -0.4592    1.4389    0.6999 H   0  0  0  0  0  0  0  0  0  0  0  0
    0.8084   -0.2512    0.2370 C   0  0  0  0  0  0  0  0  0  0  0  0
    0.9391   -0.9517   -0.5959 H   0  0  0  0  0  0  0  0  0  0  0  0
    1.7440    0.3105    0.3339 H   0  0  0  0  0  0  0  0  0  0  0  0
    0.6276   -1.0487    1.5009 C   0  0  0  0  0  0  0  0  0  0  0  0
    0.7560   -0.5995    2.7977 N   0  0  0  0  0  0  0  0  0  0  0  0
    0.9636    0.3530    3.0908 H   0  0  0  0  0  0  0  0  0  0  0  0
    0.6264   -1.6814    3.6484 C   0  0  0  0  0  0  0  0  0  0  0  0
    0.6722   -1.6336    4.7328 H   0  0  0  0  0  0  0  0  0  0  0  0
    0.4396   -2.7781    2.9554 N   0  0  0  0  0  0  0  0  0  0  0  0
    0.4730   -2.4066    1.6157 C   0  0  0  0  0  0  0  0  0  0  0  0
    0.3927   -3.0955    0.7799 H   0  0  0  0  0  0  0  0  0  0  0  0
    0.1039    1.5306   -1.3823 C   0  0  0  0  0  0  0  0  0  0  0  0
    1.1398    1.2942   -1.9905 O   0  0  0  0  0  0  0  0  0  0  0  0
   -0.6980    2.5680   -1.8237 N   0  0  0  0  0  0  0  0  0  0  0  0
   -1.5730    2.7245   -1.3303 H   0  0  0  0  0  0  0  0  0  0  0  0
   -0.4037    3.3673   -3.0077 C   0  0  0  0  0  0  0  0  0  0  0  0
   -0.3890    2.7361   -3.9025 H   0  0  0  0  0  0  0  0  0  0  0  0
   -1.1670    4.1398   -3.1418 H   0  0  0  0  0  0  0  0  0  0  0  0
    0.5699    3.8588   -2.9072 H   0  0  0  0  0  0  0  0  0  0  0  0
  1  2  1  0  0  0  0
  2  3  1  0  0  0  0
  2  4  1  0  0  0  0
  2  5  1  0  0  0  0
  5  6  2  0  0  0  0
  5  7  1  0  0  0  0
  7  8  1  0  0  0  0
  7  9  1  0  0  0  0
  9 10  1  0  0  0  0
  9 11  1  0  0  0  0
  9 22  1  0  0  0  0
 11 12  1  0  0  0  0
 11 13  1  0  0  0  0
 11 14  1  0  0  0  0
 14 15  1  0  0  0  0
 14 20  2  0  0  0  0
 15 16  1  0  0  0  0
 15 17  1  0  0  0  0
 17 18  1  0  0  0  0
 17 19  2  0  0  0  0
 19 20  1  0  0  0  0
 20 21  1  0  0  0  0
 22 23  2  0  0  0  0
 22 24  1  0  0  0  0
 24 25  1  0  0  0  0
 24 26  1  0  0  0  0
 26 27  1  0  0  0  0
 26 28  1  0  0  0  0
 26 29  1  0  0  0  0
M  END
$$$$

  -OEChem-01062216083D

 29 29  0     1  0  0  0  0  0999 V2000
   -1.6345   -2.4493    0.4191 H   0  0  0  0  0  0  0  0  0  0  0  0
   -2.4010   -1.8703    0.9350 C   0  0  0  0  0  0  0  0  0  0  0  0
   -2.0818   -1.6103    1.9458 H   0  0  0  0  0  0  0  0  0  0  0  0
   -3.2987   -2.4898    1.0119 H   0  0  0  0  0  0  0  0  0  0  0  0
   -2.7066   -0.6164    0.1495 C   0  0  0  0  0  0  0  0  0  0  0  0
   -3.8511   -0.4127   -0.2122 O   0  0  0  0  0  0  0  0  0  0  0  0
   -1.8545    0.3648   -0.3014 N   0  0  0  0  0  0  0  0  0  0  0  0
   -2.3781    1.0018   -0.8983 H   0  0  0  0  0  0  0  0  0  0  0  0
   -0.4198    0.7016   -0.1296 C   0  0  1  0  0  0  0  0  0  0  0  0
   -0.3934    1.4567    0.6612 H   0  0  0  0  0  0  0  0  0  0  0  0
    0.6700   -0.3278    0.2835 C   0  0  0  0  0  0  0  0  0  0  0  0
    0.6765   -1.1339   -0.4587 H   0  0  0  0  0  0  0  0  0  0  0  0
    1.6494    0.1605    0.2316 H   0  0  0  0  0  0  0  0  0  0  0  0
    0.5468   -0.9437    1.6542 C   0  0  0  0  0  0  0  0  0  0  0  0
    0.8300   -0.3296    2.8564 N   0  0  0  0  0  0  0  0  0  0  0  0
    1.0302    0.6584    2.9964 H   0  0  0  0  0  0  0  0  0  0  0  0
    0.8305   -1.2841    3.8558 C   0  0  0  0  0  0  0  0  0  0  0  0
    0.9864   -1.0847    4.9123 H   0  0  0  0  0  0  0  0  0  0  0  0
    0.6208   -2.4699    3.3411 N   0  0  0  0  0  0  0  0  0  0  0  0
    0.5017   -2.2797    1.9699 C   0  0  0  0  0  0  0  0  0  0  0  0
    0.4174   -3.0850    1.2462 H   0  0  0  0  0  0  0  0  0  0  0  0
    0.0445    1.4069   -1.4252 C   0  0  0  0  0  0  0  0  0  0  0  0
    0.7591    0.8459   -2.2455 O   0  0  0  0  0  0  0  0  0  0  0  0
   -0.3369    2.7171   -1.6567 N   0  0  0  0  0  0  0  0  0  0  0  0
   -0.9520    3.1584   -0.9789 H   0  0  0  0  0  0  0  0  0  0  0  0
    0.0252    3.4550   -2.8616 C   0  0  0  0  0  0  0  0  0  0  0  0
   -0.3751    2.9564   -3.7508 H   0  0  0  0  0  0  0  0  0  0  0  0
   -0.3830    4.4695   -2.8210 H   0  0  0  0  0  0  0  0  0  0  0  0
    1.1140    3.5249   -2.9565 H   0  0  0  0  0  0  0  0  0  0  0  0
  1  2  1  0  0  0  0
  2  3  1  0  0  0  0
  2  4  1  0  0  0  0
  2  5  1  0  0  0  0
  5  6  2  0  0  0  0
  5  7  1  0  0  0  0
  7  8  1  0  0  0  0
  7  9  1  0  0  0  0
  9 10  1  0  0  0  0
  9 11  1  0  0  0  0
  9 22  1  0  0  0  0
 11 12  1  0  0  0  0
 11 13  1  0  0  0  0
 11 14  1  0  0  0  0
 14 15  1  0  0  0  0
 14 20  2  0  0  0  0
 15 16  1  0  0  0  0
 15 17  1  0  0  0  0
 17 18  1  0  0  0  0
 17 19  2  0  0  0  0
 19 20  1  0  0  0  0
 20 21  1  0  0  0  0
 22 23  2  0  0  0  0
 22 24  1  0  0  0  0
 24 25  1  0  0  0  0
 24 26  1  0  0  0  0
 26 27  1  0  0  0  0
 26 28  1  0  0  0  0
 26 29  1  0  0  0  0
M  END
$$$$

  -OEChem-01062216083D

 29 29  0     1  0  0  0  0  0999 V2000
   -2.2876   -2.1616    1.8790 H   0  0  0  0  0  0  0  0  0  0  0  0
   -2.5422   -1.1589    1.5274 C   0  0  0  0  0  0  0  0  0  0  0  0
   -2.0145   -0.4208    2.1334 H   0  0  0  0  0  0  0  0  0  0  0  0
   -3.6164   -1.0047    1.6539 H   0  0  0  0  0  0  0  0  0  0  0  0
   -2.1783   -1.0114    0.0591 C   0  0  0  0  0  0  0  0  0  0  0  0
   -2.7665   -1.6852   -0.7653 O   0  0  0  0  0  0  0  0  0  0  0  0
   -1.6574    0.1521   -0.4500 N   0  0  0  0  0  0  0  0  0  0  0  0
   -1.8707    0.1718   -1.4473 H   0  0  0  0  0  0  0  0  0  0  0  0
   -0.3405    0.7465   -0.1340 C   0  0  1  0  0  0  0  0  0  0  0  0
   -0.4653    1.4461    0.6973 H   0  0  0  0  0  0  0  0  0  0  0  0
    0.8098   -0.2360    0.2315 C   0  0  0  0  0  0  0  0  0  0  0  0
    0.9424   -0.9385   -0.5998 H   0  0  0  0  0  0  0  0  0  0  0  0
    1.7437    0.3286    0.3251 H   0  0  0  0  0  0  0  0  0  0  0  0
    0.6261   -1.0422    1.4895 C   0  0  0  0  0  0  0  0  0  0  0  0
    0.7458   -0.6018    2.7903 N   0  0  0  0  0  0  0  0  0  0  0  0
    0.9429    0.3500    3.0919 H   0  0  0  0  0  0  0  0  0  0  0  0
    0.6157   -1.6901    3.6328 C   0  0  0  0  0  0  0  0  0  0  0  0
    0.6550   -1.6501    4.7177 H   0  0  0  0  0  0  0  0  0  0  0  0
    0.4372   -2.7822    2.9310 N   0  0  0  0  0  0  0  0  0  0  0  0
    0.4743   -2.4016    1.5937 C   0  0  0  0  0  0  0  0  0  0  0  0
    0.3996   -3.0852    0.7528 H   0  0  0  0  0  0  0  0  0  0  0  0
    0.1383    1.5339   -1.3770 C   0  0  0  0  0  0  0  0  0  0  0  0
    0.7795    1.0018   -2.2730 O   0  0  0  0  0  0  0  0  0  0  0  0
   -0.1998    2.8693   -1.5036 N   0  0  0  0  0  0  0  0  0  0  0  0
   -0.8190    3.2650   -0.8019 H   0  0  0  0  0  0  0  0  0  0  0  0
    0.1291    3.6692   -2.6784 C   0  0  0  0  0  0  0  0  0  0  0  0
   -0.3174    3.2322   -3.5778 H   0  0  0  0  0  0  0  0  0  0  0  0
   -0.2541    4.6875   -2.5622 H   0  0  0  0  0  0  0  0  0  0  0  0
    1.2144    3.7227   -2.8142 H   0  0  0  0  0  0  0  0  0  0  0  0
  1  2  1  0  0  0  0
  2  3  1  0  0  0  0
  2  4  1  0  0  0  0
  2  5  1  0  0  0  0
  5  6  2  0  0  0  0
  5  7  1  0  0  0  0
  7  8  1  0  0  0  0
  7  9  1  0  0  0  0
  9 10  1  0  0  0  0
  9 11  1  0  0  0  0
  9 22  1  0  0  0  0
 11 12  1  0  0  0  0
 11 13  1  0  0  0  0
 11 14  1  0  0  0  0
 14 15  1  0  0  0  0
 14 20  2  0  0  0  0
 15 16  1  0  0  0  0
 15 17  1  0  0  0  0
 17 18  1  0  0  0  0
 17 19  2  0  0  0  0
 19 20  1  0  0  0  0
 20 21  1  0  0  0  0
 22 23  2  0  0  0  0
 22 24  1  0  0  0  0
 24 25  1  0  0  0  0
 24 26  1  0  0  0  0
 26 27  1  0  0  0  0
 26 28  1  0  0  0  0
 26 29  1  0  0  0  0
M  END
$$$$

  -OEChem-01062216083D

 29 29  0     1  0  0  0  0  0999 V2000
   -2.2827   -2.1295    1.8912 H   0  0  0  0  0  0  0  0  0  0  0  0
   -2.5407   -1.1312    1.5300 C   0  0  0  0  0  0  0  0  0  0  0  0
   -2.0156   -0.3853    2.1290 H   0  0  0  0  0  0  0  0  0  0  0  0
   -3.6156   -0.9796    1.6535 H   0  0  0  0  0  0  0  0  0  0  0  0
   -2.1762   -0.9972    0.0606 C   0  0  0  0  0  0  0  0  0  0  0  0
   -2.7531   -1.6892   -0.7566 O   0  0  0  0  0  0  0  0  0  0  0  0
   -1.6530    0.1620   -0.4565 N   0  0  0  0  0  0  0  0  0  0  0  0
   -1.8450    0.1675   -1.4589 H   0  0  0  0  0  0  0  0  0  0  0  0
   -0.3415    0.7601   -0.1285 C   0  0  1  0  0  0  0  0  0  0  0  0
   -0.4737    1.4588    0.7023 H   0  0  0  0  0  0  0  0  0  0  0  0
    0.8126   -0.2188    0.2297 C   0  0  0  0  0  0  0  0  0  0  0  0
    0.9542   -0.9099   -0.6097 H   0  0  0  0  0  0  0  0  0  0  0  0
    1.7423    0.3505    0.3349 H   0  0  0  0  0  0  0  0  0  0  0  0
    0.6292   -1.0414    1.4770 C   0  0  0  0  0  0  0  0  0  0  0  0
    0.7404   -0.6197    2.7847 N   0  0  0  0  0  0  0  0  0  0  0  0
    0.9332    0.3279    3.1017 H   0  0  0  0  0  0  0  0  0  0  0  0
    0.6058   -1.7205    3.6104 C   0  0  0  0  0  0  0  0  0  0  0  0
    0.6389   -1.6964    4.6959 H   0  0  0  0  0  0  0  0  0  0  0  0
    0.4326   -2.8024    2.8918 N   0  0  0  0  0  0  0  0  0  0  0  0
    0.4756   -2.4021    1.5606 C   0  0  0  0  0  0  0  0  0  0  0  0
    0.4020   -3.0734    0.7097 H   0  0  0  0  0  0  0  0  0  0  0  0
    0.1562    1.5347   -1.3697 C   0  0  0  0  0  0  0  0  0  0  0  0
    0.5397    0.9441   -2.3703 O   0  0  0  0  0  0  0  0  0  0  0  0
    0.1047    2.9170   -1.3871 N   0  0  0  0  0  0  0  0  0  0  0  0
   -0.3292    3.3824   -0.5954 H   0  0  0  0  0  0  0  0  0  0  0  0
    0.4535    3.7114   -2.5599 C   0  0  0  0  0  0  0  0  0  0  0  0
   -0.2067    3.4671   -3.3988 H   0  0  0  0  0  0  0  0  0  0  0  0
    0.3522    4.7782   -2.3387 H   0  0  0  0  0  0  0  0  0  0  0  0
    1.4891    3.5187   -2.8594 H   0  0  0  0  0  0  0  0  0  0  0  0
  1  2  1  0  0  0  0
  2  3  1  0  0  0  0
  2  4  1  0  0  0  0
  2  5  1  0  0  0  0
  5  6  2  0  0  0  0
  5  7  1  0  0  0  0
  7  8  1  0  0  0  0
  7  9  1  0  0  0  0
  9 10  1  0  0  0  0
  9 11  1  0  0  0  0
  9 22  1  0  0  0  0
 11 12  1  0  0  0  0
 11 13  1  0  0  0  0
 11 14  1  0  0  0  0
 14 15  1  0  0  0  0
 14 20  2  0  0  0  0
 15 16  1  0  0  0  0
 15 17  1  0  0  0  0
 17 18  1  0  0  0  0
 17 19  2  0  0  0  0
 19 20  1  0  0  0  0
 20 21  1  0  0  0  0
 22 23  2  0  0  0  0
 22 24  1  0  0  0  0
 24 25  1  0  0  0  0
 24 26  1  0  0  0  0
 26 27  1  0  0  0  0
 26 28  1  0  0  0  0
 26 29  1  0  0  0  0
M  END
$$$$

  -OEChem-01062216083D

 29 29  0     1  0  0  0  0  0999 V2000
   -2.2732   -2.1067    1.9062 H   0  0  0  0  0  0  0  0  0  0  0  0
   -2.5417   -1.1159    1.5319 C   0  0  0  0  0  0  0  0  0  0  0  0
   -2.0233   -0.3566    2.1196 H   0  0  0  0  0  0  0  0  0  0  0  0
   -3.6180   -0.9734    1.6548 H   0  0  0  0  0  0  0  0  0  0  0  0
   -2.1812   -0.9970    0.0600 C   0  0  0  0  0  0  0  0  0  0  0  0
   -2.7556   -1.7029   -0.7471 O   0  0  0  0  0  0  0  0  0  0  0  0
   -1.6543    0.1549   -0.4702 N   0  0  0  0  0  0  0  0  0  0  0  0
   -1.8331    0.1490   -1.4758 H   0  0  0  0  0  0  0  0  0  0  0  0
   -0.3490    0.7632   -0.1371 C   0  0  1  0  0  0  0  0  0  0  0  0
   -0.4920    1.4696    0.6854 H   0  0  0  0  0  0  0  0  0  0  0  0
    0.8096   -0.2055    0.2258 C   0  0  0  0  0  0  0  0  0  0  0  0
    0.9593   -0.8933   -0.6151 H   0  0  0  0  0  0  0  0  0  0  0  0
    1.7349    0.3700    0.3363 H   0  0  0  0  0  0  0  0  0  0  0  0
    0.6274   -1.0293    1.4723 C   0  0  0  0  0  0  0  0  0  0  0  0
    0.7296   -0.6082    2.7812 N   0  0  0  0  0  0  0  0  0  0  0  0
    0.9071    0.3415    3.1009 H   0  0  0  0  0  0  0  0  0  0  0  0
    0.6034   -1.7117    3.6048 C   0  0  0  0  0  0  0  0  0  0  0  0
    0.6321   -1.6890    4.6906 H   0  0  0  0  0  0  0  0  0  0  0  0
    0.4432   -2.7941    2.8839 N   0  0  0  0  0  0  0  0  0  0  0  0
    0.4848   -2.3914    1.5533 C   0  0  0  0  0  0  0  0  0  0  0  0
    0.4195   -3.0613    0.7008 H   0  0  0  0  0  0  0  0  0  0  0  0
    0.1652    1.5187   -1.3821 C   0  0  0  0  0  0  0  0  0  0  0  0
    0.3047    0.9339   -2.4478 O   0  0  0  0  0  0  0  0  0  0  0  0
    0.4077    2.8795   -1.3243 N   0  0  0  0  0  0  0  0  0  0  0  0
    0.1904    3.3637   -0.4584 H   0  0  0  0  0  0  0  0  0  0  0  0
    0.8028    3.6666   -2.4874 C   0  0  0  0  0  0  0  0  0  0  0  0
    0.0273    3.6252   -3.2597 H   0  0  0  0  0  0  0  0  0  0  0  0
    0.9540    4.7127   -2.2041 H   0  0  0  0  0  0  0  0  0  0  0  0
    1.7393    3.2850   -2.9081 H   0  0  0  0  0  0  0  0  0  0  0  0
  1  2  1  0  0  0  0
  2  3  1  0  0  0  0
  2  4  1  0  0  0  0
  2  5  1  0  0  0  0
  5  6  2  0  0  0  0
  5  7  1  0  0  0  0
  7  8  1  0  0  0  0
  7  9  1  0  0  0  0
  9 10  1  0  0  0  0
  9 11  1  0  0  0  0
  9 22  1  0  0  0  0
 11 12  1  0  0  0  0
 11 13  1  0  0  0  0
 11 14  1  0  0  0  0
 14 15  1  0  0  0  0
 14 20  2  0  0  0  0
 15 16  1  0  0  0  0
 15 17  1  0  0  0  0
 17 18  1  0  0  0  0
 17 19  2  0  0  0  0
 19 20  1  0  0  0  0
 20 21  1  0  0  0  0
 22 23  2  0  0  0  0
 22 24  1  0  0  0  0
 24 25  1  0  0  0  0
 24 26  1  0  0  0  0
 26 27  1  0  0  0  0
 26 28  1  0  0  0  0
 26 29  1  0  0  0  0
M  END
$$$$

  -OEChem-01062216083D

 29 29  0     1  0  0  0  0  0999 V2000
   -2.2774   -2.0971    1.9155 H   0  0  0  0  0  0  0  0  0  0  0  0
   -2.5437   -1.1087    1.5336 C   0  0  0  0  0  0  0  0  0  0  0  0
   -2.0222   -0.3461    2.1144 H   0  0  0  0  0  0  0  0  0  0  0  0
   -3.6196   -0.9625    1.6570 H   0  0  0  0  0  0  0  0  0  0  0  0
   -2.1840   -1.0037    0.0606 C   0  0  0  0  0  0  0  0  0  0  0  0
   -2.7467   -1.7294   -0.7372 O   0  0  0  0  0  0  0  0  0  0  0  0
   -1.6594    0.1440   -0.4811 N   0  0  0  0  0  0  0  0  0  0  0  0
   -1.8325    0.1307   -1.4885 H   0  0  0  0  0  0  0  0  0  0  0  0
   -0.3587    0.7643   -0.1514 C   0  0  1  0  0  0  0  0  0  0  0  0
   -0.5069    1.4774    0.6642 H   0  0  0  0  0  0  0  0  0  0  0  0
    0.8043   -0.1983    0.2108 C   0  0  0  0  0  0  0  0  0  0  0  0
    0.9552   -0.8840   -0.6320 H   0  0  0  0  0  0  0  0  0  0  0  0
    1.7276    0.3804    0.3216 H   0  0  0  0  0  0  0  0  0  0  0  0
    0.6281   -1.0218    1.4586 C   0  0  0  0  0  0  0  0  0  0  0  0
    0.7304   -0.5984    2.7669 N   0  0  0  0  0  0  0  0  0  0  0  0
    0.9064    0.3519    3.0853 H   0  0  0  0  0  0  0  0  0  0  0  0
    0.6091   -1.7010    3.5925 C   0  0  0  0  0  0  0  0  0  0  0  0
    0.6402   -1.6771    4.6781 H   0  0  0  0  0  0  0  0  0  0  0  0
    0.4519   -2.7850    2.8735 N   0  0  0  0  0  0  0  0  0  0  0  0
    0.4894   -2.3843    1.5423 C   0  0  0  0  0  0  0  0  0  0  0  0
    0.4255   -3.0566    0.6914 H   0  0  0  0  0  0  0  0  0  0  0  0
    0.1621    1.5085   -1.4004 C   0  0  0  0  0  0  0  0  0  0  0  0
    0.0779    0.9910   -2.5062 O   0  0  0  0  0  0  0  0  0  0  0  0
    0.6895    2.7831   -1.2898 N   0  0  0  0  0  0  0  0  0  0  0  0
    0.6827    3.2237   -0.3750 H   0  0  0  0  0  0  0  0  0  0  0  0
    1.1438    3.5591   -2.4387 C   0  0  0  0  0  0  0  0  0  0  0  0
    0.3253    3.7068   -3.1514 H   0  0  0  0  0  0  0  0  0  0  0  0
    1.5006    4.5417   -2.1153 H   0  0  0  0  0  0  0  0  0  0  0  0
    1.9652    3.0438   -2.9477 H   0  0  0  0  0  0  0  0  0  0  0  0
  1  2  1  0  0  0  0
  2  3  1  0  0  0  0
  2  4  1  0  0  0  0
  2  5  1  0  0  0  0
  5  6  2  0  0  0  0
  5  7  1  0  0  0  0
  7  8  1  0  0  0  0
  7  9  1  0  0  0  0
  9 10  1  0  0  0  0
  9 11  1  0  0  0  0
  9 22  1  0  0  0  0
 11 12  1  0  0  0  0
 11 13  1  0  0  0  0
 11 14  1  0  0  0  0
 14 15  1  0  0  0  0
 14 20  2  0  0  0  0
 15 16  1  0  0  0  0
 15 17  1  0  0  0  0
 17 18  1  0  0  0  0
 17 19  2  0  0  0  0
 19 20  1  0  0  0  0
 20 21  1  0  0  0  0
 22 23  2  0  0  0  0
 22 24  1  0  0  0  0
 24 25  1  0  0  0  0
 24 26  1  0  0  0  0
 26 27  1  0  0  0  0
 26 28  1  0  0  0  0
 26 29  1  0  0  0  0
M  END
$$$$

  -OEChem-01062216083D

 29 29  0     1  0  0  0  0  0999 V2000
   -2.2734   -2.0744    1.9395 H   0  0  0  0  0  0  0  0  0  0  0  0
   -2.5430   -1.0922    1.5442 C   0  0  0  0  0  0  0  0  0  0  0  0
   -2.0230   -0.3203    2.1137 H   0  0  0  0  0  0  0  0  0  0  0  0
   -3.6188   -0.9469    1.6664 H   0  0  0  0  0  0  0  0  0  0  0  0
   -2.1848   -1.0058    0.0696 C   0  0  0  0  0  0  0  0  0  0  0  0
   -2.7398   -1.7486   -0.7178 O   0  0  0  0  0  0  0  0  0  0  0  0
   -1.6613    0.1365   -0.4847 N   0  0  0  0  0  0  0  0  0  0  0  0
   -1.8435    0.1265   -1.4912 H   0  0  0  0  0  0  0  0  0  0  0  0
   -0.3595    0.7620   -0.1678 C   0  0  1  0  0  0  0  0  0  0  0  0
   -0.5027    1.4825    0.6422 H   0  0  0  0  0  0  0  0  0  0  0  0
    0.8016   -0.2039    0.1926 C   0  0  0  0  0  0  0  0  0  0  0  0
    0.9419   -0.8942   -0.6479 H   0  0  0  0  0  0  0  0  0  0  0  0
    1.7299    0.3679    0.2955 H   0  0  0  0  0  0  0  0  0  0  0  0
    0.6284   -1.0193    1.4457 C   0  0  0  0  0  0  0  0  0  0  0  0
    0.7396   -0.5905    2.7516 N   0  0  0  0  0  0  0  0  0  0  0  0
    0.9162    0.3612    3.0658 H   0  0  0  0  0  0  0  0  0  0  0  0
    0.6134   -1.6883    3.5827 C   0  0  0  0  0  0  0  0  0  0  0  0
    0.6455   -1.6586    4.6681 H   0  0  0  0  0  0  0  0  0  0  0  0
    0.4493   -2.7750    2.8693 N   0  0  0  0  0  0  0  0  0  0  0  0
    0.4833   -2.3807    1.5361 C   0  0  0  0  0  0  0  0  0  0  0  0
    0.4105   -3.0561    0.6883 H   0  0  0  0  0  0  0  0  0  0  0  0
    0.1612    1.4963   -1.4243 C   0  0  0  0  0  0  0  0  0  0  0  0
   -0.1404    1.1009   -2.5430 O   0  0  0  0  0  0  0  0  0  0  0  0
    0.9593    2.6204   -1.3000 N   0  0  0  0  0  0  0  0  0  0  0  0
    1.1531    2.9669   -0.3655 H   0  0  0  0  0  0  0  0  0  0  0  0
    1.4487    3.3800   -2.4452 C   0  0  0  0  0  0  0  0  0  0  0  0
    0.6108    3.7758   -3.0289 H   0  0  0  0  0  0  0  0  0  0  0  0
    2.0626    4.2206   -2.1081 H   0  0  0  0  0  0  0  0  0  0  0  0
    2.0608    2.7445   -3.0941 H   0  0  0  0  0  0  0  0  0  0  0  0
  1  2  1  0  0  0  0
  2  3  1  0  0  0  0
  2  4  1  0  0  0  0
  2  5  1  0  0  0  0
  5  6  2  0  0  0  0
  5  7  1  0  0  0  0
  7  8  1  0  0  0  0
  7  9  1  0  0  0  0
  9 10  1  0  0  0  0
  9 11  1  0  0  0  0
  9 22  1  0  0  0  0
 11 12  1  0  0  0  0
 11 13  1  0  0  0  0
 11 14  1  0  0  0  0
 14 15  1  0  0  0  0
 14 20  2  0  0  0  0
 15 16  1  0  0  0  0
 15 17  1  0  0  0  0
 17 18  1  0  0  0  0
 17 19  2  0  0  0  0
 19 20  1  0  0  0  0
 20 21  1  0  0  0  0
 22 23  2  0  0  0  0
 22 24  1  0  0  0  0
 24 25  1  0  0  0  0
 24 26  1  0  0  0  0
 26 27  1  0  0  0  0
 26 28  1  0  0  0  0
 26 29  1  0  0  0  0
M  END
$$$$

  -OEChem-01062216083D

 29 29  0     1  0  0  0  0  0999 V2000
   -2.2802   -2.0819    1.9391 H   0  0  0  0  0  0  0  0  0  0  0  0
   -2.5417   -1.0969    1.5447 C   0  0  0  0  0  0  0  0  0  0  0  0
   -2.0163   -0.3298    2.1160 H   0  0  0  0  0  0  0  0  0  0  0  0
   -3.6167   -0.9433    1.6661 H   0  0  0  0  0  0  0  0  0  0  0  0
   -2.1817   -1.0111    0.0703 C   0  0  0  0  0  0  0  0  0  0  0  0
   -2.7360   -1.7543   -0.7172 O   0  0  0  0  0  0  0  0  0  0  0  0
   -1.6568    0.1308   -0.4834 N   0  0  0  0  0  0  0  0  0  0  0  0
   -1.8606    0.1439   -1.4861 H   0  0  0  0  0  0  0  0  0  0  0  0
   -0.3536    0.7602   -0.1777 C   0  0  1  0  0  0  0  0  0  0  0  0
   -0.4903    1.4843    0.6302 H   0  0  0  0  0  0  0  0  0  0  0  0
    0.8019   -0.2146    0.1833 C   0  0  0  0  0  0  0  0  0  0  0  0
    0.9316   -0.9094   -0.6552 H   0  0  0  0  0  0  0  0  0  0  0  0
    1.7373    0.3454    0.2825 H   0  0  0  0  0  0  0  0  0  0  0  0
    0.6275   -1.0223    1.4417 C   0  0  0  0  0  0  0  0  0  0  0  0
    0.7481   -0.5871    2.7447 N   0  0  0  0  0  0  0  0  0  0  0  0
    0.9238    0.3666    3.0530 H   0  0  0  0  0  0  0  0  0  0  0  0
    0.6209   -1.6794    3.5828 C   0  0  0  0  0  0  0  0  0  0  0  0
    0.6596   -1.6439    4.6680 H   0  0  0  0  0  0  0  0  0  0  0  0
    0.4479   -2.7692    2.8764 N   0  0  0  0  0  0  0  0  0  0  0  0
    0.4771   -2.3826    1.5410 C   0  0  0  0  0  0  0  0  0  0  0  0
    0.3982   -3.0627    0.6977 H   0  0  0  0  0  0  0  0  0  0  0  0
    0.1578    1.4960   -1.4414 C   0  0  0  0  0  0  0  0  0  0  0  0
   -0.3399    1.2692   -2.5372 O   0  0  0  0  0  0  0  0  0  0  0  0
    1.1865    2.4195   -1.3566 N   0  0  0  0  0  0  0  0  0  0  0  0
    1.5628    2.6316   -0.4378 H   0  0  0  0  0  0  0  0  0  0  0  0
    1.6938    3.1565   -2.5091 C   0  0  0  0  0  0  0  0  0  0  0  0
    0.9040    3.7778   -2.9448 H   0  0  0  0  0  0  0  0  0  0  0  0
    2.5201    3.8080   -2.2087 H   0  0  0  0  0  0  0  0  0  0  0  0
    2.0611    2.4652   -3.2751 H   0  0  0  0  0  0  0  0  0  0  0  0
  1  2  1  0  0  0  0
  2  3  1  0  0  0  0
  2  4  1  0  0  0  0
  2  5  1  0  0  0  0
  5  6  2  0  0  0  0
  5  7  1  0  0  0  0
  7  8  1  0  0  0  0
  7  9  1  0  0  0  0
  9 10  1  0  0  0  0
  9 11  1  0  0  0  0
  9 22  1  0  0  0  0
 11 12  1  0  0  0  0
 11 13  1  0  0  0  0
 11 14  1  0  0  0  0
 14 15  1  0  0  0  0
 14 20  2  0  0  0  0
 15 16  1  0  0  0  0
 15 17  1  0  0  0  0
 17 18  1  0  0  0  0
 17 19  2  0  0  0  0
 19 20  1  0  0  0  0
 20 21  1  0  0  0  0
 22 23  2  0  0  0  0
 22 24  1  0  0  0  0
 24 25  1  0  0  0  0
 24 26  1  0  0  0  0
 26 27  1  0  0  0  0
 26 28  1  0  0  0  0
 26 29  1  0  0  0  0
M  END
$$$$

  -OEChem-01062216083D

 29 29  0     1  0  0  0  0  0999 V2000
   -3.4941   -2.3592    1.0336 H   0  0  0  0  0  0  0  0  0  0  0  0
   -3.2666   -1.5397    0.3461 C   0  0  0  0  0  0  0  0  0  0  0  0
   -4.1469   -0.8988    0.2554 H   0  0  0  0  0  0  0  0  0  0  0  0
   -3.0264   -1.9597   -0.6334 H   0  0  0  0  0  0  0  0  0  0  0  0
   -2.0911   -0.7356    0.8667 C   0  0  0  0  0  0  0  0  0  0  0  0
   -1.7176   -0.8903    2.0165 O   0  0  0  0  0  0  0  0  0  0  0  0
   -1.5890    0.3052    0.1155 N   0  0  0  0  0  0  0  0  0  0  0  0
   -2.0707    0.4617   -0.7708 H   0  0  0  0  0  0  0  0  0  0  0  0
   -0.2199    0.8627    0.1492 C   0  0  1  0  0  0  0  0  0  0  0  0
   -0.0872    1.4607    1.0557 H   0  0  0  0  0  0  0  0  0  0  0  0
    0.9206   -0.1939    0.0246 C   0  0  0  0  0  0  0  0  0  0  0  0
    0.7781   -0.7337   -0.9184 H   0  0  0  0  0  0  0  0  0  0  0  0
    1.8865    0.3159   -0.0381 H   0  0  0  0  0  0  0  0  0  0  0  0
    1.0489   -1.2106    1.1268 C   0  0  0  0  0  0  0  0  0  0  0  0
    1.5484   -1.0325    2.3980 N   0  0  0  0  0  0  0  0  0  0  0  0
    1.7610   -0.1439    2.8436 H   0  0  0  0  0  0  0  0  0  0  0  0
    1.5650   -2.2608    3.0335 C   0  0  0  0  0  0  0  0  0  0  0  0
    1.8761   -2.4261    4.0609 H   0  0  0  0  0  0  0  0  0  0  0  0
    1.1620   -3.2040    2.2168 N   0  0  0  0  0  0  0  0  0  0  0  0
    0.8314   -2.5616    1.0293 C   0  0  0  0  0  0  0  0  0  0  0  0
    0.4725   -3.0661    0.1373 H   0  0  0  0  0  0  0  0  0  0  0  0
   -0.0336    1.7506   -1.1111 C   0  0  0  0  0  0  0  0  0  0  0  0
   -0.9245    1.8206   -1.9527 O   0  0  0  0  0  0  0  0  0  0  0  0
    1.1558    2.4165   -1.3592 N   0  0  0  0  0  0  0  0  0  0  0  0
    1.8786    2.3756   -0.6466 H   0  0  0  0  0  0  0  0  0  0  0  0
    1.3888    3.2297   -2.5475 C   0  0  0  0  0  0  0  0  0  0  0  0
    0.6676    4.0523   -2.5970 H   0  0  0  0  0  0  0  0  0  0  0  0
    2.3968    3.6547   -2.5234 H   0  0  0  0  0  0  0  0  0  0  0  0
    1.2927    2.6215   -3.4533 H   0  0  0  0  0  0  0  0  0  0  0  0
  1  2  1  0  0  0  0
  2  3  1  0  0  0  0
  2  4  1  0  0  0  0
  2  5  1  0  0  0  0
  5  6  2  0  0  0  0
  5  7  1  0  0  0  0
  7  8  1  0  0  0  0
  7  9  1  0  0  0  0
  9 10  1  0  0  0  0
  9 11  1  0  0  0  0
  9 22  1  0  0  0  0
 11 12  1  0  0  0  0
 11 13  1  0  0  0  0
 11 14  1  0  0  0  0
 14 15  1  0  0  0  0
 14 20  2  0  0  0  0
 15 16  1  0  0  0  0
 15 17  1  0  0  0  0
 17 18  1  0  0  0  0
 17 19  2  0  0  0  0
 19 20  1  0  0  0  0
 20 21  1  0  0  0  0
 22 23  2  0  0  0  0
 22 24  1  0  0  0  0
 24 25  1  0  0  0  0
 24 26  1  0  0  0  0
 26 27  1  0  0  0  0
 26 28  1  0  0  0  0
 26 29  1  0  0  0  0
M  END
$$$$

  -OEChem-01062216083D

 29 29  0     1  0  0  0  0  0999 V2000
   -3.5597   -2.3287    0.9589 H   0  0  0  0  0  0  0  0  0  0  0  0
   -3.3145   -1.4880    0.3039 C   0  0  0  0  0  0  0  0  0  0  0  0
   -4.1664   -0.8046    0.2710 H   0  0  0  0  0  0  0  0  0  0  0  0
   -3.1222   -1.8703   -0.7012 H   0  0  0  0  0  0  0  0  0  0  0  0
   -2.0892   -0.7619    0.8248 C   0  0  0  0  0  0  0  0  0  0  0  0
   -1.7048   -0.9760    1.9607 O   0  0  0  0  0  0  0  0  0  0  0  0
   -1.5591    0.2817    0.0965 N   0  0  0  0  0  0  0  0  0  0  0  0
   -2.0707    0.5133   -0.7560 H   0  0  0  0  0  0  0  0  0  0  0  0
   -0.1880    0.8365    0.1367 C   0  0  1  0  0  0  0  0  0  0  0  0
   -0.0617    1.4377    1.0419 H   0  0  0  0  0  0  0  0  0  0  0  0
    0.9547   -0.2222    0.0376 C   0  0  0  0  0  0  0  0  0  0  0  0
    0.8269   -0.7701   -0.9026 H   0  0  0  0  0  0  0  0  0  0  0  0
    1.9212    0.2865   -0.0103 H   0  0  0  0  0  0  0  0  0  0  0  0
    1.0755   -1.2264    1.1516 C   0  0  0  0  0  0  0  0  0  0  0  0
    1.5645   -1.0304    2.4242 N   0  0  0  0  0  0  0  0  0  0  0  0
    1.7668   -0.1353    2.8617 H   0  0  0  0  0  0  0  0  0  0  0  0
    1.5876   -2.2514    3.0730 C   0  0  0  0  0  0  0  0  0  0  0  0
    1.8936   -2.4026    4.1041 H   0  0  0  0  0  0  0  0  0  0  0  0
    1.1992   -3.2071    2.2640 N   0  0  0  0  0  0  0  0  0  0  0  0
    0.8700   -2.5803    1.0677 C   0  0  0  0  0  0  0  0  0  0  0  0
    0.5232   -3.0983    0.1788 H   0  0  0  0  0  0  0  0  0  0  0  0
   -0.0137    1.7345   -1.1238 C   0  0  0  0  0  0  0  0  0  0  0  0
   -0.9906    2.0118   -1.8136 O   0  0  0  0  0  0  0  0  0  0  0  0
    1.2262    2.1702   -1.5660 N   0  0  0  0  0  0  0  0  0  0  0  0
    2.0355    1.9592   -0.9901 H   0  0  0  0  0  0  0  0  0  0  0  0
    1.4156    2.9764   -2.7672 C   0  0  0  0  0  0  0  0  0  0  0  0
    0.8705    3.9227   -2.6846 H   0  0  0  0  0  0  0  0  0  0  0  0
    2.4771    3.2010   -2.9091 H   0  0  0  0  0  0  0  0  0  0  0  0
    1.0560    2.4382   -3.6506 H   0  0  0  0  0  0  0  0  0  0  0  0
  1  2  1  0  0  0  0
  2  3  1  0  0  0  0
  2  4  1  0  0  0  0
  2  5  1  0  0  0  0
  5  6  2  0  0  0  0
  5  7  1  0  0  0  0
  7  8  1  0  0  0  0
  7  9  1  0  0  0  0
  9 10  1  0  0  0  0
  9 11  1  0  0  0  0
  9 22  1  0  0  0  0
 11 12  1  0  0  0  0
 11 13  1  0  0  0  0
 11 14  1  0  0  0  0
 14 15  1  0  0  0  0
 14 20  2  0  0  0  0
 15 16  1  0  0  0  0
 15 17  1  0  0  0  0
 17 18  1  0  0  0  0
 17 19  2  0  0  0  0
 19 20  1  0  0  0  0
 20 21  1  0  0  0  0
 22 23  2  0  0  0  0
 22 24  1  0  0  0  0
 24 25  1  0  0  0  0
 24 26  1  0  0  0  0
 26 27  1  0  0  0  0
 26 28  1  0  0  0  0
 26 29  1  0  0  0  0
M  END
$$$$

  -OEChem-01062216083D

 29 29  0     1  0  0  0  0  0999 V2000
   -3.6626   -2.2666    0.8969 H   0  0  0  0  0  0  0  0  0  0  0  0
   -3.3782   -1.4246    0.2594 C   0  0  0  0  0  0  0  0  0  0  0  0
   -4.1851   -0.6878    0.2657 H   0  0  0  0  0  0  0  0  0  0  0  0
   -3.2342   -1.7895   -0.7602 H   0  0  0  0  0  0  0  0  0  0  0  0
   -2.0972   -0.7935    0.7709 C   0  0  0  0  0  0  0  0  0  0  0  0
   -1.6918   -1.0893    1.8797 O   0  0  0  0  0  0  0  0  0  0  0  0
   -1.5374    0.2542    0.0706 N   0  0  0  0  0  0  0  0  0  0  0  0
   -2.0777    0.5690   -0.7358 H   0  0  0  0  0  0  0  0  0  0  0  0
   -0.1622    0.7995    0.1217 C   0  0  1  0  0  0  0  0  0  0  0  0
   -0.0464    1.4023    1.0273 H   0  0  0  0  0  0  0  0  0  0  0  0
    0.9919   -0.2491    0.0509 C   0  0  0  0  0  0  0  0  0  0  0  0
    0.8845   -0.8087   -0.8849 H   0  0  0  0  0  0  0  0  0  0  0  0
    1.9522    0.2726    0.0167 H   0  0  0  0  0  0  0  0  0  0  0  0
    1.1101   -1.2403    1.1762 C   0  0  0  0  0  0  0  0  0  0  0  0
    1.5821   -1.0224    2.4518 N   0  0  0  0  0  0  0  0  0  0  0  0
    1.7656   -0.1191    2.8809 H   0  0  0  0  0  0  0  0  0  0  0  0
    1.6215   -2.2359    3.1136 C   0  0  0  0  0  0  0  0  0  0  0  0
    1.9184   -2.3707    4.1496 H   0  0  0  0  0  0  0  0  0  0  0  0
    1.2626   -3.2072    2.3096 N   0  0  0  0  0  0  0  0  0  0  0  0
    0.9334   -2.5990    1.1034 C   0  0  0  0  0  0  0  0  0  0  0  0
    0.6105   -3.1329    0.2148 H   0  0  0  0  0  0  0  0  0  0  0  0
    0.0013    1.7115   -1.1322 C   0  0  0  0  0  0  0  0  0  0  0  0
   -0.9976    2.2049   -1.6465 O   0  0  0  0  0  0  0  0  0  0  0  0
    1.2123    1.9200   -1.7763 N   0  0  0  0  0  0  0  0  0  0  0  0
    2.0448    1.5069   -1.3678 H   0  0  0  0  0  0  0  0  0  0  0  0
    1.3548    2.7186   -2.9893 C   0  0  0  0  0  0  0  0  0  0  0  0
    1.0168    3.7455   -2.8151 H   0  0  0  0  0  0  0  0  0  0  0  0
    2.4033    2.7487   -3.3006 H   0  0  0  0  0  0  0  0  0  0  0  0
    0.7651    2.2867   -3.8047 H   0  0  0  0  0  0  0  0  0  0  0  0
  1  2  1  0  0  0  0
  2  3  1  0  0  0  0
  2  4  1  0  0  0  0
  2  5  1  0  0  0  0
  5  6  2  0  0  0  0
  5  7  1  0  0  0  0
  7  8  1  0  0  0  0
  7  9  1  0  0  0  0
  9 10  1  0  0  0  0
  9 11  1  0  0  0  0
  9 22  1  0  0  0  0
 11 12  1  0  0  0  0
 11 13  1  0  0  0  0
 11 14  1  0  0  0  0
 14 15  1  0  0  0  0
 14 20  2  0  0  0  0
 15 16  1  0  0  0  0
 15 17  1  0  0  0  0
 17 18  1  0  0  0  0
 17 19  2  0  0  0  0
 19 20  1  0  0  0  0
 20 21  1  0  0  0  0
 22 23  2  0  0  0  0
 22 24  1  0  0  0  0
 24 25  1  0  0  0  0
 24 26  1  0  0  0  0
 26 27  1  0  0  0  0
 26 28  1  0  0  0  0
 26 29  1  0  0  0  0
M  END
$$$$

  -OEChem-01062216083D

 29 29  0     1  0  0  0  0  0999 V2000
   -3.7223   -2.2363    0.8420 H   0  0  0  0  0  0  0  0  0  0  0  0
   -3.4234   -1.3816    0.2285 C   0  0  0  0  0  0  0  0  0  0  0  0
   -4.2016   -0.6169    0.2855 H   0  0  0  0  0  0  0  0  0  0  0  0
   -3.3212   -1.7123   -0.8077 H   0  0  0  0  0  0  0  0  0  0  0  0
   -2.1065   -0.8172    0.7267 C   0  0  0  0  0  0  0  0  0  0  0  0
   -1.6820   -1.1780    1.8077 O   0  0  0  0  0  0  0  0  0  0  0  0
   -1.5271    0.2315    0.0432 N   0  0  0  0  0  0  0  0  0  0  0  0
   -2.0894    0.6062   -0.7206 H   0  0  0  0  0  0  0  0  0  0  0  0
   -0.1470    0.7646    0.0983 C   0  0  1  0  0  0  0  0  0  0  0  0
   -0.0383    1.3706    1.0029 H   0  0  0  0  0  0  0  0  0  0  0  0
    1.0162   -0.2740    0.0524 C   0  0  0  0  0  0  0  0  0  0  0  0
    0.9181   -0.8522   -0.8731 H   0  0  0  0  0  0  0  0  0  0  0  0
    1.9695    0.2621    0.0132 H   0  0  0  0  0  0  0  0  0  0  0  0
    1.1367   -1.2498    1.1910 C   0  0  0  0  0  0  0  0  0  0  0  0
    1.5984   -1.0071    2.4658 N   0  0  0  0  0  0  0  0  0  0  0  0
    1.7779   -0.0957    2.8792 H   0  0  0  0  0  0  0  0  0  0  0  0
    1.6498   -2.2098    3.1463 C   0  0  0  0  0  0  0  0  0  0  0  0
    1.9449   -2.3247    4.1854 H   0  0  0  0  0  0  0  0  0  0  0  0
    1.3058   -3.1974    2.3559 N   0  0  0  0  0  0  0  0  0  0  0  0
    0.9741   -2.6114    1.1392 C   0  0  0  0  0  0  0  0  0  0  0  0
    0.6606   -3.1627    0.2582 H   0  0  0  0  0  0  0  0  0  0  0  0
    0.0127    1.6850   -1.1473 C   0  0  0  0  0  0  0  0  0  0  0  0
   -0.9356    2.3852   -1.4841 O   0  0  0  0  0  0  0  0  0  0  0  0
    1.1213    1.6755   -1.9820 N   0  0  0  0  0  0  0  0  0  0  0  0
    1.8934    1.0626   -1.7392 H   0  0  0  0  0  0  0  0  0  0  0  0
    1.2259    2.4826   -3.1933 C   0  0  0  0  0  0  0  0  0  0  0  0
    1.1343    3.5475   -2.9544 H   0  0  0  0  0  0  0  0  0  0  0  0
    2.1951    2.3192   -3.6740 H   0  0  0  0  0  0  0  0  0  0  0  0
    0.4383    2.2118   -3.9042 H   0  0  0  0  0  0  0  0  0  0  0  0
  1  2  1  0  0  0  0
  2  3  1  0  0  0  0
  2  4  1  0  0  0  0
  2  5  1  0  0  0  0
  5  6  2  0  0  0  0
  5  7  1  0  0  0  0
  7  8  1  0  0  0  0
  7  9  1  0  0  0  0
  9 10  1  0  0  0  0
  9 11  1  0  0  0  0
  9 22  1  0  0  0  0
 11 12  1  0  0  0  0
 11 13  1  0  0  0  0
 11 14  1  0  0  0  0
 14 15  1  0  0  0  0
 14 20  2  0  0  0  0
 15 16  1  0  0  0  0
 15 17  1  0  0  0  0
 17 18  1  0  0  0  0
 17 19  2  0  0  0  0
 19 20  1  0  0  0  0
 20 21  1  0  0  0  0
 22 23  2  0  0  0  0
 22 24  1  0  0  0  0
 24 25  1  0  0  0  0
 24 26  1  0  0  0  0
 26 27  1  0  0  0  0
 26 28  1  0  0  0  0
 26 29  1  0  0  0  0
M  END
$$$$

  -OEChem-01062216083D

 29 29  0     1  0  0  0  0  0999 V2000
   -3.7719   -2.2058    0.8308 H   0  0  0  0  0  0  0  0  0  0  0  0
   -3.4578   -1.3555    0.2188 C   0  0  0  0  0  0  0  0  0  0  0  0
   -4.2127   -0.5691    0.2931 H   0  0  0  0  0  0  0  0  0  0  0  0
   -3.3805   -1.6817   -0.8210 H   0  0  0  0  0  0  0  0  0  0  0  0
   -2.1174   -0.8330    0.6998 C   0  0  0  0  0  0  0  0  0  0  0  0
   -1.6757   -1.2355    1.7581 O   0  0  0  0  0  0  0  0  0  0  0  0
   -1.5294    0.2149    0.0218 N   0  0  0  0  0  0  0  0  0  0  0  0
   -2.1076    0.6229   -0.7114 H   0  0  0  0  0  0  0  0  0  0  0  0
   -0.1461    0.7394    0.0754 C   0  0  1  0  0  0  0  0  0  0  0  0
   -0.0407    1.3482    0.9786 H   0  0  0  0  0  0  0  0  0  0  0  0
    1.0245   -0.2903    0.0445 C   0  0  0  0  0  0  0  0  0  0  0  0
    0.9278   -0.8864   -0.8692 H   0  0  0  0  0  0  0  0  0  0  0  0
    1.9716    0.2566   -0.0105 H   0  0  0  0  0  0  0  0  0  0  0  0
    1.1520   -1.2540    1.1927 C   0  0  0  0  0  0  0  0  0  0  0  0
    1.6103   -0.9917    2.4646 N   0  0  0  0  0  0  0  0  0  0  0  0
    1.7828   -0.0736    2.8659 H   0  0  0  0  0  0  0  0  0  0  0  0
    1.6777   -2.1860    3.1583 C   0  0  0  0  0  0  0  0  0  0  0  0
    1.9777   -2.2863    4.1973 H   0  0  0  0  0  0  0  0  0  0  0  0
    1.3431   -3.1865    2.3802 N   0  0  0  0  0  0  0  0  0  0  0  0
    1.0022   -2.6179    1.1575 C   0  0  0  0  0  0  0  0  0  0  0  0
    0.6916   -3.1826    0.2838 H   0  0  0  0  0  0  0  0  0  0  0  0
    0.0165    1.6625   -1.1635 C   0  0  0  0  0  0  0  0  0  0  0  0
   -0.8188    2.5393   -1.3454 O   0  0  0  0  0  0  0  0  0  0  0  0
    0.9570    1.4589   -2.1631 N   0  0  0  0  0  0  0  0  0  0  0  0
    1.6151    0.6943   -2.0472 H   0  0  0  0  0  0  0  0  0  0  0  0
    1.0389    2.2740   -3.3707 C   0  0  0  0  0  0  0  0  0  0  0  0
    1.2066    3.3252   -3.1133 H   0  0  0  0  0  0  0  0  0  0  0  0
    1.8685    1.9367   -3.9994 H   0  0  0  0  0  0  0  0  0  0  0  0
    0.1127    2.1964   -3.9499 H   0  0  0  0  0  0  0  0  0  0  0  0
  1  2  1  0  0  0  0
  2  3  1  0  0  0  0
  2  4  1  0  0  0  0
  2  5  1  0  0  0  0
  5  6  2  0  0  0  0
  5  7  1  0  0  0  0
  7  8  1  0  0  0  0
  7  9  1  0  0  0  0
  9 10  1  0  0  0  0
  9 11  1  0  0  0  0
  9 22  1  0  0  0  0
 11 12  1  0  0  0  0
 11 13  1  0  0  0  0
 11 14  1  0  0  0  0
 14 15  1  0  0  0  0
 14 20  2  0  0  0  0
 15 16  1  0  0  0  0
 15 17  1  0  0  0  0
 17 18  1  0  0  0  0
 17 19  2  0  0  0  0
 19 20  1  0  0  0  0
 20 21  1  0  0  0  0
 22 23  2  0  0  0  0
 22 24  1  0  0  0  0
 24 25  1  0  0  0  0
 24 26  1  0  0  0  0
 26 27  1  0  0  0  0
 26 28  1  0  0  0  0
 26 29  1  0  0  0  0
M  END
$$$$

  -OEChem-01062216083D

 29 29  0     1  0  0  0  0  0999 V2000
   -3.8112   -2.1812    0.8536 H   0  0  0  0  0  0  0  0  0  0  0  0
   -3.4854   -1.3459    0.2270 C   0  0  0  0  0  0  0  0  0  0  0  0
   -4.2230   -0.5430    0.2988 H   0  0  0  0  0  0  0  0  0  0  0  0
   -3.4260   -1.6875   -0.8090 H   0  0  0  0  0  0  0  0  0  0  0  0
   -2.1293   -0.8453    0.6879 C   0  0  0  0  0  0  0  0  0  0  0  0
   -1.6710   -1.2701    1.7296 O   0  0  0  0  0  0  0  0  0  0  0  0
   -1.5414    0.2019    0.0081 N   0  0  0  0  0  0  0  0  0  0  0  0
   -2.1285    0.6163   -0.7130 H   0  0  0  0  0  0  0  0  0  0  0  0
   -0.1551    0.7199    0.0545 C   0  0  1  0  0  0  0  0  0  0  0  0
   -0.0496    1.3284    0.9582 H   0  0  0  0  0  0  0  0  0  0  0  0
    1.0232   -0.3002    0.0272 C   0  0  0  0  0  0  0  0  0  0  0  0
    0.9251   -0.9101   -0.8764 H   0  0  0  0  0  0  0  0  0  0  0  0
    1.9646    0.2547   -0.0461 H   0  0  0  0  0  0  0  0  0  0  0  0
    1.1599   -1.2540    1.1827 C   0  0  0  0  0  0  0  0  0  0  0  0
    1.6194   -0.9751    2.4508 N   0  0  0  0  0  0  0  0  0  0  0  0
    1.7907   -0.0517    2.8408 H   0  0  0  0  0  0  0  0  0  0  0  0
    1.6975   -2.1619    3.1562 C   0  0  0  0  0  0  0  0  0  0  0  0
    2.0015   -2.2494    4.1952 H   0  0  0  0  0  0  0  0  0  0  0  0
    1.3674   -3.1726    2.3892 N   0  0  0  0  0  0  0  0  0  0  0  0
    1.0200   -2.6191    1.1616 C   0  0  0  0  0  0  0  0  0  0  0  0
    0.7118   -3.1948    0.2943 H   0  0  0  0  0  0  0  0  0  0  0  0
    0.0142    1.6448   -1.1773 C   0  0  0  0  0  0  0  0  0  0  0  0
   -0.6316    2.6830   -1.2157 O   0  0  0  0  0  0  0  0  0  0  0  0
    0.7274    1.2856   -2.3112 N   0  0  0  0  0  0  0  0  0  0  0  0
    1.2075    0.3908   -2.3059 H   0  0  0  0  0  0  0  0  0  0  0  0
    0.8018    2.1125   -3.5108 C   0  0  0  0  0  0  0  0  0  0  0  0
    1.2302    3.0924   -3.2748 H   0  0  0  0  0  0  0  0  0  0  0  0
    1.4344    1.6317   -4.2631 H   0  0  0  0  0  0  0  0  0  0  0  0
   -0.1954    2.2579   -3.9393 H   0  0  0  0  0  0  0  0  0  0  0  0
  1  2  1  0  0  0  0
  2  3  1  0  0  0  0
  2  4  1  0  0  0  0
  2  5  1  0  0  0  0
  5  6  2  0  0  0  0
  5  7  1  0  0  0  0
  7  8  1  0  0  0  0
  7  9  1  0  0  0  0
  9 10  1  0  0  0  0
  9 11  1  0  0  0  0
  9 22  1  0  0  0  0
 11 12  1  0  0  0  0
 11 13  1  0  0  0  0
 11 14  1  0  0  0  0
 14 15  1  0  0  0  0
 14 20  2  0  0  0  0
 15 16  1  0  0  0  0
 15 17  1  0  0  0  0
 17 18  1  0  0  0  0
 17 19  2  0  0  0  0
 19 20  1  0  0  0  0
 20 21  1  0  0  0  0
 22 23  2  0  0  0  0
 22 24  1  0  0  0  0
 24 25  1  0  0  0  0
 24 26  1  0  0  0  0
 26 27  1  0  0  0  0
 26 28  1  0  0  0  0
 26 29  1  0  0  0  0
M  END
$$$$

  -OEChem-01062216083D

 29 29  0     1  0  0  0  0  0999 V2000
   -3.7944   -2.2017    0.8855 H   0  0  0  0  0  0  0  0  0  0  0  0
   -3.4857   -1.3649    0.2523 C   0  0  0  0  0  0  0  0  0  0  0  0
   -4.2379   -0.5753    0.3201 H   0  0  0  0  0  0  0  0  0  0  0  0
   -3.4224   -1.7128   -0.7814 H   0  0  0  0  0  0  0  0  0  0  0  0
   -2.1378   -0.8368    0.7063 C   0  0  0  0  0  0  0  0  0  0  0  0
   -1.6740   -1.2373    1.7553 O   0  0  0  0  0  0  0  0  0  0  0  0
   -1.5629    0.2073    0.0103 N   0  0  0  0  0  0  0  0  0  0  0  0
   -2.1486    0.5890   -0.7286 H   0  0  0  0  0  0  0  0  0  0  0  0
   -0.1752    0.7231    0.0460 C   0  0  1  0  0  0  0  0  0  0  0  0
   -0.0638    1.3320    0.9491 H   0  0  0  0  0  0  0  0  0  0  0  0
    1.0067   -0.2920    0.0071 C   0  0  0  0  0  0  0  0  0  0  0  0
    0.9090   -0.9031   -0.8952 H   0  0  0  0  0  0  0  0  0  0  0  0
    1.9441    0.2688   -0.0744 H   0  0  0  0  0  0  0  0  0  0  0  0
    1.1527   -1.2454    1.1611 C   0  0  0  0  0  0  0  0  0  0  0  0
    1.6189   -0.9653    2.4262 N   0  0  0  0  0  0  0  0  0  0  0  0
    1.7926   -0.0413    2.8140 H   0  0  0  0  0  0  0  0  0  0  0  0
    1.7008   -2.1514    3.1321 C   0  0  0  0  0  0  0  0  0  0  0  0
    2.0094   -2.2376    4.1699 H   0  0  0  0  0  0  0  0  0  0  0  0
    1.3671   -3.1630    2.3676 N   0  0  0  0  0  0  0  0  0  0  0  0
    1.0142   -2.6105    1.1411 C   0  0  0  0  0  0  0  0  0  0  0  0
    0.7022   -3.1867    0.2754 H   0  0  0  0  0  0  0  0  0  0  0  0
   -0.0008    1.6399   -1.1876 C   0  0  0  0  0  0  0  0  0  0  0  0
   -0.3791    2.8001   -1.1182 O   0  0  0  0  0  0  0  0  0  0  0  0
    0.4395    1.1667   -2.4138 N   0  0  0  0  0  0  0  0  0  0  0  0
    0.7010    0.1874   -2.4766 H   0  0  0  0  0  0  0  0  0  0  0  0
    0.5310    1.9956   -3.6106 C   0  0  0  0  0  0  0  0  0  0  0  0
    1.2343    2.8199   -3.4524 H   0  0  0  0  0  0  0  0  0  0  0  0
    0.8824    1.3991   -4.4580 H   0  0  0  0  0  0  0  0  0  0  0  0
   -0.4492    2.4126   -3.8651 H   0  0  0  0  0  0  0  0  0  0  0  0
  1  2  1  0  0  0  0
  2  3  1  0  0  0  0
  2  4  1  0  0  0  0
  2  5  1  0  0  0  0
  5  6  2  0  0  0  0
  5  7  1  0  0  0  0
  7  8  1  0  0  0  0
  7  9  1  0  0  0  0
  9 10  1  0  0  0  0
  9 11  1  0  0  0  0
  9 22  1  0  0  0  0
 11 12  1  0  0  0  0
 11 13  1  0  0  0  0
 11 14  1  0  0  0  0
 14 15  1  0  0  0  0
 14 20  2  0  0  0  0
 15 16  1  0  0  0  0
 15 17  1  0  0  0  0
 17 18  1  0  0  0  0
 17 19  2  0  0  0  0
 19 20  1  0  0  0  0
 20 21  1  0  0  0  0
 22 23  2  0  0  0  0
 22 24  1  0  0  0  0
 24 25  1  0  0  0  0
 24 26  1  0  0  0  0
 26 27  1  0  0  0  0
 26 28  1  0  0  0  0
 26 29  1  0  0  0  0
M  END
$$$$

  -OEChem-01062216083D

 29 29  0     1  0  0  0  0  0999 V2000
   -3.7226   -2.2634    0.9458 H   0  0  0  0  0  0  0  0  0  0  0  0
   -3.4606   -1.4145    0.3075 C   0  0  0  0  0  0  0  0  0  0  0  0
   -4.2537   -0.6659    0.3740 H   0  0  0  0  0  0  0  0  0  0  0  0
   -3.3813   -1.7641   -0.7244 H   0  0  0  0  0  0  0  0  0  0  0  0
   -2.1422   -0.8130    0.7563 C   0  0  0  0  0  0  0  0  0  0  0  0
   -1.6800   -1.1426    1.8308 O   0  0  0  0  0  0  0  0  0  0  0  0
   -1.5976    0.2269    0.0300 N   0  0  0  0  0  0  0  0  0  0  0  0
   -2.1783    0.5466   -0.7407 H   0  0  0  0  0  0  0  0  0  0  0  0
   -0.2108    0.7481    0.0470 C   0  0  1  0  0  0  0  0  0  0  0  0
   -0.0853    1.3571    0.9483 H   0  0  0  0  0  0  0  0  0  0  0  0
    0.9681   -0.2680   -0.0218 C   0  0  0  0  0  0  0  0  0  0  0  0
    0.8602   -0.8682   -0.9300 H   0  0  0  0  0  0  0  0  0  0  0  0
    1.9054    0.2923   -0.1108 H   0  0  0  0  0  0  0  0  0  0  0  0
    1.1265   -1.2302    1.1234 C   0  0  0  0  0  0  0  0  0  0  0  0
    1.6113   -0.9611    2.3837 N   0  0  0  0  0  0  0  0  0  0  0  0
    1.8011   -0.0407    2.7726 H   0  0  0  0  0  0  0  0  0  0  0  0
    1.6881   -2.1513    3.0833 C   0  0  0  0  0  0  0  0  0  0  0  0
    2.0080   -2.2461    4.1169 H   0  0  0  0  0  0  0  0  0  0  0  0
    1.3331   -3.1555    2.3184 N   0  0  0  0  0  0  0  0  0  0  0  0
    0.9733   -2.5934    1.0987 C   0  0  0  0  0  0  0  0  0  0  0  0
    0.6441   -3.1624    0.2349 H   0  0  0  0  0  0  0  0  0  0  0  0
   -0.0344    1.6501   -1.1943 C   0  0  0  0  0  0  0  0  0  0  0  0
   -0.0789    2.8645   -1.0670 O   0  0  0  0  0  0  0  0  0  0  0  0
    0.1046    1.1193   -2.4668 N   0  0  0  0  0  0  0  0  0  0  0  0
    0.1321    0.1079   -2.5563 H   0  0  0  0  0  0  0  0  0  0  0  0
    0.2641    1.9364   -3.6642 C   0  0  0  0  0  0  0  0  0  0  0  0
    1.1674    2.5512   -3.5910 H   0  0  0  0  0  0  0  0  0  0  0  0
    0.3514    1.2983   -4.5489 H   0  0  0  0  0  0  0  0  0  0  0  0
   -0.6007    2.5949   -3.7972 H   0  0  0  0  0  0  0  0  0  0  0  0
  1  2  1  0  0  0  0
  2  3  1  0  0  0  0
  2  4  1  0  0  0  0
  2  5  1  0  0  0  0
  5  6  2  0  0  0  0
  5  7  1  0  0  0  0
  7  8  1  0  0  0  0
  7  9  1  0  0  0  0
  9 10  1  0  0  0  0
  9 11  1  0  0  0  0
  9 22  1  0  0  0  0
 11 12  1  0  0  0  0
 11 13  1  0  0  0  0
 11 14  1  0  0  0  0
 14 15  1  0  0  0  0
 14 20  2  0  0  0  0
 15 16  1  0  0  0  0
 15 17  1  0  0  0  0
 17 18  1  0  0  0  0
 17 19  2  0  0  0  0
 19 20  1  0  0  0  0
 20 21  1  0  0  0  0
 22 23  2  0  0  0  0
 22 24  1  0  0  0  0
 24 25  1  0  0  0  0
 24 26  1  0  0  0  0
 26 27  1  0  0  0  0
 26 28  1  0  0  0  0
 26 29  1  0  0  0  0
M  END
$$$$

  -OEChem-01062216083D

 29 29  0     1  0  0  0  0  0999 V2000
   -3.6791   -2.2965    1.0073 H   0  0  0  0  0  0  0  0  0  0  0  0
   -3.4475   -1.4468    0.3584 C   0  0  0  0  0  0  0  0  0  0  0  0
   -4.2647   -0.7240    0.4192 H   0  0  0  0  0  0  0  0  0  0  0  0
   -3.3594   -1.8055   -0.6697 H   0  0  0  0  0  0  0  0  0  0  0  0
   -2.1489   -0.7974    0.7975 C   0  0  0  0  0  0  0  0  0  0  0  0
   -1.6838   -1.0842    1.8832 O   0  0  0  0  0  0  0  0  0  0  0  0
   -1.6286    0.2421    0.0526 N   0  0  0  0  0  0  0  0  0  0  0  0
   -2.2088    0.5274   -0.7315 H   0  0  0  0  0  0  0  0  0  0  0  0
   -0.2466    0.7774    0.0626 C   0  0  1  0  0  0  0  0  0  0  0  0
   -0.1149    1.3848    0.9640 H   0  0  0  0  0  0  0  0  0  0  0  0
    0.9340   -0.2326   -0.0384 C   0  0  0  0  0  0  0  0  0  0  0  0
    0.8217   -0.8123   -0.9597 H   0  0  0  0  0  0  0  0  0  0  0  0
    1.8687    0.3329   -0.1240 H   0  0  0  0  0  0  0  0  0  0  0  0
    1.1053   -1.2125    1.0893 C   0  0  0  0  0  0  0  0  0  0  0  0
    1.6020   -0.9624    2.3487 N   0  0  0  0  0  0  0  0  0  0  0  0
    1.8013   -0.0480    2.7473 H   0  0  0  0  0  0  0  0  0  0  0  0
    1.6792   -2.1624    3.0313 C   0  0  0  0  0  0  0  0  0  0  0  0
    2.0079   -2.2726    4.0605 H   0  0  0  0  0  0  0  0  0  0  0  0
    1.3121   -3.1546    2.2561 N   0  0  0  0  0  0  0  0  0  0  0  0
    0.9459   -2.5742    1.0469 C   0  0  0  0  0  0  0  0  0  0  0  0
    0.6052   -3.1297    0.1787 H   0  0  0  0  0  0  0  0  0  0  0  0
   -0.0703    1.6686   -1.1837 C   0  0  0  0  0  0  0  0  0  0  0  0
    0.2060    2.8516   -1.0540 O   0  0  0  0  0  0  0  0  0  0  0  0
   -0.2313    1.1481   -2.4577 N   0  0  0  0  0  0  0  0  0  0  0  0
   -0.3902    0.1482   -2.5394 H   0  0  0  0  0  0  0  0  0  0  0  0
   -0.0200    1.9283   -3.6714 C   0  0  0  0  0  0  0  0  0  0  0  0
    1.0105    2.2962   -3.7161 H   0  0  0  0  0  0  0  0  0  0  0  0
   -0.2055    1.3106   -4.5553 H   0  0  0  0  0  0  0  0  0  0  0  0
   -0.7015    2.7851   -3.6998 H   0  0  0  0  0  0  0  0  0  0  0  0
  1  2  1  0  0  0  0
  2  3  1  0  0  0  0
  2  4  1  0  0  0  0
  2  5  1  0  0  0  0
  5  6  2  0  0  0  0
  5  7  1  0  0  0  0
  7  8  1  0  0  0  0
  7  9  1  0  0  0  0
  9 10  1  0  0  0  0
  9 11  1  0  0  0  0
  9 22  1  0  0  0  0
 11 12  1  0  0  0  0
 11 13  1  0  0  0  0
 11 14  1  0  0  0  0
 14 15  1  0  0  0  0
 14 20  2  0  0  0  0
 15 16  1  0  0  0  0
 15 17  1  0  0  0  0
 17 18  1  0  0  0  0
 17 19  2  0  0  0  0
 19 20  1  0  0  0  0
 20 21  1  0  0  0  0
 22 23  2  0  0  0  0
 22 24  1  0  0  0  0
 24 25  1  0  0  0  0
 24 26  1  0  0  0  0
 26 27  1  0  0  0  0
 26 28  1  0  0  0  0
 26 29  1  0  0  0  0
M  END
$$$$

  -OEChem-01062216083D

 29 29  0     1  0  0  0  0  0999 V2000
   -3.6854   -2.2985    1.0780 H   0  0  0  0  0  0  0  0  0  0  0  0
   -3.4540   -1.4676    0.4052 C   0  0  0  0  0  0  0  0  0  0  0  0
   -4.2739   -0.7463    0.4417 H   0  0  0  0  0  0  0  0  0  0  0  0
   -3.3615   -1.8568   -0.6112 H   0  0  0  0  0  0  0  0  0  0  0  0
   -2.1585   -0.8017    0.8290 C   0  0  0  0  0  0  0  0  0  0  0  0
   -1.6836   -1.0739    1.9142 O   0  0  0  0  0  0  0  0  0  0  0  0
   -1.6546    0.2391    0.0737 N   0  0  0  0  0  0  0  0  0  0  0  0
   -2.2498    0.5273   -0.6976 H   0  0  0  0  0  0  0  0  0  0  0  0
   -0.2793    0.7951    0.0793 C   0  0  1  0  0  0  0  0  0  0  0  0
   -0.1462    1.4015    0.9814 H   0  0  0  0  0  0  0  0  0  0  0  0
    0.9052   -0.2070   -0.0437 C   0  0  0  0  0  0  0  0  0  0  0  0
    0.7881   -0.7715   -0.9744 H   0  0  0  0  0  0  0  0  0  0  0  0
    1.8372    0.3635   -0.1279 H   0  0  0  0  0  0  0  0  0  0  0  0
    1.0918   -1.2001    1.0700 C   0  0  0  0  0  0  0  0  0  0  0  0
    1.5984   -0.9638    2.3279 N   0  0  0  0  0  0  0  0  0  0  0  0
    1.7998   -0.0536    2.7352 H   0  0  0  0  0  0  0  0  0  0  0  0
    1.6850   -2.1716    2.9950 C   0  0  0  0  0  0  0  0  0  0  0  0
    2.0228   -2.2930    4.0201 H   0  0  0  0  0  0  0  0  0  0  0  0
    1.3135   -3.1554    2.2109 N   0  0  0  0  0  0  0  0  0  0  0  0
    0.9358   -2.5613    1.0120 C   0  0  0  0  0  0  0  0  0  0  0  0
    0.5878   -3.1060    0.1398 H   0  0  0  0  0  0  0  0  0  0  0  0
   -0.0969    1.6814   -1.1695 C   0  0  0  0  0  0  0  0  0  0  0  0
    0.4479    2.7707   -1.0706 O   0  0  0  0  0  0  0  0  0  0  0  0
   -0.5324    1.2510   -2.4129 N   0  0  0  0  0  0  0  0  0  0  0  0
   -0.8446    0.2874   -2.4869 H   0  0  0  0  0  0  0  0  0  0  0  0
   -0.3000    2.0066   -3.6391 C   0  0  0  0  0  0  0  0  0  0  0  0
    0.7737    2.1165   -3.8247 H   0  0  0  0  0  0  0  0  0  0  0  0
   -0.7480    1.4899   -4.4933 H   0  0  0  0  0  0  0  0  0  0  0  0
   -0.7482    3.0033   -3.5662 H   0  0  0  0  0  0  0  0  0  0  0  0
  1  2  1  0  0  0  0
  2  3  1  0  0  0  0
  2  4  1  0  0  0  0
  2  5  1  0  0  0  0
  5  6  2  0  0  0  0
  5  7  1  0  0  0  0
  7  8  1  0  0  0  0
  7  9  1  0  0  0  0
  9 10  1  0  0  0  0
  9 11  1  0  0  0  0
  9 22  1  0  0  0  0
 11 12  1  0  0  0  0
 11 13  1  0  0  0  0
 11 14  1  0  0  0  0
 14 15  1  0  0  0  0
 14 20  2  0  0  0  0
 15 16  1  0  0  0  0
 15 17  1  0  0  0  0
 17 18  1  0  0  0  0
 17 19  2  0  0  0  0
 19 20  1  0  0  0  0
 20 21  1  0  0  0  0
 22 23  2  0  0  0  0
 22 24  1  0  0  0  0
 24 25  1  0  0  0  0
 24 26  1  0  0  0  0
 26 27  1  0  0  0  0
 26 28  1  0  0  0  0
 26 29  1  0  0  0  0
M  END
$$$$

  -OEChem-01062216083D

 29 29  0     1  0  0  0  0  0999 V2000
   -3.6892   -2.3028    1.1277 H   0  0  0  0  0  0  0  0  0  0  0  0
   -3.4581   -1.4831    0.4411 C   0  0  0  0  0  0  0  0  0  0  0  0
   -4.2768   -0.7600    0.4672 H   0  0  0  0  0  0  0  0  0  0  0  0
   -3.3681   -1.8889   -0.5690 H   0  0  0  0  0  0  0  0  0  0  0  0
   -2.1604   -0.8129    0.8518 C   0  0  0  0  0  0  0  0  0  0  0  0
   -1.6829   -1.0696    1.9398 O   0  0  0  0  0  0  0  0  0  0  0  0
   -1.6671    0.2273    0.0886 N   0  0  0  0  0  0  0  0  0  0  0  0
   -2.2793    0.5269   -0.6640 H   0  0  0  0  0  0  0  0  0  0  0  0
   -0.2984    0.8021    0.0917 C   0  0  1  0  0  0  0  0  0  0  0  0
   -0.1670    1.4096    0.9932 H   0  0  0  0  0  0  0  0  0  0  0  0
    0.8863   -0.1998   -0.0407 C   0  0  0  0  0  0  0  0  0  0  0  0
    0.7633   -0.7576   -0.9751 H   0  0  0  0  0  0  0  0  0  0  0  0
    1.8193    0.3690   -0.1260 H   0  0  0  0  0  0  0  0  0  0  0  0
    1.0805   -1.1982    1.0669 C   0  0  0  0  0  0  0  0  0  0  0  0
    1.5940   -0.9671    2.3227 N   0  0  0  0  0  0  0  0  0  0  0  0
    1.7932   -0.0582    2.7336 H   0  0  0  0  0  0  0  0  0  0  0  0
    1.6911   -2.1782    2.9820 C   0  0  0  0  0  0  0  0  0  0  0  0
    2.0376   -2.3038    4.0036 H   0  0  0  0  0  0  0  0  0  0  0  0
    1.3184   -3.1591    2.1949 N   0  0  0  0  0  0  0  0  0  0  0  0
    0.9314   -2.5598    1.0014 C   0  0  0  0  0  0  0  0  0  0  0  0
    0.5840   -3.1014    0.1271 H   0  0  0  0  0  0  0  0  0  0  0  0
   -0.1055    1.6845   -1.1604 C   0  0  0  0  0  0  0  0  0  0  0  0
    0.6338    2.6567   -1.1112 O   0  0  0  0  0  0  0  0  0  0  0  0
   -0.7774    1.4062   -2.3407 N   0  0  0  0  0  0  0  0  0  0  0  0
   -1.2210    0.4961   -2.4126 H   0  0  0  0  0  0  0  0  0  0  0  0
   -0.5700    2.1741   -3.5638 C   0  0  0  0  0  0  0  0  0  0  0  0
    0.4648    2.0743   -3.9083 H   0  0  0  0  0  0  0  0  0  0  0  0
   -1.2360    1.8148   -4.3542 H   0  0  0  0  0  0  0  0  0  0  0  0
   -0.7829    3.2348   -3.3919 H   0  0  0  0  0  0  0  0  0  0  0  0
  1  2  1  0  0  0  0
  2  3  1  0  0  0  0
  2  4  1  0  0  0  0
  2  5  1  0  0  0  0
  5  6  2  0  0  0  0
  5  7  1  0  0  0  0
  7  8  1  0  0  0  0
  7  9  1  0  0  0  0
  9 10  1  0  0  0  0
  9 11  1  0  0  0  0
  9 22  1  0  0  0  0
 11 12  1  0  0  0  0
 11 13  1  0  0  0  0
 11 14  1  0  0  0  0
 14 15  1  0  0  0  0
 14 20  2  0  0  0  0
 15 16  1  0  0  0  0
 15 17  1  0  0  0  0
 17 18  1  0  0  0  0
 17 19  2  0  0  0  0
 19 20  1  0  0  0  0
 20 21  1  0  0  0  0
 22 23  2  0  0  0  0
 22 24  1  0  0  0  0
 24 25  1  0  0  0  0
 24 26  1  0  0  0  0
 26 27  1  0  0  0  0
 26 28  1  0  0  0  0
 26 29  1  0  0  0  0
M  END
$$$$

  -OEChem-01062216083D

 29 29  0     1  0  0  0  0  0999 V2000
   -3.6532   -2.3279    1.1860 H   0  0  0  0  0  0  0  0  0  0  0  0
   -3.4282   -1.5255    0.4772 C   0  0  0  0  0  0  0  0  0  0  0  0
   -4.2614   -0.8187    0.4695 H   0  0  0  0  0  0  0  0  0  0  0  0
   -3.3157   -1.9614   -0.5181 H   0  0  0  0  0  0  0  0  0  0  0  0
   -2.1492   -0.8179    0.8837 C   0  0  0  0  0  0  0  0  0  0  0  0
   -1.6789   -1.0361    1.9833 O   0  0  0  0  0  0  0  0  0  0  0  0
   -1.6729    0.2200    0.1064 N   0  0  0  0  0  0  0  0  0  0  0  0
   -2.2983    0.5096   -0.6373 H   0  0  0  0  0  0  0  0  0  0  0  0
   -0.3070    0.8049    0.0937 C   0  0  1  0  0  0  0  0  0  0  0  0
   -0.1678    1.4142    0.9926 H   0  0  0  0  0  0  0  0  0  0  0  0
    0.8681   -0.2112   -0.0420 C   0  0  0  0  0  0  0  0  0  0  0  0
    0.7294   -0.7727   -0.9720 H   0  0  0  0  0  0  0  0  0  0  0  0
    1.8085    0.3431   -0.1387 H   0  0  0  0  0  0  0  0  0  0  0  0
    1.0661   -1.2043    1.0703 C   0  0  0  0  0  0  0  0  0  0  0  0
    1.5951   -0.9738    2.3200 N   0  0  0  0  0  0  0  0  0  0  0  0
    1.8131   -0.0658    2.7234 H   0  0  0  0  0  0  0  0  0  0  0  0
    1.6821   -2.1832    2.9843 C   0  0  0  0  0  0  0  0  0  0  0  0
    2.0345   -2.3085    4.0040 H   0  0  0  0  0  0  0  0  0  0  0  0
    1.2898   -3.1632    2.2054 N   0  0  0  0  0  0  0  0  0  0  0  0
    0.9006   -2.5643    1.0125 C   0  0  0  0  0  0  0  0  0  0  0  0
    0.5368   -3.1044    0.1440 H   0  0  0  0  0  0  0  0  0  0  0  0
   -0.1083    1.6863   -1.1633 C   0  0  0  0  0  0  0  0  0  0  0  0
    0.7888    2.5175   -1.1830 O   0  0  0  0  0  0  0  0  0  0  0  0
   -0.9736    1.6198   -2.2456 N   0  0  0  0  0  0  0  0  0  0  0  0
   -1.5724    0.8043   -2.3067 H   0  0  0  0  0  0  0  0  0  0  0  0
   -0.7950    2.4305   -3.4460 C   0  0  0  0  0  0  0  0  0  0  0  0
    0.1488    2.1798   -3.9418 H   0  0  0  0  0  0  0  0  0  0  0  0
   -1.6147    2.2523   -4.1488 H   0  0  0  0  0  0  0  0  0  0  0  0
   -0.7870    3.4961   -3.1924 H   0  0  0  0  0  0  0  0  0  0  0  0
  1  2  1  0  0  0  0
  2  3  1  0  0  0  0
  2  4  1  0  0  0  0
  2  5  1  0  0  0  0
  5  6  2  0  0  0  0
  5  7  1  0  0  0  0
  7  8  1  0  0  0  0
  7  9  1  0  0  0  0
  9 10  1  0  0  0  0
  9 11  1  0  0  0  0
  9 22  1  0  0  0  0
 11 12  1  0  0  0  0
 11 13  1  0  0  0  0
 11 14  1  0  0  0  0
 14 15  1  0  0  0  0
 14 20  2  0  0  0  0
 15 16  1  0  0  0  0
 15 17  1  0  0  0  0
 17 18  1  0  0  0  0
 17 19  2  0  0  0  0
 19 20  1  0  0  0  0
 20 21  1  0  0  0  0
 22 23  2  0  0  0  0
 22 24  1  0  0  0  0
 24 25  1  0  0  0  0
 24 26  1  0  0  0  0
 26 27  1  0  0  0  0
 26 28  1  0  0  0  0
 26 29  1  0  0  0  0
M  END
$$$$

  -OEChem-01062216083D

 29 29  0     1  0  0  0  0  0999 V2000
   -3.2662   -2.4533    1.2822 H   0  0  0  0  0  0  0  0  0  0  0  0
   -3.1126   -1.6960    0.5078 C   0  0  0  0  0  0  0  0  0  0  0  0
   -4.0628   -1.1936    0.3117 H   0  0  0  0  0  0  0  0  0  0  0  0
   -2.7729   -2.1936   -0.4036 H   0  0  0  0  0  0  0  0  0  0  0  0
   -2.0763   -0.6890    0.9685 C   0  0  0  0  0  0  0  0  0  0  0  0
   -1.7411   -0.6556    2.1391 O   0  0  0  0  0  0  0  0  0  0  0  0
   -1.6733    0.3280    0.1270 N   0  0  0  0  0  0  0  0  0  0  0  0
   -2.1194    0.2446   -0.7798 H   0  0  0  0  0  0  0  0  0  0  0  0
   -0.2791    0.8379    0.0599 C   0  0  1  0  0  0  0  0  0  0  0  0
   -0.0741    1.4488    0.9448 H   0  0  0  0  0  0  0  0  0  0  0  0
    0.8133   -0.2712   -0.0807 C   0  0  0  0  0  0  0  0  0  0  0  0
    0.6107   -0.8415   -0.9933 H   0  0  0  0  0  0  0  0  0  0  0  0
    1.7946    0.1988   -0.2081 H   0  0  0  0  0  0  0  0  0  0  0  0
    0.9552   -1.2395    1.0636 C   0  0  0  0  0  0  0  0  0  0  0  0
    1.5290   -1.0112    2.2936 N   0  0  0  0  0  0  0  0  0  0  0  0
    1.8289   -0.1107    2.6599 H   0  0  0  0  0  0  0  0  0  0  0  0
    1.5225   -2.1977    3.0032 C   0  0  0  0  0  0  0  0  0  0  0  0
    1.8812   -2.3158    4.0215 H   0  0  0  0  0  0  0  0  0  0  0  0
    1.0296   -3.1666    2.2684 N   0  0  0  0  0  0  0  0  0  0  0  0
    0.6784   -2.5825    1.0575 C   0  0  0  0  0  0  0  0  0  0  0  0
    0.2564   -3.1222    0.2152 H   0  0  0  0  0  0  0  0  0  0  0  0
   -0.0909    1.7059   -1.2146 C   0  0  0  0  0  0  0  0  0  0  0  0
    1.0024    2.1814   -1.4917 O   0  0  0  0  0  0  0  0  0  0  0  0
   -1.1366    1.9182   -2.1015 N   0  0  0  0  0  0  0  0  0  0  0  0
   -2.0707    1.7750   -1.7328 H   0  0  0  0  0  0  0  0  0  0  0  0
   -1.0004    2.7641   -3.2837 C   0  0  0  0  0  0  0  0  0  0  0  0
   -0.1993    2.3928   -3.9318 H   0  0  0  0  0  0  0  0  0  0  0  0
   -1.9319    2.7651   -3.8580 H   0  0  0  0  0  0  0  0  0  0  0  0
   -0.7692    3.7947   -2.9943 H   0  0  0  0  0  0  0  0  0  0  0  0
  1  2  1  0  0  0  0
  2  3  1  0  0  0  0
  2  4  1  0  0  0  0
  2  5  1  0  0  0  0
  5  6  2  0  0  0  0
  5  7  1  0  0  0  0
  7  8  1  0  0  0  0
  7  9  1  0  0  0  0
  9 10  1  0  0  0  0
  9 11  1  0  0  0  0
  9 22  1  0  0  0  0
 11 12  1  0  0  0  0
 11 13  1  0  0  0  0
 11 14  1  0  0  0  0
 14 15  1  0  0  0  0
 14 20  2  0  0  0  0
 15 16  1  0  0  0  0
 15 17  1  0  0  0  0
 17 18  1  0  0  0  0
 17 19  2  0  0  0  0
 19 20  1  0  0  0  0
 20 21  1  0  0  0  0
 22 23  2  0  0  0  0
 22 24  1  0  0  0  0
 24 25  1  0  0  0  0
 24 26  1  0  0  0  0
 26 27  1  0  0  0  0
 26 28  1  0  0  0  0
 26 29  1  0  0  0  0
M  END
$$$$

  -OEChem-01062216083D

 29 29  0     1  0  0  0  0  0999 V2000
   -3.2720   -2.4448    1.2486 H   0  0  0  0  0  0  0  0  0  0  0  0
   -3.1111   -1.6818    0.4814 C   0  0  0  0  0  0  0  0  0  0  0  0
   -4.0569   -1.1702    0.2884 H   0  0  0  0  0  0  0  0  0  0  0  0
   -2.7734   -2.1735   -0.4340 H   0  0  0  0  0  0  0  0  0  0  0  0
   -2.0683   -0.6871    0.9531 C   0  0  0  0  0  0  0  0  0  0  0  0
   -1.7418   -0.6601    2.1264 O   0  0  0  0  0  0  0  0  0  0  0  0
   -1.6525    0.3325    0.1216 N   0  0  0  0  0  0  0  0  0  0  0  0
   -2.0986    0.2701   -0.7888 H   0  0  0  0  0  0  0  0  0  0  0  0
   -0.2551    0.8335    0.0603 C   0  0  1  0  0  0  0  0  0  0  0  0
   -0.0499    1.4464    0.9437 H   0  0  0  0  0  0  0  0  0  0  0  0
    0.8328   -0.2821   -0.0706 C   0  0  0  0  0  0  0  0  0  0  0  0
    0.6337   -0.8520   -0.9844 H   0  0  0  0  0  0  0  0  0  0  0  0
    1.8168    0.1843   -0.1898 H   0  0  0  0  0  0  0  0  0  0  0  0
    0.9654   -1.2489    1.0760 C   0  0  0  0  0  0  0  0  0  0  0  0
    1.5344   -1.0237    2.3088 N   0  0  0  0  0  0  0  0  0  0  0  0
    1.8409   -0.1259    2.6756 H   0  0  0  0  0  0  0  0  0  0  0  0
    1.5198   -2.2106    3.0177 C   0  0  0  0  0  0  0  0  0  0  0  0
    1.8754   -2.3310    4.0370 H   0  0  0  0  0  0  0  0  0  0  0  0
    1.0241   -3.1766    2.2811 N   0  0  0  0  0  0  0  0  0  0  0  0
    0.6796   -2.5900    1.0695 C   0  0  0  0  0  0  0  0  0  0  0  0
    0.2553   -3.1269    0.2267 H   0  0  0  0  0  0  0  0  0  0  0  0
   -0.0917    1.7046   -1.2175 C   0  0  0  0  0  0  0  0  0  0  0  0
    1.0091    1.9891   -1.6716 O   0  0  0  0  0  0  0  0  0  0  0  0
   -1.2116    2.1559   -1.9001 N   0  0  0  0  0  0  0  0  0  0  0  0
   -2.0867    2.1291   -1.3845 H   0  0  0  0  0  0  0  0  0  0  0  0
   -1.1277    3.0396   -3.0588 C   0  0  0  0  0  0  0  0  0  0  0  0
   -0.5376    2.5739   -3.8553 H   0  0  0  0  0  0  0  0  0  0  0  0
   -2.1285    3.2461   -3.4505 H   0  0  0  0  0  0  0  0  0  0  0  0
   -0.6588    3.9904   -2.7838 H   0  0  0  0  0  0  0  0  0  0  0  0
  1  2  1  0  0  0  0
  2  3  1  0  0  0  0
  2  4  1  0  0  0  0
  2  5  1  0  0  0  0
  5  6  2  0  0  0  0
  5  7  1  0  0  0  0
  7  8  1  0  0  0  0
  7  9  1  0  0  0  0
  9 10  1  0  0  0  0
  9 11  1  0  0  0  0
  9 22  1  0  0  0  0
 11 12  1  0  0  0  0
 11 13  1  0  0  0  0
 11 14  1  0  0  0  0
 14 15  1  0  0  0  0
 14 20  2  0  0  0  0
 15 16  1  0  0  0  0
 15 17  1  0  0  0  0
 17 18  1  0  0  0  0
 17 19  2  0  0  0  0
 19 20  1  0  0  0  0
 20 21  1  0  0  0  0
 22 23  2  0  0  0  0
 22 24  1  0  0  0  0
 24 25  1  0  0  0  0
 24 26  1  0  0  0  0
 26 27  1  0  0  0  0
 26 28  1  0  0  0  0
 26 29  1  0  0  0  0
M  END
$$$$

  -OEChem-01062216083D

 29 29  0     1  0  0  0  0  0999 V2000
   -3.3094   -2.4269    1.2101 H   0  0  0  0  0  0  0  0  0  0  0  0
   -3.1276   -1.6622    0.4493 C   0  0  0  0  0  0  0  0  0  0  0  0
   -4.0613   -1.1304    0.2528 H   0  0  0  0  0  0  0  0  0  0  0  0
   -2.7930   -2.1539   -0.4672 H   0  0  0  0  0  0  0  0  0  0  0  0
   -2.0676   -0.6925    0.9348 C   0  0  0  0  0  0  0  0  0  0  0  0
   -1.7408   -0.6864    2.1083 O   0  0  0  0  0  0  0  0  0  0  0  0
   -1.6374    0.3333    0.1189 N   0  0  0  0  0  0  0  0  0  0  0  0
   -2.0963    0.3112   -0.7880 H   0  0  0  0  0  0  0  0  0  0  0  0
   -0.2376    0.8242    0.0617 C   0  0  1  0  0  0  0  0  0  0  0  0
   -0.0318    1.4342    0.9467 H   0  0  0  0  0  0  0  0  0  0  0  0
    0.8499   -0.2917   -0.0621 C   0  0  0  0  0  0  0  0  0  0  0  0
    0.6539   -0.8643   -0.9748 H   0  0  0  0  0  0  0  0  0  0  0  0
    1.8328    0.1770   -0.1806 H   0  0  0  0  0  0  0  0  0  0  0  0
    0.9780   -1.2560    1.0873 C   0  0  0  0  0  0  0  0  0  0  0  0
    1.5427   -1.0276    2.3217 N   0  0  0  0  0  0  0  0  0  0  0  0
    1.8481   -0.1292    2.6877 H   0  0  0  0  0  0  0  0  0  0  0  0
    1.5298   -2.2138    3.0317 C   0  0  0  0  0  0  0  0  0  0  0  0
    1.8845   -2.3323    4.0515 H   0  0  0  0  0  0  0  0  0  0  0  0
    1.0379   -3.1818    2.2955 N   0  0  0  0  0  0  0  0  0  0  0  0
    0.6942   -2.5977    1.0820 C   0  0  0  0  0  0  0  0  0  0  0  0
    0.2743   -3.1369    0.2382 H   0  0  0  0  0  0  0  0  0  0  0  0
   -0.0957    1.7049   -1.2118 C   0  0  0  0  0  0  0  0  0  0  0  0
    0.9454    1.7883   -1.8509 O   0  0  0  0  0  0  0  0  0  0  0  0
   -1.1988    2.4031   -1.6765 N   0  0  0  0  0  0  0  0  0  0  0  0
   -1.9917    2.4651   -1.0429 H   0  0  0  0  0  0  0  0  0  0  0  0
   -1.1469    3.3127   -2.8163 C   0  0  0  0  0  0  0  0  0  0  0  0
   -0.8134    2.7837   -3.7155 H   0  0  0  0  0  0  0  0  0  0  0  0
   -2.1390    3.7306   -3.0126 H   0  0  0  0  0  0  0  0  0  0  0  0
   -0.4555    4.1383   -2.6169 H   0  0  0  0  0  0  0  0  0  0  0  0
  1  2  1  0  0  0  0
  2  3  1  0  0  0  0
  2  4  1  0  0  0  0
  2  5  1  0  0  0  0
  5  6  2  0  0  0  0
  5  7  1  0  0  0  0
  7  8  1  0  0  0  0
  7  9  1  0  0  0  0
  9 10  1  0  0  0  0
  9 11  1  0  0  0  0
  9 22  1  0  0  0  0
 11 12  1  0  0  0  0
 11 13  1  0  0  0  0
 11 14  1  0  0  0  0
 14 15  1  0  0  0  0
 14 20  2  0  0  0  0
 15 16  1  0  0  0  0
 15 17  1  0  0  0  0
 17 18  1  0  0  0  0
 17 19  2  0  0  0  0
 19 20  1  0  0  0  0
 20 21  1  0  0  0  0
 22 23  2  0  0  0  0
 22 24  1  0  0  0  0
 24 25  1  0  0  0  0
 24 26  1  0  0  0  0
 26 27  1  0  0  0  0
 26 28  1  0  0  0  0
 26 29  1  0  0  0  0
M  END
$$$$

  -OEChem-01062216083D

 29 29  0     1  0  0  0  0  0999 V2000
   -3.3518   -2.4107    1.1721 H   0  0  0  0  0  0  0  0  0  0  0  0
   -3.1489   -1.6428    0.4200 C   0  0  0  0  0  0  0  0  0  0  0  0
   -4.0694   -1.0881    0.2242 H   0  0  0  0  0  0  0  0  0  0  0  0
   -2.8210   -2.1330   -0.4997 H   0  0  0  0  0  0  0  0  0  0  0  0
   -2.0695   -0.7017    0.9188 C   0  0  0  0  0  0  0  0  0  0  0  0
   -1.7374   -0.7242    2.0907 O   0  0  0  0  0  0  0  0  0  0  0  0
   -1.6277    0.3321    0.1198 N   0  0  0  0  0  0  0  0  0  0  0  0
   -2.0970    0.3445   -0.7822 H   0  0  0  0  0  0  0  0  0  0  0  0
   -0.2271    0.8171    0.0686 C   0  0  1  0  0  0  0  0  0  0  0  0
   -0.0227    1.4213    0.9577 H   0  0  0  0  0  0  0  0  0  0  0  0
    0.8660   -0.2921   -0.0532 C   0  0  0  0  0  0  0  0  0  0  0  0
    0.6729   -0.8680   -0.9649 H   0  0  0  0  0  0  0  0  0  0  0  0
    1.8444    0.1855   -0.1748 H   0  0  0  0  0  0  0  0  0  0  0  0
    0.9937   -1.2573    1.0955 C   0  0  0  0  0  0  0  0  0  0  0  0
    1.5518   -1.0287    2.3329 N   0  0  0  0  0  0  0  0  0  0  0  0
    1.8528   -0.1300    2.7015 H   0  0  0  0  0  0  0  0  0  0  0  0
    1.5389   -2.2159    3.0413 C   0  0  0  0  0  0  0  0  0  0  0  0
    1.8878   -2.3347    4.0629 H   0  0  0  0  0  0  0  0  0  0  0  0
    1.0546   -3.1846    2.3015 N   0  0  0  0  0  0  0  0  0  0  0  0
    0.7145   -2.5998    1.0871 C   0  0  0  0  0  0  0  0  0  0  0  0
    0.3005   -3.1386    0.2403 H   0  0  0  0  0  0  0  0  0  0  0  0
   -0.0976    1.7101   -1.1953 C   0  0  0  0  0  0  0  0  0  0  0  0
    0.8155    1.6062   -2.0047 O   0  0  0  0  0  0  0  0  0  0  0  0
   -1.0923    2.6382   -1.4527 N   0  0  0  0  0  0  0  0  0  0  0  0
   -1.7925    2.7731   -0.7274 H   0  0  0  0  0  0  0  0  0  0  0  0
   -1.0614    3.5611   -2.5819 C   0  0  0  0  0  0  0  0  0  0  0  0
   -1.0263    3.0097   -3.5274 H   0  0  0  0  0  0  0  0  0  0  0  0
   -1.9581    4.1882   -2.5825 H   0  0  0  0  0  0  0  0  0  0  0  0
   -0.1831    4.2123   -2.5212 H   0  0  0  0  0  0  0  0  0  0  0  0
  1  2  1  0  0  0  0
  2  3  1  0  0  0  0
  2  4  1  0  0  0  0
  2  5  1  0  0  0  0
  5  6  2  0  0  0  0
  5  7  1  0  0  0  0
  7  8  1  0  0  0  0
  7  9  1  0  0  0  0
  9 10  1  0  0  0  0
  9 11  1  0  0  0  0
  9 22  1  0  0  0  0
 11 12  1  0  0  0  0
 11 13  1  0  0  0  0
 11 14  1  0  0  0  0
 14 15  1  0  0  0  0
 14 20  2  0  0  0  0
 15 16  1  0  0  0  0
 15 17  1  0  0  0  0
 17 18  1  0  0  0  0
 17 19  2  0  0  0  0
 19 20  1  0  0  0  0
 20 21  1  0  0  0  0
 22 23  2  0  0  0  0
 22 24  1  0  0  0  0
 24 25  1  0  0  0  0
 24 26  1  0  0  0  0
 26 27  1  0  0  0  0
 26 28  1  0  0  0  0
 26 29  1  0  0  0  0
M  END
$$$$

  -OEChem-01062216083D

 29 29  0     1  0  0  0  0  0999 V2000
   -3.3428   -2.4244    1.1303 H   0  0  0  0  0  0  0  0  0  0  0  0
   -3.1579   -1.6291    0.4023 C   0  0  0  0  0  0  0  0  0  0  0  0
   -4.0825   -1.0678    0.2486 H   0  0  0  0  0  0  0  0  0  0  0  0
   -2.8520   -2.0848   -0.5425 H   0  0  0  0  0  0  0  0  0  0  0  0
   -2.0678   -0.7052    0.9098 C   0  0  0  0  0  0  0  0  0  0  0  0
   -1.7350   -0.7445    2.0811 O   0  0  0  0  0  0  0  0  0  0  0  0
   -1.6200    0.3354    0.1236 N   0  0  0  0  0  0  0  0  0  0  0  0
   -2.0904    0.3654   -0.7775 H   0  0  0  0  0  0  0  0  0  0  0  0
   -0.2206    0.8200    0.0830 C   0  0  1  0  0  0  0  0  0  0  0  0
   -0.0204    1.4170    0.9781 H   0  0  0  0  0  0  0  0  0  0  0  0
    0.8789   -0.2819   -0.0414 C   0  0  0  0  0  0  0  0  0  0  0  0
    0.6882   -0.8596   -0.9526 H   0  0  0  0  0  0  0  0  0  0  0  0
    1.8532    0.2033   -0.1659 H   0  0  0  0  0  0  0  0  0  0  0  0
    1.0047   -1.2538    1.1019 C   0  0  0  0  0  0  0  0  0  0  0  0
    1.5535   -1.0346    2.3454 N   0  0  0  0  0  0  0  0  0  0  0  0
    1.8492   -0.1387    2.7247 H   0  0  0  0  0  0  0  0  0  0  0  0
    1.5355   -2.2274    3.0445 C   0  0  0  0  0  0  0  0  0  0  0  0
    1.8751   -2.3537    4.0683 H   0  0  0  0  0  0  0  0  0  0  0  0
    1.0589   -3.1909    2.2929 N   0  0  0  0  0  0  0  0  0  0  0  0
    0.7271   -2.5967    1.0809 C   0  0  0  0  0  0  0  0  0  0  0  0
    0.3192   -3.1292    0.2272 H   0  0  0  0  0  0  0  0  0  0  0  0
   -0.0912    1.7224   -1.1712 C   0  0  0  0  0  0  0  0  0  0  0  0
    0.6358    1.4594   -2.1213 O   0  0  0  0  0  0  0  0  0  0  0  0
   -0.8978    2.8429   -1.2545 N   0  0  0  0  0  0  0  0  0  0  0  0
   -1.4932    3.0463   -0.4555 H   0  0  0  0  0  0  0  0  0  0  0  0
   -0.8853    3.7680   -2.3818 C   0  0  0  0  0  0  0  0  0  0  0  0
   -1.1586    3.2495   -3.3070 H   0  0  0  0  0  0  0  0  0  0  0  0
   -1.6026    4.5774   -2.2149 H   0  0  0  0  0  0  0  0  0  0  0  0
    0.1099    4.2082   -2.5053 H   0  0  0  0  0  0  0  0  0  0  0  0
  1  2  1  0  0  0  0
  2  3  1  0  0  0  0
  2  4  1  0  0  0  0
  2  5  1  0  0  0  0
  5  6  2  0  0  0  0
  5  7  1  0  0  0  0
  7  8  1  0  0  0  0
  7  9  1  0  0  0  0
  9 10  1  0  0  0  0
  9 11  1  0  0  0  0
  9 22  1  0  0  0  0
 11 12  1  0  0  0  0
 11 13  1  0  0  0  0
 11 14  1  0  0  0  0
 14 15  1  0  0  0  0
 14 20  2  0  0  0  0
 15 16  1  0  0  0  0
 15 17  1  0  0  0  0
 17 18  1  0  0  0  0
 17 19  2  0  0  0  0
 19 20  1  0  0  0  0
 20 21  1  0  0  0  0
 22 23  2  0  0  0  0
 22 24  1  0  0  0  0
 24 25  1  0  0  0  0
 24 26  1  0  0  0  0
 26 27  1  0  0  0  0
 26 28  1  0  0  0  0
 26 29  1  0  0  0  0
M  END
$$$$

  -OEChem-01062216083D

 29 29  0     1  0  0  0  0  0999 V2000
   -3.3560   -2.4168    1.1122 H   0  0  0  0  0  0  0  0  0  0  0  0
   -3.1570   -1.6235    0.3860 C   0  0  0  0  0  0  0  0  0  0  0  0
   -4.0772   -1.0595    0.2174 H   0  0  0  0  0  0  0  0  0  0  0  0
   -2.8379   -2.0812   -0.5534 H   0  0  0  0  0  0  0  0  0  0  0  0
   -2.0713   -0.7029    0.9081 C   0  0  0  0  0  0  0  0  0  0  0  0
   -1.7396   -0.7563    2.0795 O   0  0  0  0  0  0  0  0  0  0  0  0
   -1.6199    0.3445    0.1332 N   0  0  0  0  0  0  0  0  0  0  0  0
   -2.0810    0.3805   -0.7728 H   0  0  0  0  0  0  0  0  0  0  0  0
   -0.2223    0.8292    0.1071 C   0  0  1  0  0  0  0  0  0  0  0  0
   -0.0291    1.4145    1.0112 H   0  0  0  0  0  0  0  0  0  0  0  0
    0.8826   -0.2657   -0.0238 C   0  0  0  0  0  0  0  0  0  0  0  0
    0.6968   -0.8388   -0.9392 H   0  0  0  0  0  0  0  0  0  0  0  0
    1.8533    0.2268   -0.1443 H   0  0  0  0  0  0  0  0  0  0  0  0
    1.0074   -1.2513    1.1078 C   0  0  0  0  0  0  0  0  0  0  0  0
    1.5486   -1.0456    2.3569 N   0  0  0  0  0  0  0  0  0  0  0  0
    1.8348   -0.1530    2.7506 H   0  0  0  0  0  0  0  0  0  0  0  0
    1.5353   -2.2480    3.0394 C   0  0  0  0  0  0  0  0  0  0  0  0
    1.8718   -2.3863    4.0627 H   0  0  0  0  0  0  0  0  0  0  0  0
    1.0676   -3.2039    2.2731 N   0  0  0  0  0  0  0  0  0  0  0  0
    0.7368   -2.5952    1.0679 C   0  0  0  0  0  0  0  0  0  0  0  0
    0.3354   -3.1186    0.2055 H   0  0  0  0  0  0  0  0  0  0  0  0
   -0.0788    1.7414   -1.1358 C   0  0  0  0  0  0  0  0  0  0  0  0
    0.3999    1.3507   -2.1934 O   0  0  0  0  0  0  0  0  0  0  0  0
   -0.6287    3.0095   -1.0929 N   0  0  0  0  0  0  0  0  0  0  0  0
   -1.0933    3.2879   -0.2322 H   0  0  0  0  0  0  0  0  0  0  0  0
   -0.6333    3.9262   -2.2273 C   0  0  0  0  0  0  0  0  0  0  0  0
   -1.2059    3.5035   -3.0595 H   0  0  0  0  0  0  0  0  0  0  0  0
   -1.0890    4.8792   -1.9421 H   0  0  0  0  0  0  0  0  0  0  0  0
    0.3895    4.1213   -2.5667 H   0  0  0  0  0  0  0  0  0  0  0  0
  1  2  1  0  0  0  0
  2  3  1  0  0  0  0
  2  4  1  0  0  0  0
  2  5  1  0  0  0  0
  5  6  2  0  0  0  0
  5  7  1  0  0  0  0
  7  8  1  0  0  0  0
  7  9  1  0  0  0  0
  9 10  1  0  0  0  0
  9 11  1  0  0  0  0
  9 22  1  0  0  0  0
 11 12  1  0  0  0  0
 11 13  1  0  0  0  0
 11 14  1  0  0  0  0
 14 15  1  0  0  0  0
 14 20  2  0  0  0  0
 15 16  1  0  0  0  0
 15 17  1  0  0  0  0
 17 18  1  0  0  0  0
 17 19  2  0  0  0  0
 19 20  1  0  0  0  0
 20 21  1  0  0  0  0
 22 23  2  0  0  0  0
 22 24  1  0  0  0  0
 24 25  1  0  0  0  0
 24 26  1  0  0  0  0
 26 27  1  0  0  0  0
 26 28  1  0  0  0  0
 26 29  1  0  0  0  0
M  END
$$$$

  -OEChem-01062216083D

 29 29  0     1  0  0  0  0  0999 V2000
   -3.3439   -2.4196    1.0950 H   0  0  0  0  0  0  0  0  0  0  0  0
   -3.1514   -1.6169    0.3772 C   0  0  0  0  0  0  0  0  0  0  0  0
   -4.0746   -1.0549    0.2180 H   0  0  0  0  0  0  0  0  0  0  0  0
   -2.8336   -2.0620   -0.5687 H   0  0  0  0  0  0  0  0  0  0  0  0
   -2.0683   -0.6972    0.9067 C   0  0  0  0  0  0  0  0  0  0  0  0
   -1.7394   -0.7559    2.0791 O   0  0  0  0  0  0  0  0  0  0  0  0
   -1.6117    0.3509    0.1364 N   0  0  0  0  0  0  0  0  0  0  0  0
   -2.0567    0.3823   -0.7783 H   0  0  0  0  0  0  0  0  0  0  0  0
   -0.2160    0.8366    0.1271 C   0  0  1  0  0  0  0  0  0  0  0  0
   -0.0319    1.4148    1.0375 H   0  0  0  0  0  0  0  0  0  0  0  0
    0.8953   -0.2489   -0.0111 C   0  0  0  0  0  0  0  0  0  0  0  0
    0.7208   -0.8127   -0.9342 H   0  0  0  0  0  0  0  0  0  0  0  0
    1.8644    0.2497   -0.1178 H   0  0  0  0  0  0  0  0  0  0  0  0
    1.0116   -1.2466    1.1102 C   0  0  0  0  0  0  0  0  0  0  0  0
    1.5383   -1.0552    2.3678 N   0  0  0  0  0  0  0  0  0  0  0  0
    1.8155   -0.1668    2.7771 H   0  0  0  0  0  0  0  0  0  0  0  0
    1.5134   -2.2650    3.0368 C   0  0  0  0  0  0  0  0  0  0  0  0
    1.8354   -2.4145    4.0630 H   0  0  0  0  0  0  0  0  0  0  0  0
    1.0552   -3.2121    2.2539 N   0  0  0  0  0  0  0  0  0  0  0  0
    0.7396   -2.5895    1.0519 C   0  0  0  0  0  0  0  0  0  0  0  0
    0.3457   -3.1017    0.1794 H   0  0  0  0  0  0  0  0  0  0  0  0
   -0.0563    1.7477   -1.1110 C   0  0  0  0  0  0  0  0  0  0  0  0
    0.1308    1.2854   -2.2299 O   0  0  0  0  0  0  0  0  0  0  0  0
   -0.3135    3.1008   -0.9880 N   0  0  0  0  0  0  0  0  0  0  0  0
   -0.5893    3.4424   -0.0710 H   0  0  0  0  0  0  0  0  0  0  0  0
   -0.3367    4.0222   -2.1184 C   0  0  0  0  0  0  0  0  0  0  0  0
   -1.1354    3.7519   -2.8171 H   0  0  0  0  0  0  0  0  0  0  0  0
   -0.5124    5.0443   -1.7694 H   0  0  0  0  0  0  0  0  0  0  0  0
    0.6198    4.0003   -2.6515 H   0  0  0  0  0  0  0  0  0  0  0  0
  1  2  1  0  0  0  0
  2  3  1  0  0  0  0
  2  4  1  0  0  0  0
  2  5  1  0  0  0  0
  5  6  2  0  0  0  0
  5  7  1  0  0  0  0
  7  8  1  0  0  0  0
  7  9  1  0  0  0  0
  9 10  1  0  0  0  0
  9 11  1  0  0  0  0
  9 22  1  0  0  0  0
 11 12  1  0  0  0  0
 11 13  1  0  0  0  0
 11 14  1  0  0  0  0
 14 15  1  0  0  0  0
 14 20  2  0  0  0  0
 15 16  1  0  0  0  0
 15 17  1  0  0  0  0
 17 18  1  0  0  0  0
 17 19  2  0  0  0  0
 19 20  1  0  0  0  0
 20 21  1  0  0  0  0
 22 23  2  0  0  0  0
 22 24  1  0  0  0  0
 24 25  1  0  0  0  0
 24 26  1  0  0  0  0
 26 27  1  0  0  0  0
 26 28  1  0  0  0  0
 26 29  1  0  0  0  0
M  END
$$$$

  -OEChem-01062216083D

 29 29  0     1  0  0  0  0  0999 V2000
   -3.3204   -2.4317    1.0776 H   0  0  0  0  0  0  0  0  0  0  0  0
   -3.1473   -1.6126    0.3737 C   0  0  0  0  0  0  0  0  0  0  0  0
   -4.0803   -1.0619    0.2337 H   0  0  0  0  0  0  0  0  0  0  0  0
   -2.8324   -2.0346   -0.5838 H   0  0  0  0  0  0  0  0  0  0  0  0
   -2.0735   -0.6866    0.9111 C   0  0  0  0  0  0  0  0  0  0  0  0
   -1.7470   -0.7477    2.0843 O   0  0  0  0  0  0  0  0  0  0  0  0
   -1.6094    0.3575    0.1403 N   0  0  0  0  0  0  0  0  0  0  0  0
   -2.0384    0.3844   -0.7830 H   0  0  0  0  0  0  0  0  0  0  0  0
   -0.2165    0.8482    0.1483 C   0  0  1  0  0  0  0  0  0  0  0  0
   -0.0427    1.4253    1.0614 H   0  0  0  0  0  0  0  0  0  0  0  0
    0.8986   -0.2302    0.0052 C   0  0  0  0  0  0  0  0  0  0  0  0
    0.7338   -0.7805   -0.9280 H   0  0  0  0  0  0  0  0  0  0  0  0
    1.8668    0.2732   -0.0868 H   0  0  0  0  0  0  0  0  0  0  0  0
    1.0102   -1.2426    1.1144 C   0  0  0  0  0  0  0  0  0  0  0  0
    1.5265   -1.0663    2.3787 N   0  0  0  0  0  0  0  0  0  0  0  0
    1.7979   -0.1830    2.8023 H   0  0  0  0  0  0  0  0  0  0  0  0
    1.5011   -2.2849    3.0317 C   0  0  0  0  0  0  0  0  0  0  0  0
    1.8176   -2.4474    4.0579 H   0  0  0  0  0  0  0  0  0  0  0  0
    1.0503   -3.2225    2.2335 N   0  0  0  0  0  0  0  0  0  0  0  0
    0.7397   -2.5851    1.0378 C   0  0  0  0  0  0  0  0  0  0  0  0
    0.3503   -3.0873    0.1574 H   0  0  0  0  0  0  0  0  0  0  0  0
   -0.0417    1.7493   -1.0926 C   0  0  0  0  0  0  0  0  0  0  0  0
   -0.1180    1.2775   -2.2211 O   0  0  0  0  0  0  0  0  0  0  0  0
    0.0062    3.1235   -0.9445 N   0  0  0  0  0  0  0  0  0  0  0  0
   -0.0699    3.4967   -0.0021 H   0  0  0  0  0  0  0  0  0  0  0  0
    0.0036    4.0518   -2.0696 C   0  0  0  0  0  0  0  0  0  0  0  0
   -0.9276    3.9620   -2.6387 H   0  0  0  0  0  0  0  0  0  0  0  0
    0.0923    5.0817   -1.7106 H   0  0  0  0  0  0  0  0  0  0  0  0
    0.8463    3.8470   -2.7384 H   0  0  0  0  0  0  0  0  0  0  0  0
  1  2  1  0  0  0  0
  2  3  1  0  0  0  0
  2  4  1  0  0  0  0
  2  5  1  0  0  0  0
  5  6  2  0  0  0  0
  5  7  1  0  0  0  0
  7  8  1  0  0  0  0
  7  9  1  0  0  0  0
  9 10  1  0  0  0  0
  9 11  1  0  0  0  0
  9 22  1  0  0  0  0
 11 12  1  0  0  0  0
 11 13  1  0  0  0  0
 11 14  1  0  0  0  0
 14 15  1  0  0  0  0
 14 20  2  0  0  0  0
 15 16  1  0  0  0  0
 15 17  1  0  0  0  0
 17 18  1  0  0  0  0
 17 19  2  0  0  0  0
 19 20  1  0  0  0  0
 20 21  1  0  0  0  0
 22 23  2  0  0  0  0
 22 24  1  0  0  0  0
 24 25  1  0  0  0  0
 24 26  1  0  0  0  0
 26 27  1  0  0  0  0
 26 28  1  0  0  0  0
 26 29  1  0  0  0  0
M  END
$$$$

  -OEChem-01062216083D

 29 29  0     1  0  0  0  0  0999 V2000
   -3.3806   -2.3990    1.0992 H   0  0  0  0  0  0  0  0  0  0  0  0
   -3.1762   -1.6007    0.3801 C   0  0  0  0  0  0  0  0  0  0  0  0
   -4.0912   -1.0260    0.2187 H   0  0  0  0  0  0  0  0  0  0  0  0
   -2.8641   -2.0520   -0.5647 H   0  0  0  0  0  0  0  0  0  0  0  0
   -2.0809   -0.6949    0.9088 C   0  0  0  0  0  0  0  0  0  0  0  0
   -1.7422   -0.7681    2.0781 O   0  0  0  0  0  0  0  0  0  0  0  0
   -1.6110    0.3459    0.1371 N   0  0  0  0  0  0  0  0  0  0  0  0
   -2.0356    0.3805   -0.7889 H   0  0  0  0  0  0  0  0  0  0  0  0
   -0.2239    0.8514    0.1590 C   0  0  1  0  0  0  0  0  0  0  0  0
   -0.0655    1.4321    1.0726 H   0  0  0  0  0  0  0  0  0  0  0  0
    0.9037   -0.2113    0.0135 C   0  0  0  0  0  0  0  0  0  0  0  0
    0.7522   -0.7509   -0.9283 H   0  0  0  0  0  0  0  0  0  0  0  0
    1.8675    0.3031   -0.0632 H   0  0  0  0  0  0  0  0  0  0  0  0
    1.0180   -1.2320    1.1142 C   0  0  0  0  0  0  0  0  0  0  0  0
    1.5218   -1.0636    2.3845 N   0  0  0  0  0  0  0  0  0  0  0  0
    1.7675   -0.1805    2.8238 H   0  0  0  0  0  0  0  0  0  0  0  0
    1.5052   -2.2897    3.0238 C   0  0  0  0  0  0  0  0  0  0  0  0
    1.8111   -2.4596    4.0521 H   0  0  0  0  0  0  0  0  0  0  0  0
    1.0763   -3.2244    2.2103 N   0  0  0  0  0  0  0  0  0  0  0  0
    0.7683   -2.5774    1.0192 C   0  0  0  0  0  0  0  0  0  0  0  0
    0.3972   -3.0749    0.1282 H   0  0  0  0  0  0  0  0  0  0  0  0
   -0.0380    1.7424   -1.0865 C   0  0  0  0  0  0  0  0  0  0  0  0
   -0.3275    1.3123   -2.1975 O   0  0  0  0  0  0  0  0  0  0  0  0
    0.3047    3.0748   -0.9467 N   0  0  0  0  0  0  0  0  0  0  0  0
    0.4267    3.4334   -0.0037 H   0  0  0  0  0  0  0  0  0  0  0  0
    0.3640    4.0079   -2.0660 C   0  0  0  0  0  0  0  0  0  0  0  0
   -0.6238    4.1191   -2.5254 H   0  0  0  0  0  0  0  0  0  0  0  0
    0.6983    4.9913   -1.7215 H   0  0  0  0  0  0  0  0  0  0  0  0
    1.0680    3.6518   -2.8257 H   0  0  0  0  0  0  0  0  0  0  0  0
  1  2  1  0  0  0  0
  2  3  1  0  0  0  0
  2  4  1  0  0  0  0
  2  5  1  0  0  0  0
  5  6  2  0  0  0  0
  5  7  1  0  0  0  0
  7  8  1  0  0  0  0
  7  9  1  0  0  0  0
  9 10  1  0  0  0  0
  9 11  1  0  0  0  0
  9 22  1  0  0  0  0
 11 12  1  0  0  0  0
 11 13  1  0  0  0  0
 11 14  1  0  0  0  0
 14 15  1  0  0  0  0
 14 20  2  0  0  0  0
 15 16  1  0  0  0  0
 15 17  1  0  0  0  0
 17 18  1  0  0  0  0
 17 19  2  0  0  0  0
 19 20  1  0  0  0  0
 20 21  1  0  0  0  0
 22 23  2  0  0  0  0
 22 24  1  0  0  0  0
 24 25  1  0  0  0  0
 24 26  1  0  0  0  0
 26 27  1  0  0  0  0
 26 28  1  0  0  0  0
 26 29  1  0  0  0  0
M  END
$$$$

  -OEChem-01062216083D

 29 29  0     1  0  0  0  0  0999 V2000
   -3.4089   -2.3860    1.1077 H   0  0  0  0  0  0  0  0  0  0  0  0
   -3.1894   -1.5969    0.3830 C   0  0  0  0  0  0  0  0  0  0  0  0
   -4.0959   -1.0123    0.2098 H   0  0  0  0  0  0  0  0  0  0  0  0
   -2.8767   -2.0603   -0.5556 H   0  0  0  0  0  0  0  0  0  0  0  0
   -2.0867   -0.6995    0.9106 C   0  0  0  0  0  0  0  0  0  0  0  0
   -1.7414   -0.7806    2.0774 O   0  0  0  0  0  0  0  0  0  0  0  0
   -1.6133    0.3384    0.1374 N   0  0  0  0  0  0  0  0  0  0  0  0
   -2.0398    0.3828   -0.7879 H   0  0  0  0  0  0  0  0  0  0  0  0
   -0.2320    0.8594    0.1643 C   0  0  1  0  0  0  0  0  0  0  0  0
   -0.0823    1.4447    1.0764 H   0  0  0  0  0  0  0  0  0  0  0  0
    0.9014   -0.1959    0.0161 C   0  0  0  0  0  0  0  0  0  0  0  0
    0.7513   -0.7306   -0.9289 H   0  0  0  0  0  0  0  0  0  0  0  0
    1.8636    0.3220   -0.0578 H   0  0  0  0  0  0  0  0  0  0  0  0
    1.0213   -1.2211    1.1115 C   0  0  0  0  0  0  0  0  0  0  0  0
    1.5230   -1.0568    2.3832 N   0  0  0  0  0  0  0  0  0  0  0  0
    1.7645   -0.1750    2.8274 H   0  0  0  0  0  0  0  0  0  0  0  0
    1.5099   -2.2861    3.0162 C   0  0  0  0  0  0  0  0  0  0  0  0
    1.8151   -2.4603    4.0439 H   0  0  0  0  0  0  0  0  0  0  0  0
    1.0851   -3.2181    2.1974 N   0  0  0  0  0  0  0  0  0  0  0  0
    0.7753   -2.5664    1.0096 C   0  0  0  0  0  0  0  0  0  0  0  0
    0.4047   -3.0598    0.1163 H   0  0  0  0  0  0  0  0  0  0  0  0
   -0.0410    1.7423   -1.0864 C   0  0  0  0  0  0  0  0  0  0  0  0
   -0.5055    1.3853   -2.1641 O   0  0  0  0  0  0  0  0  0  0  0  0
    0.5789    2.9748   -0.9889 N   0  0  0  0  0  0  0  0  0  0  0  0
    0.8752    3.2835   -0.0673 H   0  0  0  0  0  0  0  0  0  0  0  0
    0.7130    3.8922   -2.1145 C   0  0  0  0  0  0  0  0  0  0  0  0
   -0.2730    4.1991   -2.4788 H   0  0  0  0  0  0  0  0  0  0  0  0
    1.2634    4.7875   -1.8097 H   0  0  0  0  0  0  0  0  0  0  0  0
    1.2592    3.4150   -2.9351 H   0  0  0  0  0  0  0  0  0  0  0  0
  1  2  1  0  0  0  0
  2  3  1  0  0  0  0
  2  4  1  0  0  0  0
  2  5  1  0  0  0  0
  5  6  2  0  0  0  0
  5  7  1  0  0  0  0
  7  8  1  0  0  0  0
  7  9  1  0  0  0  0
  9 10  1  0  0  0  0
  9 11  1  0  0  0  0
  9 22  1  0  0  0  0
 11 12  1  0  0  0  0
 11 13  1  0  0  0  0
 11 14  1  0  0  0  0
 14 15  1  0  0  0  0
 14 20  2  0  0  0  0
 15 16  1  0  0  0  0
 15 17  1  0  0  0  0
 17 18  1  0  0  0  0
 17 19  2  0  0  0  0
 19 20  1  0  0  0  0
 20 21  1  0  0  0  0
 22 23  2  0  0  0  0
 22 24  1  0  0  0  0
 24 25  1  0  0  0  0
 24 26  1  0  0  0  0
 26 27  1  0  0  0  0
 26 28  1  0  0  0  0
 26 29  1  0  0  0  0
M  END
$$$$

  -OEChem-01062216083D

 29 29  0     1  0  0  0  0  0999 V2000
   -3.4253   -2.3880    1.0935 H   0  0  0  0  0  0  0  0  0  0  0  0
   -3.2149   -1.5854    0.3811 C   0  0  0  0  0  0  0  0  0  0  0  0
   -4.1193   -0.9885    0.2418 H   0  0  0  0  0  0  0  0  0  0  0  0
   -2.9276   -2.0307   -0.5743 H   0  0  0  0  0  0  0  0  0  0  0  0
   -2.0923   -0.7096    0.9019 C   0  0  0  0  0  0  0  0  0  0  0  0
   -1.7355   -0.8064    2.0640 O   0  0  0  0  0  0  0  0  0  0  0  0
   -1.6143    0.3267    0.1295 N   0  0  0  0  0  0  0  0  0  0  0  0
   -2.0542    0.3965   -0.7885 H   0  0  0  0  0  0  0  0  0  0  0  0
   -0.2385    0.8627    0.1585 C   0  0  1  0  0  0  0  0  0  0  0  0
   -0.0968    1.4542    1.0678 H   0  0  0  0  0  0  0  0  0  0  0  0
    0.9004   -0.1874    0.0148 C   0  0  0  0  0  0  0  0  0  0  0  0
    0.7541   -0.7222   -0.9308 H   0  0  0  0  0  0  0  0  0  0  0  0
    1.8605    0.3342   -0.0570 H   0  0  0  0  0  0  0  0  0  0  0  0
    1.0271   -1.2116    1.1109 C   0  0  0  0  0  0  0  0  0  0  0  0
    1.5279   -1.0437    2.3829 N   0  0  0  0  0  0  0  0  0  0  0  0
    1.7570   -0.1597    2.8294 H   0  0  0  0  0  0  0  0  0  0  0  0
    1.5261   -2.2732    3.0156 C   0  0  0  0  0  0  0  0  0  0  0  0
    1.8333   -2.4448    4.0431 H   0  0  0  0  0  0  0  0  0  0  0  0
    1.1102   -3.2088    2.1965 N   0  0  0  0  0  0  0  0  0  0  0  0
    0.7929   -2.5593    1.0093 C   0  0  0  0  0  0  0  0  0  0  0  0
    0.4268   -3.0573    0.1165 H   0  0  0  0  0  0  0  0  0  0  0  0
   -0.0426    1.7416   -1.0966 C   0  0  0  0  0  0  0  0  0  0  0  0
   -0.6672    1.4952   -2.1235 O   0  0  0  0  0  0  0  0  0  0  0  0
    0.8230    2.8206   -1.0727 N   0  0  0  0  0  0  0  0  0  0  0  0
    1.2839    3.0386   -0.1938 H   0  0  0  0  0  0  0  0  0  0  0  0
    1.0192    3.7129   -2.2095 C   0  0  0  0  0  0  0  0  0  0  0  0
    0.0786    4.2063   -2.4763 H   0  0  0  0  0  0  0  0  0  0  0  0
    1.7560    4.4834   -1.9631 H   0  0  0  0  0  0  0  0  0  0  0  0
    1.3828    3.1537   -3.0780 H   0  0  0  0  0  0  0  0  0  0  0  0
  1  2  1  0  0  0  0
  2  3  1  0  0  0  0
  2  4  1  0  0  0  0
  2  5  1  0  0  0  0
  5  6  2  0  0  0  0
  5  7  1  0  0  0  0
  7  8  1  0  0  0  0
  7  9  1  0  0  0  0
  9 10  1  0  0  0  0
  9 11  1  0  0  0  0
  9 22  1  0  0  0  0
 11 12  1  0  0  0  0
 11 13  1  0  0  0  0
 11 14  1  0  0  0  0
 14 15  1  0  0  0  0
 14 20  2  0  0  0  0
 15 16  1  0  0  0  0
 15 17  1  0  0  0  0
 17 18  1  0  0  0  0
 17 19  2  0  0  0  0
 19 20  1  0  0  0  0
 20 21  1  0  0  0  0
 22 23  2  0  0  0  0
 22 24  1  0  0  0  0
 24 25  1  0  0  0  0
 24 26  1  0  0  0  0
 26 27  1  0  0  0  0
 26 28  1  0  0  0  0
 26 29  1  0  0  0  0
M  END
$$$$

  -OEChem-01062216083D

 29 29  0     1  0  0  0  0  0999 V2000
   -3.4460   -2.3870    1.0716 H   0  0  0  0  0  0  0  0  0  0  0  0
   -3.2348   -1.5746    0.3705 C   0  0  0  0  0  0  0  0  0  0  0  0
   -4.1334   -0.9643    0.2539 H   0  0  0  0  0  0  0  0  0  0  0  0
   -2.9668   -2.0069   -0.5964 H   0  0  0  0  0  0  0  0  0  0  0  0
   -2.0935   -0.7222    0.8909 C   0  0  0  0  0  0  0  0  0  0  0  0
   -1.7273   -0.8416    2.0477 O   0  0  0  0  0  0  0  0  0  0  0  0
   -1.6087    0.3168    0.1262 N   0  0  0  0  0  0  0  0  0  0  0  0
   -2.0689    0.4234   -0.7786 H   0  0  0  0  0  0  0  0  0  0  0  0
   -0.2373    0.8665    0.1537 C   0  0  1  0  0  0  0  0  0  0  0  0
   -0.0987    1.4599    1.0623 H   0  0  0  0  0  0  0  0  0  0  0  0
    0.9032   -0.1842    0.0129 C   0  0  0  0  0  0  0  0  0  0  0  0
    0.7549   -0.7210   -0.9311 H   0  0  0  0  0  0  0  0  0  0  0  0
    1.8655    0.3323   -0.0602 H   0  0  0  0  0  0  0  0  0  0  0  0
    1.0337   -1.2050    1.1108 C   0  0  0  0  0  0  0  0  0  0  0  0
    1.5371   -1.0305    2.3806 N   0  0  0  0  0  0  0  0  0  0  0  0
    1.7585   -0.1435    2.8250 H   0  0  0  0  0  0  0  0  0  0  0  0
    1.5438   -2.2584    3.0167 C   0  0  0  0  0  0  0  0  0  0  0  0
    1.8558   -2.4253    4.0435 H   0  0  0  0  0  0  0  0  0  0  0  0
    1.1300   -3.1985    2.2017 N   0  0  0  0  0  0  0  0  0  0  0  0
    0.8041   -2.5538    1.0142 C   0  0  0  0  0  0  0  0  0  0  0  0
    0.4359   -3.0546    0.1240 H   0  0  0  0  0  0  0  0  0  0  0  0
   -0.0449    1.7498   -1.1026 C   0  0  0  0  0  0  0  0  0  0  0  0
   -0.8141    1.6479   -2.0534 O   0  0  0  0  0  0  0  0  0  0  0  0
    1.0164    2.6341   -1.1917 N   0  0  0  0  0  0  0  0  0  0  0  0
    1.6246    2.7271   -0.3833 H   0  0  0  0  0  0  0  0  0  0  0  0
    1.2565    3.4830   -2.3531 C   0  0  0  0  0  0  0  0  0  0  0  0
    0.4073    4.1539   -2.5204 H   0  0  0  0  0  0  0  0  0  0  0  0
    2.1526    4.0916   -2.1982 H   0  0  0  0  0  0  0  0  0  0  0  0
    1.4053    2.8722   -3.2498 H   0  0  0  0  0  0  0  0  0  0  0  0
  1  2  1  0  0  0  0
  2  3  1  0  0  0  0
  2  4  1  0  0  0  0
  2  5  1  0  0  0  0
  5  6  2  0  0  0  0
  5  7  1  0  0  0  0
  7  8  1  0  0  0  0
  7  9  1  0  0  0  0
  9 10  1  0  0  0  0
  9 11  1  0  0  0  0
  9 22  1  0  0  0  0
 11 12  1  0  0  0  0
 11 13  1  0  0  0  0
 11 14  1  0  0  0  0
 14 15  1  0  0  0  0
 14 20  2  0  0  0  0
 15 16  1  0  0  0  0
 15 17  1  0  0  0  0
 17 18  1  0  0  0  0
 17 19  2  0  0  0  0
 19 20  1  0  0  0  0
 20 21  1  0  0  0  0
 22 23  2  0  0  0  0
 22 24  1  0  0  0  0
 24 25  1  0  0  0  0
 24 26  1  0  0  0  0
 26 27  1  0  0  0  0
 26 28  1  0  0  0  0
 26 29  1  0  0  0  0
M  END
$$$$
