default_name
  -OEChem-01062215323D

 29 29  0     1  0  0  0  0  0999 V2000
   -3.6042   -3.5728    1.4576 H   0  0  0  0  0  0  0  0  0  0  0  0
   -3.5202   -2.6488    0.8866 C   0  0  0  0  0  0  0  0  0  0  0  0
   -4.2052   -1.9048    1.2896 H   0  0  0  0  0  0  0  0  0  0  0  0
   -3.7552   -2.8428   -0.1584 H   0  0  0  0  0  0  0  0  0  0  0  0
   -2.1052   -2.1358    0.9946 C   0  0  0  0  0  0  0  0  0  0  0  0
   -1.2852   -2.7288    1.6826 O   0  0  0  0  0  0  0  0  0  0  0  0
   -1.8202   -1.0288    0.3146 N   0  0  0  0  0  0  0  0  0  0  0  0
   -2.5542   -0.5788   -0.2104 H   0  0  0  0  0  0  0  0  0  0  0  0
   -0.5102   -0.3728    0.3086 C   0  0  1  0  0  0  0  0  0  0  0  0
   -0.2731   -0.0564    1.3254 H   0  0  0  0  0  0  0  0  0  0  0  0
    0.5597   -1.3857   -0.1392 C   0  0  0  0  0  0  0  0  0  0  0  0
    0.2925   -1.7763   -1.1227 H   0  0  0  0  0  0  0  0  0  0  0  0
    1.5188   -0.8727   -0.2311 H   0  0  0  0  0  0  0  0  0  0  0  0
    0.7268   -2.5455    0.8079 C   0  0  0  0  0  0  0  0  0  0  0  0
    1.3597   -2.5145    2.0320 N   0  0  0  0  0  0  0  0  0  0  0  0
    1.8617   -1.7312    2.4225 H   0  0  0  0  0  0  0  0  0  0  0  0
    1.1964   -3.7141    2.6148 C   0  0  0  0  0  0  0  0  0  0  0  0
    1.5871   -3.9974    3.5844 H   0  0  0  0  0  0  0  0  0  0  0  0
    0.4723   -4.5198    1.8242 N   0  0  0  0  0  0  0  0  0  0  0  0
    0.1716   -3.7899    0.6712 C   0  0  0  0  0  0  0  0  0  0  0  0
   -0.4245   -4.1325   -0.1647 H   0  0  0  0  0  0  0  0  0  0  0  0
   -0.5310    0.8815   -0.5815 C   0  0  0  0  0  0  0  0  0  0  0  0
   -1.5581    1.1977   -1.1814 O   0  0  0  0  0  0  0  0  0  0  0  0
    0.6040    1.5845   -0.6814 N   0  0  0  0  0  0  0  0  0  0  0  0
    1.4185    1.2302   -0.2019 H   0  0  0  0  0  0  0  0  0  0  0  0
    0.7544    2.8001   -1.4769 C   0  0  0  0  0  0  0  0  0  0  0  0
    0.0562    3.5620   -1.1230 H   0  0  0  0  0  0  0  0  0  0  0  0
    1.7730    3.1800   -1.3921 H   0  0  0  0  0  0  0  0  0  0  0  0
    0.5354    2.5874   -2.5244 H   0  0  0  0  0  0  0  0  0  0  0  0
  5  6  2  0  0  0  0
  5  7  1  0  0  0  0
  2  3  1  0  0  0  0
  2  4  1  0  0  0  0
  2  5  1  0  0  0  0
  1  2  1  0  0  0  0
 22 23  2  0  0  0  0
 22 24  1  0  0  0  0
 20 21  1  0  0  0  0
 19 20  1  0  0  0  0
 17 18  1  0  0  0  0
 17 19  2  0  0  0  0
 15 16  1  0  0  0  0
 15 17  1  0  0  0  0
 14 15  1  0  0  0  0
 14 20  2  0  0  0  0
 11 12  1  0  0  0  0
 11 13  1  0  0  0  0
 11 14  1  0  0  0  0
  9 10  1  0  0  0  0
  9 11  1  0  0  0  0
  9 22  1  0  0  0  0
  7  8  1  0  0  0  0
  7  9  1  0  0  0  0
 26 27  1  0  0  0  0
 26 28  1  0  0  0  0
 26 29  1  0  0  0  0
 24 25  1  0  0  0  0
 24 26  1  0  0  0  0
M  END
$$$$
default_name
  -OEChem-01062215323D

 29 29  0     1  0  0  0  0  0999 V2000
   -3.6042   -3.5728    1.4576 H   0  0  0  0  0  0  0  0  0  0  0  0
   -3.5202   -2.6488    0.8866 C   0  0  0  0  0  0  0  0  0  0  0  0
   -4.2052   -1.9048    1.2896 H   0  0  0  0  0  0  0  0  0  0  0  0
   -3.7552   -2.8428   -0.1584 H   0  0  0  0  0  0  0  0  0  0  0  0
   -2.1052   -2.1358    0.9946 C   0  0  0  0  0  0  0  0  0  0  0  0
   -1.2852   -2.7288    1.6826 O   0  0  0  0  0  0  0  0  0  0  0  0
   -1.8202   -1.0288    0.3146 N   0  0  0  0  0  0  0  0  0  0  0  0
   -2.5542   -0.5788   -0.2104 H   0  0  0  0  0  0  0  0  0  0  0  0
   -0.5102   -0.3728    0.3086 C   0  0  1  0  0  0  0  0  0  0  0  0
   -0.2731   -0.0564    1.3254 H   0  0  0  0  0  0  0  0  0  0  0  0
    0.5597   -1.3857   -0.1392 C   0  0  0  0  0  0  0  0  0  0  0  0
    0.2925   -1.7763   -1.1227 H   0  0  0  0  0  0  0  0  0  0  0  0
    1.5188   -0.8727   -0.2311 H   0  0  0  0  0  0  0  0  0  0  0  0
    0.7268   -2.5455    0.8079 C   0  0  0  0  0  0  0  0  0  0  0  0
    1.3597   -2.5145    2.0320 N   0  0  0  0  0  0  0  0  0  0  0  0
    1.8617   -1.7312    2.4225 H   0  0  0  0  0  0  0  0  0  0  0  0
    1.1964   -3.7141    2.6148 C   0  0  0  0  0  0  0  0  0  0  0  0
    1.5871   -3.9974    3.5844 H   0  0  0  0  0  0  0  0  0  0  0  0
    0.4723   -4.5198    1.8242 N   0  0  0  0  0  0  0  0  0  0  0  0
    0.1716   -3.7899    0.6712 C   0  0  0  0  0  0  0  0  0  0  0  0
   -0.4245   -4.1325   -0.1647 H   0  0  0  0  0  0  0  0  0  0  0  0
   -0.5310    0.8815   -0.5815 C   0  0  0  0  0  0  0  0  0  0  0  0
   -1.6027    1.3559   -0.9575 O   0  0  0  0  0  0  0  0  0  0  0  0
    0.6492    1.4073   -0.9322 N   0  0  0  0  0  0  0  0  0  0  0  0
    1.4844    0.9287   -0.6283 H   0  0  0  0  0  0  0  0  0  0  0  0
    0.8080    2.5965   -1.7651 C   0  0  0  0  0  0  0  0  0  0  0  0
    0.3222    3.4500   -1.2870 H   0  0  0  0  0  0  0  0  0  0  0  0
    1.8665    2.8180   -1.9044 H   0  0  0  0  0  0  0  0  0  0  0  0
    0.3433    2.4322   -2.7386 H   0  0  0  0  0  0  0  0  0  0  0  0
  5  6  2  0  0  0  0
  5  7  1  0  0  0  0
  2  3  1  0  0  0  0
  2  4  1  0  0  0  0
  2  5  1  0  0  0  0
  1  2  1  0  0  0  0
 22 23  2  0  0  0  0
 22 24  1  0  0  0  0
 20 21  1  0  0  0  0
 19 20  1  0  0  0  0
 17 18  1  0  0  0  0
 17 19  2  0  0  0  0
 15 16  1  0  0  0  0
 15 17  1  0  0  0  0
 14 15  1  0  0  0  0
 14 20  2  0  0  0  0
 11 12  1  0  0  0  0
 11 13  1  0  0  0  0
 11 14  1  0  0  0  0
  9 10  1  0  0  0  0
  9 11  1  0  0  0  0
  9 22  1  0  0  0  0
  7  8  1  0  0  0  0
  7  9  1  0  0  0  0
 26 27  1  0  0  0  0
 26 28  1  0  0  0  0
 26 29  1  0  0  0  0
 24 25  1  0  0  0  0
 24 26  1  0  0  0  0
M  END
$$$$
default_name
  -OEChem-01062215323D

 29 29  0     1  0  0  0  0  0999 V2000
   -3.6042   -3.5728    1.4576 H   0  0  0  0  0  0  0  0  0  0  0  0
   -3.5202   -2.6488    0.8866 C   0  0  0  0  0  0  0  0  0  0  0  0
   -4.2052   -1.9048    1.2896 H   0  0  0  0  0  0  0  0  0  0  0  0
   -3.7552   -2.8428   -0.1584 H   0  0  0  0  0  0  0  0  0  0  0  0
   -2.1052   -2.1358    0.9946 C   0  0  0  0  0  0  0  0  0  0  0  0
   -1.2852   -2.7288    1.6826 O   0  0  0  0  0  0  0  0  0  0  0  0
   -1.8202   -1.0288    0.3146 N   0  0  0  0  0  0  0  0  0  0  0  0
   -2.5542   -0.5788   -0.2104 H   0  0  0  0  0  0  0  0  0  0  0  0
   -0.5102   -0.3728    0.3086 C   0  0  1  0  0  0  0  0  0  0  0  0
   -0.2731   -0.0564    1.3254 H   0  0  0  0  0  0  0  0  0  0  0  0
    0.5597   -1.3857   -0.1392 C   0  0  0  0  0  0  0  0  0  0  0  0
    0.2925   -1.7763   -1.1227 H   0  0  0  0  0  0  0  0  0  0  0  0
    1.5188   -0.8727   -0.2311 H   0  0  0  0  0  0  0  0  0  0  0  0
    0.7268   -2.5455    0.8079 C   0  0  0  0  0  0  0  0  0  0  0  0
    1.3597   -2.5145    2.0320 N   0  0  0  0  0  0  0  0  0  0  0  0
    1.8617   -1.7312    2.4225 H   0  0  0  0  0  0  0  0  0  0  0  0
    1.1964   -3.7141    2.6148 C   0  0  0  0  0  0  0  0  0  0  0  0
    1.5871   -3.9974    3.5844 H   0  0  0  0  0  0  0  0  0  0  0  0
    0.4723   -4.5198    1.8242 N   0  0  0  0  0  0  0  0  0  0  0  0
    0.1716   -3.7899    0.6712 C   0  0  0  0  0  0  0  0  0  0  0  0
   -0.4245   -4.1325   -0.1647 H   0  0  0  0  0  0  0  0  0  0  0  0
   -0.5310    0.8815   -0.5815 C   0  0  0  0  0  0  0  0  0  0  0  0
   -1.5748    1.5161   -0.7324 O   0  0  0  0  0  0  0  0  0  0  0  0
    0.6134    1.2285   -1.1833 N   0  0  0  0  0  0  0  0  0  0  0  0
    1.4129    0.6262   -1.0530 H   0  0  0  0  0  0  0  0  0  0  0  0
    0.7684    2.3908   -2.0541 C   0  0  0  0  0  0  0  0  0  0  0  0
    0.5277    3.3015   -1.5011 H   0  0  0  0  0  0  0  0  0  0  0  0
    1.7946    2.4526   -2.4177 H   0  0  0  0  0  0  0  0  0  0  0  0
    0.0893    2.3104   -2.9044 H   0  0  0  0  0  0  0  0  0  0  0  0
  5  6  2  0  0  0  0
  5  7  1  0  0  0  0
  2  3  1  0  0  0  0
  2  4  1  0  0  0  0
  2  5  1  0  0  0  0
  1  2  1  0  0  0  0
 22 23  2  0  0  0  0
 22 24  1  0  0  0  0
 20 21  1  0  0  0  0
 19 20  1  0  0  0  0
 17 18  1  0  0  0  0
 17 19  2  0  0  0  0
 15 16  1  0  0  0  0
 15 17  1  0  0  0  0
 14 15  1  0  0  0  0
 14 20  2  0  0  0  0
 11 12  1  0  0  0  0
 11 13  1  0  0  0  0
 11 14  1  0  0  0  0
  9 10  1  0  0  0  0
  9 11  1  0  0  0  0
  9 22  1  0  0  0  0
  7  8  1  0  0  0  0
  7  9  1  0  0  0  0
 26 27  1  0  0  0  0
 26 28  1  0  0  0  0
 26 29  1  0  0  0  0
 24 25  1  0  0  0  0
 24 26  1  0  0  0  0
M  END
$$$$
default_name
  -OEChem-01062215323D

 29 29  0     1  0  0  0  0  0999 V2000
   -3.6042   -3.5728    1.4576 H   0  0  0  0  0  0  0  0  0  0  0  0
   -3.5202   -2.6488    0.8866 C   0  0  0  0  0  0  0  0  0  0  0  0
   -4.2052   -1.9048    1.2896 H   0  0  0  0  0  0  0  0  0  0  0  0
   -3.7552   -2.8428   -0.1584 H   0  0  0  0  0  0  0  0  0  0  0  0
   -2.1052   -2.1358    0.9946 C   0  0  0  0  0  0  0  0  0  0  0  0
   -1.2852   -2.7288    1.6826 O   0  0  0  0  0  0  0  0  0  0  0  0
   -1.8202   -1.0288    0.3146 N   0  0  0  0  0  0  0  0  0  0  0  0
   -2.5542   -0.5788   -0.2104 H   0  0  0  0  0  0  0  0  0  0  0  0
   -0.5102   -0.3728    0.3086 C   0  0  1  0  0  0  0  0  0  0  0  0
   -0.2731   -0.0564    1.3254 H   0  0  0  0  0  0  0  0  0  0  0  0
    0.5597   -1.3857   -0.1392 C   0  0  0  0  0  0  0  0  0  0  0  0
    0.2925   -1.7763   -1.1227 H   0  0  0  0  0  0  0  0  0  0  0  0
    1.5188   -0.8727   -0.2311 H   0  0  0  0  0  0  0  0  0  0  0  0
    0.7268   -2.5455    0.8079 C   0  0  0  0  0  0  0  0  0  0  0  0
    1.3597   -2.5145    2.0320 N   0  0  0  0  0  0  0  0  0  0  0  0
    1.8617   -1.7312    2.4225 H   0  0  0  0  0  0  0  0  0  0  0  0
    1.1964   -3.7141    2.6148 C   0  0  0  0  0  0  0  0  0  0  0  0
    1.5871   -3.9974    3.5844 H   0  0  0  0  0  0  0  0  0  0  0  0
    0.4723   -4.5198    1.8242 N   0  0  0  0  0  0  0  0  0  0  0  0
    0.1716   -3.7899    0.6712 C   0  0  0  0  0  0  0  0  0  0  0  0
   -0.4245   -4.1325   -0.1647 H   0  0  0  0  0  0  0  0  0  0  0  0
   -0.5310    0.8815   -0.5815 C   0  0  0  0  0  0  0  0  0  0  0  0
   -1.4763    1.6674   -0.5214 O   0  0  0  0  0  0  0  0  0  0  0  0
    0.4991    1.0603   -1.4177 N   0  0  0  0  0  0  0  0  0  0  0  0
    1.2089    0.3431   -1.4471 H   0  0  0  0  0  0  0  0  0  0  0  0
    0.6384    2.1970   -2.3242 C   0  0  0  0  0  0  0  0  0  0  0  0
    0.6588    3.1265   -1.7508 H   0  0  0  0  0  0  0  0  0  0  0  0
    1.5620    2.1085   -2.8971 H   0  0  0  0  0  0  0  0  0  0  0  0
   -0.2092    2.2302   -3.0105 H   0  0  0  0  0  0  0  0  0  0  0  0
  5  6  2  0  0  0  0
  5  7  1  0  0  0  0
  2  3  1  0  0  0  0
  2  4  1  0  0  0  0
  2  5  1  0  0  0  0
  1  2  1  0  0  0  0
 22 23  2  0  0  0  0
 22 24  1  0  0  0  0
 20 21  1  0  0  0  0
 19 20  1  0  0  0  0
 17 18  1  0  0  0  0
 17 19  2  0  0  0  0
 15 16  1  0  0  0  0
 15 17  1  0  0  0  0
 14 15  1  0  0  0  0
 14 20  2  0  0  0  0
 11 12  1  0  0  0  0
 11 13  1  0  0  0  0
 11 14  1  0  0  0  0
  9 10  1  0  0  0  0
  9 11  1  0  0  0  0
  9 22  1  0  0  0  0
  7  8  1  0  0  0  0
  7  9  1  0  0  0  0
 26 27  1  0  0  0  0
 26 28  1  0  0  0  0
 26 29  1  0  0  0  0
 24 25  1  0  0  0  0
 24 26  1  0  0  0  0
M  END
$$$$
default_name
  -OEChem-01062215323D

 29 29  0     1  0  0  0  0  0999 V2000
   -3.6042   -3.5728    1.4576 H   0  0  0  0  0  0  0  0  0  0  0  0
   -3.5202   -2.6488    0.8866 C   0  0  0  0  0  0  0  0  0  0  0  0
   -4.2052   -1.9048    1.2896 H   0  0  0  0  0  0  0  0  0  0  0  0
   -3.7552   -2.8428   -0.1584 H   0  0  0  0  0  0  0  0  0  0  0  0
   -2.1052   -2.1358    0.9946 C   0  0  0  0  0  0  0  0  0  0  0  0
   -1.2852   -2.7288    1.6826 O   0  0  0  0  0  0  0  0  0  0  0  0
   -1.8202   -1.0288    0.3146 N   0  0  0  0  0  0  0  0  0  0  0  0
   -2.5542   -0.5788   -0.2104 H   0  0  0  0  0  0  0  0  0  0  0  0
   -0.5102   -0.3728    0.3086 C   0  0  1  0  0  0  0  0  0  0  0  0
   -0.2731   -0.0564    1.3254 H   0  0  0  0  0  0  0  0  0  0  0  0
    0.5597   -1.3857   -0.1392 C   0  0  0  0  0  0  0  0  0  0  0  0
    0.2925   -1.7763   -1.1227 H   0  0  0  0  0  0  0  0  0  0  0  0
    1.5188   -0.8727   -0.2311 H   0  0  0  0  0  0  0  0  0  0  0  0
    0.7268   -2.5455    0.8079 C   0  0  0  0  0  0  0  0  0  0  0  0
    1.3597   -2.5145    2.0320 N   0  0  0  0  0  0  0  0  0  0  0  0
    1.8617   -1.7312    2.4225 H   0  0  0  0  0  0  0  0  0  0  0  0
    1.1964   -3.7141    2.6148 C   0  0  0  0  0  0  0  0  0  0  0  0
    1.5871   -3.9974    3.5844 H   0  0  0  0  0  0  0  0  0  0  0  0
    0.4723   -4.5198    1.8242 N   0  0  0  0  0  0  0  0  0  0  0  0
    0.1716   -3.7899    0.6712 C   0  0  0  0  0  0  0  0  0  0  0  0
   -0.4245   -4.1325   -0.1647 H   0  0  0  0  0  0  0  0  0  0  0  0
   -0.5310    0.8815   -0.5815 C   0  0  0  0  0  0  0  0  0  0  0  0
   -1.3140    1.7996   -0.3389 O   0  0  0  0  0  0  0  0  0  0  0  0
    0.3140    0.9141   -1.6194 N   0  0  0  0  0  0  0  0  0  0  0  0
    0.8862    0.0989   -1.7837 H   0  0  0  0  0  0  0  0  0  0  0  0
    0.4268    2.0283   -2.5570 C   0  0  0  0  0  0  0  0  0  0  0  0
    0.7066    2.9369   -2.0191 H   0  0  0  0  0  0  0  0  0  0  0  0
    1.1846    1.8094   -3.3098 H   0  0  0  0  0  0  0  0  0  0  0  0
   -0.5320    2.1970   -3.0497 H   0  0  0  0  0  0  0  0  0  0  0  0
  5  6  2  0  0  0  0
  5  7  1  0  0  0  0
  2  3  1  0  0  0  0
  2  4  1  0  0  0  0
  2  5  1  0  0  0  0
  1  2  1  0  0  0  0
 22 23  2  0  0  0  0
 22 24  1  0  0  0  0
 20 21  1  0  0  0  0
 19 20  1  0  0  0  0
 17 18  1  0  0  0  0
 17 19  2  0  0  0  0
 15 16  1  0  0  0  0
 15 17  1  0  0  0  0
 14 15  1  0  0  0  0
 14 20  2  0  0  0  0
 11 12  1  0  0  0  0
 11 13  1  0  0  0  0
 11 14  1  0  0  0  0
  9 10  1  0  0  0  0
  9 11  1  0  0  0  0
  9 22  1  0  0  0  0
  7  8  1  0  0  0  0
  7  9  1  0  0  0  0
 26 27  1  0  0  0  0
 26 28  1  0  0  0  0
 26 29  1  0  0  0  0
 24 25  1  0  0  0  0
 24 26  1  0  0  0  0
M  END
$$$$
default_name
  -OEChem-01062215323D

 29 29  0     1  0  0  0  0  0999 V2000
   -3.6042   -3.5728    1.4576 H   0  0  0  0  0  0  0  0  0  0  0  0
   -3.5202   -2.6488    0.8866 C   0  0  0  0  0  0  0  0  0  0  0  0
   -4.2052   -1.9048    1.2896 H   0  0  0  0  0  0  0  0  0  0  0  0
   -3.7552   -2.8428   -0.1584 H   0  0  0  0  0  0  0  0  0  0  0  0
   -2.1052   -2.1358    0.9946 C   0  0  0  0  0  0  0  0  0  0  0  0
   -1.2852   -2.7288    1.6826 O   0  0  0  0  0  0  0  0  0  0  0  0
   -1.8202   -1.0288    0.3146 N   0  0  0  0  0  0  0  0  0  0  0  0
   -2.5542   -0.5788   -0.2104 H   0  0  0  0  0  0  0  0  0  0  0  0
   -0.5102   -0.3728    0.3086 C   0  0  1  0  0  0  0  0  0  0  0  0
   -0.2731   -0.0564    1.3254 H   0  0  0  0  0  0  0  0  0  0  0  0
    0.5597   -1.3857   -0.1392 C   0  0  0  0  0  0  0  0  0  0  0  0
    0.2925   -1.7763   -1.1227 H   0  0  0  0  0  0  0  0  0  0  0  0
    1.5188   -0.8727   -0.2311 H   0  0  0  0  0  0  0  0  0  0  0  0
    0.7268   -2.5455    0.8079 C   0  0  0  0  0  0  0  0  0  0  0  0
    1.3597   -2.5145    2.0320 N   0  0  0  0  0  0  0  0  0  0  0  0
    1.8617   -1.7312    2.4225 H   0  0  0  0  0  0  0  0  0  0  0  0
    1.1964   -3.7141    2.6148 C   0  0  0  0  0  0  0  0  0  0  0  0
    1.5871   -3.9974    3.5844 H   0  0  0  0  0  0  0  0  0  0  0  0
    0.4723   -4.5198    1.8242 N   0  0  0  0  0  0  0  0  0  0  0  0
    0.1716   -3.7899    0.6712 C   0  0  0  0  0  0  0  0  0  0  0  0
   -0.4245   -4.1325   -0.1647 H   0  0  0  0  0  0  0  0  0  0  0  0
   -0.5310    0.8815   -0.5815 C   0  0  0  0  0  0  0  0  0  0  0  0
   -1.0989    1.9037   -0.1973 O   0  0  0  0  0  0  0  0  0  0  0  0
    0.0708    0.7999   -1.7746 N   0  0  0  0  0  0  0  0  0  0  0  0
    0.4670   -0.0898   -2.0399 H   0  0  0  0  0  0  0  0  0  0  0  0
    0.1480    1.8962   -2.7366 C   0  0  0  0  0  0  0  0  0  0  0  0
    0.6676    2.7457   -2.2876 H   0  0  0  0  0  0  0  0  0  0  0  0
    0.6882    1.5755   -3.6278 H   0  0  0  0  0  0  0  0  0  0  0  0
   -0.8571    2.2132   -3.0193 H   0  0  0  0  0  0  0  0  0  0  0  0
  5  6  2  0  0  0  0
  5  7  1  0  0  0  0
  2  3  1  0  0  0  0
  2  4  1  0  0  0  0
  2  5  1  0  0  0  0
  1  2  1  0  0  0  0
 22 23  2  0  0  0  0
 22 24  1  0  0  0  0
 20 21  1  0  0  0  0
 19 20  1  0  0  0  0
 17 18  1  0  0  0  0
 17 19  2  0  0  0  0
 15 16  1  0  0  0  0
 15 17  1  0  0  0  0
 14 15  1  0  0  0  0
 14 20  2  0  0  0  0
 11 12  1  0  0  0  0
 11 13  1  0  0  0  0
 11 14  1  0  0  0  0
  9 10  1  0  0  0  0
  9 11  1  0  0  0  0
  9 22  1  0  0  0  0
  7  8  1  0  0  0  0
  7  9  1  0  0  0  0
 26 27  1  0  0  0  0
 26 28  1  0  0  0  0
 26 29  1  0  0  0  0
 24 25  1  0  0  0  0
 24 26  1  0  0  0  0
M  END
$$$$
default_name
  -OEChem-01062215323D

 29 29  0     1  0  0  0  0  0999 V2000
   -3.6042   -3.5728    1.4576 H   0  0  0  0  0  0  0  0  0  0  0  0
   -3.5202   -2.6488    0.8866 C   0  0  0  0  0  0  0  0  0  0  0  0
   -4.2052   -1.9048    1.2896 H   0  0  0  0  0  0  0  0  0  0  0  0
   -3.7552   -2.8428   -0.1584 H   0  0  0  0  0  0  0  0  0  0  0  0
   -2.1052   -2.1358    0.9946 C   0  0  0  0  0  0  0  0  0  0  0  0
   -1.2852   -2.7288    1.6826 O   0  0  0  0  0  0  0  0  0  0  0  0
   -1.8202   -1.0288    0.3146 N   0  0  0  0  0  0  0  0  0  0  0  0
   -2.5542   -0.5788   -0.2104 H   0  0  0  0  0  0  0  0  0  0  0  0
   -0.5102   -0.3728    0.3086 C   0  0  1  0  0  0  0  0  0  0  0  0
   -0.2731   -0.0564    1.3254 H   0  0  0  0  0  0  0  0  0  0  0  0
    0.5597   -1.3857   -0.1392 C   0  0  0  0  0  0  0  0  0  0  0  0
    0.2925   -1.7763   -1.1227 H   0  0  0  0  0  0  0  0  0  0  0  0
    1.5188   -0.8727   -0.2311 H   0  0  0  0  0  0  0  0  0  0  0  0
    0.7268   -2.5455    0.8079 C   0  0  0  0  0  0  0  0  0  0  0  0
    1.3597   -2.5145    2.0320 N   0  0  0  0  0  0  0  0  0  0  0  0
    1.8617   -1.7312    2.4225 H   0  0  0  0  0  0  0  0  0  0  0  0
    1.1964   -3.7141    2.6148 C   0  0  0  0  0  0  0  0  0  0  0  0
    1.5871   -3.9974    3.5844 H   0  0  0  0  0  0  0  0  0  0  0  0
    0.4723   -4.5198    1.8242 N   0  0  0  0  0  0  0  0  0  0  0  0
    0.1716   -3.7899    0.6712 C   0  0  0  0  0  0  0  0  0  0  0  0
   -0.4245   -4.1325   -0.1647 H   0  0  0  0  0  0  0  0  0  0  0  0
   -0.5310    0.8815   -0.5815 C   0  0  0  0  0  0  0  0  0  0  0  0
   -0.8457    1.9724   -0.1064 O   0  0  0  0  0  0  0  0  0  0  0  0
   -0.2141    0.7255   -1.8729 N   0  0  0  0  0  0  0  0  0  0  0  0
   -0.0203   -0.2102   -2.1982 H   0  0  0  0  0  0  0  0  0  0  0  0
   -0.1790    1.8098   -2.8507 C   0  0  0  0  0  0  0  0  0  0  0  0
    0.5447    2.5659   -2.5381 H   0  0  0  0  0  0  0  0  0  0  0  0
    0.1066    1.4229   -3.8294 H   0  0  0  0  0  0  0  0  0  0  0  0
   -1.1622    2.2776   -2.9214 H   0  0  0  0  0  0  0  0  0  0  0  0
  5  6  2  0  0  0  0
  5  7  1  0  0  0  0
  2  3  1  0  0  0  0
  2  4  1  0  0  0  0
  2  5  1  0  0  0  0
  1  2  1  0  0  0  0
 22 23  2  0  0  0  0
 22 24  1  0  0  0  0
 20 21  1  0  0  0  0
 19 20  1  0  0  0  0
 17 18  1  0  0  0  0
 17 19  2  0  0  0  0
 15 16  1  0  0  0  0
 15 17  1  0  0  0  0
 14 15  1  0  0  0  0
 14 20  2  0  0  0  0
 11 12  1  0  0  0  0
 11 13  1  0  0  0  0
 11 14  1  0  0  0  0
  9 10  1  0  0  0  0
  9 11  1  0  0  0  0
  9 22  1  0  0  0  0
  7  8  1  0  0  0  0
  7  9  1  0  0  0  0
 26 27  1  0  0  0  0
 26 28  1  0  0  0  0
 26 29  1  0  0  0  0
 24 25  1  0  0  0  0
 24 26  1  0  0  0  0
M  END
$$$$
default_name
  -OEChem-01062215323D

 29 29  0     1  0  0  0  0  0999 V2000
   -3.6042   -3.5728    1.4576 H   0  0  0  0  0  0  0  0  0  0  0  0
   -3.5202   -2.6488    0.8866 C   0  0  0  0  0  0  0  0  0  0  0  0
   -4.2052   -1.9048    1.2896 H   0  0  0  0  0  0  0  0  0  0  0  0
   -3.7552   -2.8428   -0.1584 H   0  0  0  0  0  0  0  0  0  0  0  0
   -2.1052   -2.1358    0.9946 C   0  0  0  0  0  0  0  0  0  0  0  0
   -1.2852   -2.7288    1.6826 O   0  0  0  0  0  0  0  0  0  0  0  0
   -1.8202   -1.0288    0.3146 N   0  0  0  0  0  0  0  0  0  0  0  0
   -2.5542   -0.5788   -0.2104 H   0  0  0  0  0  0  0  0  0  0  0  0
   -0.5102   -0.3728    0.3086 C   0  0  1  0  0  0  0  0  0  0  0  0
   -0.2731   -0.0564    1.3254 H   0  0  0  0  0  0  0  0  0  0  0  0
    0.5597   -1.3857   -0.1392 C   0  0  0  0  0  0  0  0  0  0  0  0
    0.2925   -1.7763   -1.1227 H   0  0  0  0  0  0  0  0  0  0  0  0
    1.5188   -0.8727   -0.2311 H   0  0  0  0  0  0  0  0  0  0  0  0
    0.7268   -2.5455    0.8079 C   0  0  0  0  0  0  0  0  0  0  0  0
    1.3597   -2.5145    2.0320 N   0  0  0  0  0  0  0  0  0  0  0  0
    1.8617   -1.7312    2.4225 H   0  0  0  0  0  0  0  0  0  0  0  0
    1.1964   -3.7141    2.6148 C   0  0  0  0  0  0  0  0  0  0  0  0
    1.5871   -3.9974    3.5844 H   0  0  0  0  0  0  0  0  0  0  0  0
    0.4723   -4.5198    1.8242 N   0  0  0  0  0  0  0  0  0  0  0  0
    0.1716   -3.7899    0.6712 C   0  0  0  0  0  0  0  0  0  0  0  0
   -0.4245   -4.1325   -0.1647 H   0  0  0  0  0  0  0  0  0  0  0  0
   -0.5310    0.8815   -0.5815 C   0  0  0  0  0  0  0  0  0  0  0  0
   -0.5716    2.0012   -0.0722 O   0  0  0  0  0  0  0  0  0  0  0  0
   -0.5211    0.6959   -1.9073 N   0  0  0  0  0  0  0  0  0  0  0  0
   -0.5425   -0.2541   -2.2478 H   0  0  0  0  0  0  0  0  0  0  0  0
   -0.5318    1.7749   -2.8917 C   0  0  0  0  0  0  0  0  0  0  0  0
    0.3462    2.4097   -2.7535 H   0  0  0  0  0  0  0  0  0  0  0  0
   -0.5206    1.3618   -3.9008 H   0  0  0  0  0  0  0  0  0  0  0  0
   -1.4266    2.3858   -2.7626 H   0  0  0  0  0  0  0  0  0  0  0  0
  5  6  2  0  0  0  0
  5  7  1  0  0  0  0
  2  3  1  0  0  0  0
  2  4  1  0  0  0  0
  2  5  1  0  0  0  0
  1  2  1  0  0  0  0
 22 23  2  0  0  0  0
 22 24  1  0  0  0  0
 20 21  1  0  0  0  0
 19 20  1  0  0  0  0
 17 18  1  0  0  0  0
 17 19  2  0  0  0  0
 15 16  1  0  0  0  0
 15 17  1  0  0  0  0
 14 15  1  0  0  0  0
 14 20  2  0  0  0  0
 11 12  1  0  0  0  0
 11 13  1  0  0  0  0
 11 14  1  0  0  0  0
  9 10  1  0  0  0  0
  9 11  1  0  0  0  0
  9 22  1  0  0  0  0
  7  8  1  0  0  0  0
  7  9  1  0  0  0  0
 26 27  1  0  0  0  0
 26 28  1  0  0  0  0
 26 29  1  0  0  0  0
 24 25  1  0  0  0  0
 24 26  1  0  0  0  0
M  END
$$$$
default_name
  -OEChem-01062215323D

 29 29  0     1  0  0  0  0  0999 V2000
   -3.6042   -3.5728    1.4576 H   0  0  0  0  0  0  0  0  0  0  0  0
   -3.5202   -2.6488    0.8866 C   0  0  0  0  0  0  0  0  0  0  0  0
   -4.2052   -1.9048    1.2896 H   0  0  0  0  0  0  0  0  0  0  0  0
   -3.7552   -2.8428   -0.1584 H   0  0  0  0  0  0  0  0  0  0  0  0
   -2.1052   -2.1358    0.9946 C   0  0  0  0  0  0  0  0  0  0  0  0
   -1.2852   -2.7288    1.6826 O   0  0  0  0  0  0  0  0  0  0  0  0
   -1.8202   -1.0288    0.3146 N   0  0  0  0  0  0  0  0  0  0  0  0
   -2.5542   -0.5788   -0.2104 H   0  0  0  0  0  0  0  0  0  0  0  0
   -0.5102   -0.3728    0.3086 C   0  0  1  0  0  0  0  0  0  0  0  0
   -0.2731   -0.0564    1.3254 H   0  0  0  0  0  0  0  0  0  0  0  0
    0.5597   -1.3857   -0.1392 C   0  0  0  0  0  0  0  0  0  0  0  0
    0.2925   -1.7763   -1.1227 H   0  0  0  0  0  0  0  0  0  0  0  0
    1.5188   -0.8727   -0.2311 H   0  0  0  0  0  0  0  0  0  0  0  0
    0.7268   -2.5455    0.8079 C   0  0  0  0  0  0  0  0  0  0  0  0
    1.3597   -2.5145    2.0320 N   0  0  0  0  0  0  0  0  0  0  0  0
    1.8617   -1.7312    2.4225 H   0  0  0  0  0  0  0  0  0  0  0  0
    1.1964   -3.7141    2.6148 C   0  0  0  0  0  0  0  0  0  0  0  0
    1.5871   -3.9974    3.5844 H   0  0  0  0  0  0  0  0  0  0  0  0
    0.4723   -4.5198    1.8242 N   0  0  0  0  0  0  0  0  0  0  0  0
    0.1716   -3.7899    0.6712 C   0  0  0  0  0  0  0  0  0  0  0  0
   -0.4245   -4.1325   -0.1647 H   0  0  0  0  0  0  0  0  0  0  0  0
   -0.5310    0.8815   -0.5815 C   0  0  0  0  0  0  0  0  0  0  0  0
   -0.2953    1.9881   -0.0971 O   0  0  0  0  0  0  0  0  0  0  0  0
   -0.8294    0.7132   -1.8758 N   0  0  0  0  0  0  0  0  0  0  0  0
   -1.0639   -0.2185   -2.1854 H   0  0  0  0  0  0  0  0  0  0  0  0
   -0.8866    1.7938   -2.8567 C   0  0  0  0  0  0  0  0  0  0  0  0
    0.0856    2.2879   -2.9192 H   0  0  0  0  0  0  0  0  0  0  0  0
   -1.1507    1.3965   -3.8371 H   0  0  0  0  0  0  0  0  0  0  0  0
   -1.6323    2.5306   -2.5539 H   0  0  0  0  0  0  0  0  0  0  0  0
  5  6  2  0  0  0  0
  5  7  1  0  0  0  0
  2  3  1  0  0  0  0
  2  4  1  0  0  0  0
  2  5  1  0  0  0  0
  1  2  1  0  0  0  0
 22 23  2  0  0  0  0
 22 24  1  0  0  0  0
 20 21  1  0  0  0  0
 19 20  1  0  0  0  0
 17 18  1  0  0  0  0
 17 19  2  0  0  0  0
 15 16  1  0  0  0  0
 15 17  1  0  0  0  0
 14 15  1  0  0  0  0
 14 20  2  0  0  0  0
 11 12  1  0  0  0  0
 11 13  1  0  0  0  0
 11 14  1  0  0  0  0
  9 10  1  0  0  0  0
  9 11  1  0  0  0  0
  9 22  1  0  0  0  0
  7  8  1  0  0  0  0
  7  9  1  0  0  0  0
 26 27  1  0  0  0  0
 26 28  1  0  0  0  0
 26 29  1  0  0  0  0
 24 25  1  0  0  0  0
 24 26  1  0  0  0  0
M  END
$$$$
default_name
  -OEChem-01062215323D

 29 29  0     1  0  0  0  0  0999 V2000
   -3.6042   -3.5728    1.4576 H   0  0  0  0  0  0  0  0  0  0  0  0
   -3.5202   -2.6488    0.8866 C   0  0  0  0  0  0  0  0  0  0  0  0
   -4.2052   -1.9048    1.2896 H   0  0  0  0  0  0  0  0  0  0  0  0
   -3.7552   -2.8428   -0.1584 H   0  0  0  0  0  0  0  0  0  0  0  0
   -2.1052   -2.1358    0.9946 C   0  0  0  0  0  0  0  0  0  0  0  0
   -1.2852   -2.7288    1.6826 O   0  0  0  0  0  0  0  0  0  0  0  0
   -1.8202   -1.0288    0.3146 N   0  0  0  0  0  0  0  0  0  0  0  0
   -2.5542   -0.5788   -0.2104 H   0  0  0  0  0  0  0  0  0  0  0  0
   -0.5102   -0.3728    0.3086 C   0  0  1  0  0  0  0  0  0  0  0  0
   -0.2731   -0.0564    1.3254 H   0  0  0  0  0  0  0  0  0  0  0  0
    0.5597   -1.3857   -0.1392 C   0  0  0  0  0  0  0  0  0  0  0  0
    0.2925   -1.7763   -1.1227 H   0  0  0  0  0  0  0  0  0  0  0  0
    1.5188   -0.8727   -0.2311 H   0  0  0  0  0  0  0  0  0  0  0  0
    0.7268   -2.5455    0.8079 C   0  0  0  0  0  0  0  0  0  0  0  0
    1.3597   -2.5145    2.0320 N   0  0  0  0  0  0  0  0  0  0  0  0
    1.8617   -1.7312    2.4225 H   0  0  0  0  0  0  0  0  0  0  0  0
    1.1964   -3.7141    2.6148 C   0  0  0  0  0  0  0  0  0  0  0  0
    1.5871   -3.9974    3.5844 H   0  0  0  0  0  0  0  0  0  0  0  0
    0.4723   -4.5198    1.8242 N   0  0  0  0  0  0  0  0  0  0  0  0
    0.1716   -3.7899    0.6712 C   0  0  0  0  0  0  0  0  0  0  0  0
   -0.4245   -4.1325   -0.1647 H   0  0  0  0  0  0  0  0  0  0  0  0
   -0.5310    0.8815   -0.5815 C   0  0  0  0  0  0  0  0  0  0  0  0
   -0.0357    1.9340   -0.1794 O   0  0  0  0  0  0  0  0  0  0  0  0
   -1.1178    0.7762   -1.7802 N   0  0  0  0  0  0  0  0  0  0  0  0
   -1.5490   -0.1057   -2.0152 H   0  0  0  0  0  0  0  0  0  0  0  0
   -1.2190    1.8654   -2.7480 C   0  0  0  0  0  0  0  0  0  0  0  0
   -0.2193    2.2087   -3.0237 H   0  0  0  0  0  0  0  0  0  0  0  0
   -1.7406    1.5246   -3.6428 H   0  0  0  0  0  0  0  0  0  0  0  0
   -1.7653    2.7019   -2.3093 H   0  0  0  0  0  0  0  0  0  0  0  0
  5  6  2  0  0  0  0
  5  7  1  0  0  0  0
  2  3  1  0  0  0  0
  2  4  1  0  0  0  0
  2  5  1  0  0  0  0
  1  2  1  0  0  0  0
 22 23  2  0  0  0  0
 22 24  1  0  0  0  0
 20 21  1  0  0  0  0
 19 20  1  0  0  0  0
 17 18  1  0  0  0  0
 17 19  2  0  0  0  0
 15 16  1  0  0  0  0
 15 17  1  0  0  0  0
 14 15  1  0  0  0  0
 14 20  2  0  0  0  0
 11 12  1  0  0  0  0
 11 13  1  0  0  0  0
 11 14  1  0  0  0  0
  9 10  1  0  0  0  0
  9 11  1  0  0  0  0
  9 22  1  0  0  0  0
  7  8  1  0  0  0  0
  7  9  1  0  0  0  0
 26 27  1  0  0  0  0
 26 28  1  0  0  0  0
 26 29  1  0  0  0  0
 24 25  1  0  0  0  0
 24 26  1  0  0  0  0
M  END
$$$$
default_name
  -OEChem-01062215323D

 29 29  0     1  0  0  0  0  0999 V2000
   -3.6042   -3.5728    1.4576 H   0  0  0  0  0  0  0  0  0  0  0  0
   -3.5202   -2.6488    0.8866 C   0  0  0  0  0  0  0  0  0  0  0  0
   -4.2052   -1.9048    1.2896 H   0  0  0  0  0  0  0  0  0  0  0  0
   -3.7552   -2.8428   -0.1584 H   0  0  0  0  0  0  0  0  0  0  0  0
   -2.1052   -2.1358    0.9946 C   0  0  0  0  0  0  0  0  0  0  0  0
   -1.2852   -2.7288    1.6826 O   0  0  0  0  0  0  0  0  0  0  0  0
   -1.8202   -1.0288    0.3146 N   0  0  0  0  0  0  0  0  0  0  0  0
   -2.5542   -0.5788   -0.2104 H   0  0  0  0  0  0  0  0  0  0  0  0
   -0.5102   -0.3728    0.3086 C   0  0  1  0  0  0  0  0  0  0  0  0
   -0.2731   -0.0564    1.3254 H   0  0  0  0  0  0  0  0  0  0  0  0
    0.5597   -1.3857   -0.1392 C   0  0  0  0  0  0  0  0  0  0  0  0
    0.2925   -1.7763   -1.1227 H   0  0  0  0  0  0  0  0  0  0  0  0
    1.5188   -0.8727   -0.2311 H   0  0  0  0  0  0  0  0  0  0  0  0
    0.7268   -2.5455    0.8079 C   0  0  0  0  0  0  0  0  0  0  0  0
    1.3597   -2.5145    2.0320 N   0  0  0  0  0  0  0  0  0  0  0  0
    1.8617   -1.7312    2.4225 H   0  0  0  0  0  0  0  0  0  0  0  0
    1.1964   -3.7141    2.6148 C   0  0  0  0  0  0  0  0  0  0  0  0
    1.5871   -3.9974    3.5844 H   0  0  0  0  0  0  0  0  0  0  0  0
    0.4723   -4.5198    1.8242 N   0  0  0  0  0  0  0  0  0  0  0  0
    0.1716   -3.7899    0.6712 C   0  0  0  0  0  0  0  0  0  0  0  0
   -0.4245   -4.1325   -0.1647 H   0  0  0  0  0  0  0  0  0  0  0  0
   -0.5310    0.8815   -0.5815 C   0  0  0  0  0  0  0  0  0  0  0  0
    0.1896    1.8426   -0.3136 O   0  0  0  0  0  0  0  0  0  0  0  0
   -1.3669    0.8806   -1.6273 N   0  0  0  0  0  0  0  0  0  0  0  0
   -1.9648    0.0764   -1.7488 H   0  0  0  0  0  0  0  0  0  0  0  0
   -1.5064    1.9847   -2.5732 C   0  0  0  0  0  0  0  0  0  0  0  0
   -0.5477    2.1774   -3.0600 H   0  0  0  0  0  0  0  0  0  0  0  0
   -2.2503    1.7374   -3.3311 H   0  0  0  0  0  0  0  0  0  0  0  0
   -1.8164    2.8881   -2.0457 H   0  0  0  0  0  0  0  0  0  0  0  0
  5  6  2  0  0  0  0
  5  7  1  0  0  0  0
  2  3  1  0  0  0  0
  2  4  1  0  0  0  0
  2  5  1  0  0  0  0
  1  2  1  0  0  0  0
 22 23  2  0  0  0  0
 22 24  1  0  0  0  0
 20 21  1  0  0  0  0
 19 20  1  0  0  0  0
 17 18  1  0  0  0  0
 17 19  2  0  0  0  0
 15 16  1  0  0  0  0
 15 17  1  0  0  0  0
 14 15  1  0  0  0  0
 14 20  2  0  0  0  0
 11 12  1  0  0  0  0
 11 13  1  0  0  0  0
 11 14  1  0  0  0  0
  9 10  1  0  0  0  0
  9 11  1  0  0  0  0
  9 22  1  0  0  0  0
  7  8  1  0  0  0  0
  7  9  1  0  0  0  0
 26 27  1  0  0  0  0
 26 28  1  0  0  0  0
 26 29  1  0  0  0  0
 24 25  1  0  0  0  0
 24 26  1  0  0  0  0
M  END
$$$$
default_name
  -OEChem-01062215323D

 29 29  0     1  0  0  0  0  0999 V2000
   -3.6042   -3.5728    1.4576 H   0  0  0  0  0  0  0  0  0  0  0  0
   -3.5202   -2.6488    0.8866 C   0  0  0  0  0  0  0  0  0  0  0  0
   -4.2052   -1.9048    1.2896 H   0  0  0  0  0  0  0  0  0  0  0  0
   -3.7552   -2.8428   -0.1584 H   0  0  0  0  0  0  0  0  0  0  0  0
   -2.1052   -2.1358    0.9946 C   0  0  0  0  0  0  0  0  0  0  0  0
   -1.2852   -2.7288    1.6826 O   0  0  0  0  0  0  0  0  0  0  0  0
   -1.8202   -1.0288    0.3146 N   0  0  0  0  0  0  0  0  0  0  0  0
   -2.5542   -0.5788   -0.2104 H   0  0  0  0  0  0  0  0  0  0  0  0
   -0.5102   -0.3728    0.3086 C   0  0  1  0  0  0  0  0  0  0  0  0
   -0.2731   -0.0564    1.3254 H   0  0  0  0  0  0  0  0  0  0  0  0
    0.5597   -1.3857   -0.1392 C   0  0  0  0  0  0  0  0  0  0  0  0
    0.2925   -1.7763   -1.1227 H   0  0  0  0  0  0  0  0  0  0  0  0
    1.5188   -0.8727   -0.2311 H   0  0  0  0  0  0  0  0  0  0  0  0
    0.7268   -2.5455    0.8079 C   0  0  0  0  0  0  0  0  0  0  0  0
    1.3597   -2.5145    2.0320 N   0  0  0  0  0  0  0  0  0  0  0  0
    1.8617   -1.7312    2.4225 H   0  0  0  0  0  0  0  0  0  0  0  0
    1.1964   -3.7141    2.6148 C   0  0  0  0  0  0  0  0  0  0  0  0
    1.5871   -3.9974    3.5844 H   0  0  0  0  0  0  0  0  0  0  0  0
    0.4723   -4.5198    1.8242 N   0  0  0  0  0  0  0  0  0  0  0  0
    0.1716   -3.7899    0.6712 C   0  0  0  0  0  0  0  0  0  0  0  0
   -0.4245   -4.1325   -0.1647 H   0  0  0  0  0  0  0  0  0  0  0  0
   -0.5310    0.8815   -0.5815 C   0  0  0  0  0  0  0  0  0  0  0  0
    0.3653    1.7200   -0.4904 O   0  0  0  0  0  0  0  0  0  0  0  0
   -1.5596    1.0193   -1.4274 N   0  0  0  0  0  0  0  0  0  0  0  0
   -2.2829    0.3155   -1.4044 H   0  0  0  0  0  0  0  0  0  0  0  0
   -1.7293    2.1436   -2.3440 C   0  0  0  0  0  0  0  0  0  0  0  0
   -0.8774    2.1963   -3.0257 H   0  0  0  0  0  0  0  0  0  0  0  0
   -2.6449    2.0203   -2.9231 H   0  0  0  0  0  0  0  0  0  0  0  0
   -1.7823    3.0766   -1.7808 H   0  0  0  0  0  0  0  0  0  0  0  0
  5  6  2  0  0  0  0
  5  7  1  0  0  0  0
  2  3  1  0  0  0  0
  2  4  1  0  0  0  0
  2  5  1  0  0  0  0
  1  2  1  0  0  0  0
 22 23  2  0  0  0  0
 22 24  1  0  0  0  0
 20 21  1  0  0  0  0
 19 20  1  0  0  0  0
 17 18  1  0  0  0  0
 17 19  2  0  0  0  0
 15 16  1  0  0  0  0
 15 17  1  0  0  0  0
 14 15  1  0  0  0  0
 14 20  2  0  0  0  0
 11 12  1  0  0  0  0
 11 13  1  0  0  0  0
 11 14  1  0  0  0  0
  9 10  1  0  0  0  0
  9 11  1  0  0  0  0
  9 22  1  0  0  0  0
  7  8  1  0  0  0  0
  7  9  1  0  0  0  0
 26 27  1  0  0  0  0
 26 28  1  0  0  0  0
 26 29  1  0  0  0  0
 24 25  1  0  0  0  0
 24 26  1  0  0  0  0
M  END
$$$$
default_name
  -OEChem-01062215323D

 29 29  0     1  0  0  0  0  0999 V2000
   -3.6042   -3.5728    1.4576 H   0  0  0  0  0  0  0  0  0  0  0  0
   -3.5202   -2.6488    0.8866 C   0  0  0  0  0  0  0  0  0  0  0  0
   -4.2052   -1.9048    1.2896 H   0  0  0  0  0  0  0  0  0  0  0  0
   -3.7552   -2.8428   -0.1584 H   0  0  0  0  0  0  0  0  0  0  0  0
   -2.1052   -2.1358    0.9946 C   0  0  0  0  0  0  0  0  0  0  0  0
   -1.2852   -2.7288    1.6826 O   0  0  0  0  0  0  0  0  0  0  0  0
   -1.8202   -1.0288    0.3146 N   0  0  0  0  0  0  0  0  0  0  0  0
   -2.5542   -0.5788   -0.2104 H   0  0  0  0  0  0  0  0  0  0  0  0
   -0.5102   -0.3728    0.3086 C   0  0  1  0  0  0  0  0  0  0  0  0
   -0.2731   -0.0564    1.3254 H   0  0  0  0  0  0  0  0  0  0  0  0
    0.5597   -1.3857   -0.1392 C   0  0  0  0  0  0  0  0  0  0  0  0
    0.2925   -1.7763   -1.1227 H   0  0  0  0  0  0  0  0  0  0  0  0
    1.5188   -0.8727   -0.2311 H   0  0  0  0  0  0  0  0  0  0  0  0
    0.7268   -2.5455    0.8079 C   0  0  0  0  0  0  0  0  0  0  0  0
    1.3597   -2.5145    2.0320 N   0  0  0  0  0  0  0  0  0  0  0  0
    1.8617   -1.7312    2.4225 H   0  0  0  0  0  0  0  0  0  0  0  0
    1.1964   -3.7141    2.6148 C   0  0  0  0  0  0  0  0  0  0  0  0
    1.5871   -3.9974    3.5844 H   0  0  0  0  0  0  0  0  0  0  0  0
    0.4723   -4.5198    1.8242 N   0  0  0  0  0  0  0  0  0  0  0  0
    0.1716   -3.7899    0.6712 C   0  0  0  0  0  0  0  0  0  0  0  0
   -0.4245   -4.1325   -0.1647 H   0  0  0  0  0  0  0  0  0  0  0  0
   -0.5310    0.8815   -0.5815 C   0  0  0  0  0  0  0  0  0  0  0  0
    0.4793    1.5747   -0.6978 O   0  0  0  0  0  0  0  0  0  0  0  0
   -1.6827    1.1828   -1.1941 N   0  0  0  0  0  0  0  0  0  0  0  0
   -2.4817    0.5954   -1.0054 H   0  0  0  0  0  0  0  0  0  0  0  0
   -1.8724    2.3313   -2.0762 C   0  0  0  0  0  0  0  0  0  0  0  0
   -1.1857    2.2640   -2.9231 H   0  0  0  0  0  0  0  0  0  0  0  0
   -2.8976    2.3541   -2.4468 H   0  0  0  0  0  0  0  0  0  0  0  0
   -1.6652    3.2545   -1.5329 H   0  0  0  0  0  0  0  0  0  0  0  0
  5  6  2  0  0  0  0
  5  7  1  0  0  0  0
  2  3  1  0  0  0  0
  2  4  1  0  0  0  0
  2  5  1  0  0  0  0
  1  2  1  0  0  0  0
 22 23  2  0  0  0  0
 22 24  1  0  0  0  0
 20 21  1  0  0  0  0
 19 20  1  0  0  0  0
 17 18  1  0  0  0  0
 17 19  2  0  0  0  0
 15 16  1  0  0  0  0
 15 17  1  0  0  0  0
 14 15  1  0  0  0  0
 14 20  2  0  0  0  0
 11 12  1  0  0  0  0
 11 13  1  0  0  0  0
 11 14  1  0  0  0  0
  9 10  1  0  0  0  0
  9 11  1  0  0  0  0
  9 22  1  0  0  0  0
  7  8  1  0  0  0  0
  7  9  1  0  0  0  0
 26 27  1  0  0  0  0
 26 28  1  0  0  0  0
 26 29  1  0  0  0  0
 24 25  1  0  0  0  0
 24 26  1  0  0  0  0
M  END
$$$$
default_name
  -OEChem-01062215323D

 29 29  0     1  0  0  0  0  0999 V2000
   -3.6042   -3.5728    1.4576 H   0  0  0  0  0  0  0  0  0  0  0  0
   -3.5202   -2.6488    0.8866 C   0  0  0  0  0  0  0  0  0  0  0  0
   -4.2052   -1.9048    1.2896 H   0  0  0  0  0  0  0  0  0  0  0  0
   -3.7552   -2.8428   -0.1584 H   0  0  0  0  0  0  0  0  0  0  0  0
   -2.1052   -2.1358    0.9946 C   0  0  0  0  0  0  0  0  0  0  0  0
   -1.2852   -2.7288    1.6826 O   0  0  0  0  0  0  0  0  0  0  0  0
   -1.8202   -1.0288    0.3146 N   0  0  0  0  0  0  0  0  0  0  0  0
   -2.5542   -0.5788   -0.2104 H   0  0  0  0  0  0  0  0  0  0  0  0
   -0.5102   -0.3728    0.3086 C   0  0  1  0  0  0  0  0  0  0  0  0
   -0.2731   -0.0564    1.3254 H   0  0  0  0  0  0  0  0  0  0  0  0
    0.5597   -1.3857   -0.1392 C   0  0  0  0  0  0  0  0  0  0  0  0
    0.2925   -1.7763   -1.1227 H   0  0  0  0  0  0  0  0  0  0  0  0
    1.5188   -0.8727   -0.2311 H   0  0  0  0  0  0  0  0  0  0  0  0
    0.7268   -2.5455    0.8079 C   0  0  0  0  0  0  0  0  0  0  0  0
    1.3597   -2.5145    2.0320 N   0  0  0  0  0  0  0  0  0  0  0  0
    1.8617   -1.7312    2.4225 H   0  0  0  0  0  0  0  0  0  0  0  0
    1.1964   -3.7141    2.6148 C   0  0  0  0  0  0  0  0  0  0  0  0
    1.5871   -3.9974    3.5844 H   0  0  0  0  0  0  0  0  0  0  0  0
    0.4723   -4.5198    1.8242 N   0  0  0  0  0  0  0  0  0  0  0  0
    0.1716   -3.7899    0.6712 C   0  0  0  0  0  0  0  0  0  0  0  0
   -0.4245   -4.1325   -0.1647 H   0  0  0  0  0  0  0  0  0  0  0  0
   -0.5310    0.8815   -0.5815 C   0  0  0  0  0  0  0  0  0  0  0  0
    0.5238    1.4166   -0.9217 O   0  0  0  0  0  0  0  0  0  0  0  0
   -1.7280    1.3600   -0.9434 N   0  0  0  0  0  0  0  0  0  0  0  0
   -2.5475    0.8968   -0.5790 H   0  0  0  0  0  0  0  0  0  0  0  0
   -1.9260    2.5349   -1.7880 C   0  0  0  0  0  0  0  0  0  0  0  0
   -1.4517    2.3760   -2.7591 H   0  0  0  0  0  0  0  0  0  0  0  0
   -2.9912    2.7161   -1.9345 H   0  0  0  0  0  0  0  0  0  0  0  0
   -1.4731    3.4097   -1.3187 H   0  0  0  0  0  0  0  0  0  0  0  0
  5  6  2  0  0  0  0
  5  7  1  0  0  0  0
  2  3  1  0  0  0  0
  2  4  1  0  0  0  0
  2  5  1  0  0  0  0
  1  2  1  0  0  0  0
 22 23  2  0  0  0  0
 22 24  1  0  0  0  0
 20 21  1  0  0  0  0
 19 20  1  0  0  0  0
 17 18  1  0  0  0  0
 17 19  2  0  0  0  0
 15 16  1  0  0  0  0
 15 17  1  0  0  0  0
 14 15  1  0  0  0  0
 14 20  2  0  0  0  0
 11 12  1  0  0  0  0
 11 13  1  0  0  0  0
 11 14  1  0  0  0  0
  9 10  1  0  0  0  0
  9 11  1  0  0  0  0
  9 22  1  0  0  0  0
  7  8  1  0  0  0  0
  7  9  1  0  0  0  0
 26 27  1  0  0  0  0
 26 28  1  0  0  0  0
 26 29  1  0  0  0  0
 24 25  1  0  0  0  0
 24 26  1  0  0  0  0
M  END
$$$$
default_name
  -OEChem-01062215323D

 29 29  0     1  0  0  0  0  0999 V2000
   -3.6042   -3.5728    1.4576 H   0  0  0  0  0  0  0  0  0  0  0  0
   -3.5202   -2.6488    0.8866 C   0  0  0  0  0  0  0  0  0  0  0  0
   -4.2052   -1.9048    1.2896 H   0  0  0  0  0  0  0  0  0  0  0  0
   -3.7552   -2.8428   -0.1584 H   0  0  0  0  0  0  0  0  0  0  0  0
   -2.1052   -2.1358    0.9946 C   0  0  0  0  0  0  0  0  0  0  0  0
   -1.2852   -2.7288    1.6826 O   0  0  0  0  0  0  0  0  0  0  0  0
   -1.8202   -1.0288    0.3146 N   0  0  0  0  0  0  0  0  0  0  0  0
   -2.5542   -0.5788   -0.2104 H   0  0  0  0  0  0  0  0  0  0  0  0
   -0.5102   -0.3728    0.3086 C   0  0  1  0  0  0  0  0  0  0  0  0
   -0.2731   -0.0564    1.3254 H   0  0  0  0  0  0  0  0  0  0  0  0
    0.5597   -1.3857   -0.1392 C   0  0  0  0  0  0  0  0  0  0  0  0
    0.2925   -1.7763   -1.1227 H   0  0  0  0  0  0  0  0  0  0  0  0
    1.5188   -0.8727   -0.2311 H   0  0  0  0  0  0  0  0  0  0  0  0
    0.7268   -2.5455    0.8079 C   0  0  0  0  0  0  0  0  0  0  0  0
    1.3597   -2.5145    2.0320 N   0  0  0  0  0  0  0  0  0  0  0  0
    1.8617   -1.7312    2.4225 H   0  0  0  0  0  0  0  0  0  0  0  0
    1.1964   -3.7141    2.6148 C   0  0  0  0  0  0  0  0  0  0  0  0
    1.5871   -3.9974    3.5844 H   0  0  0  0  0  0  0  0  0  0  0  0
    0.4723   -4.5198    1.8242 N   0  0  0  0  0  0  0  0  0  0  0  0
    0.1716   -3.7899    0.6712 C   0  0  0  0  0  0  0  0  0  0  0  0
   -0.4245   -4.1325   -0.1647 H   0  0  0  0  0  0  0  0  0  0  0  0
   -0.5310    0.8815   -0.5815 C   0  0  0  0  0  0  0  0  0  0  0  0
    0.4959    1.2564   -1.1468 O   0  0  0  0  0  0  0  0  0  0  0  0
   -1.6922    1.5388   -0.6922 N   0  0  0  0  0  0  0  0  0  0  0  0
   -2.4760    1.1994   -0.1543 H   0  0  0  0  0  0  0  0  0  0  0  0
   -1.8864    2.7407   -1.4990 C   0  0  0  0  0  0  0  0  0  0  0  0
   -1.6572    2.5245   -2.5449 H   0  0  0  0  0  0  0  0  0  0  0  0
   -2.9192    3.0815   -1.4211 H   0  0  0  0  0  0  0  0  0  0  0  0
   -1.2191    3.5315   -1.1529 H   0  0  0  0  0  0  0  0  0  0  0  0
  5  6  2  0  0  0  0
  5  7  1  0  0  0  0
  2  3  1  0  0  0  0
  2  4  1  0  0  0  0
  2  5  1  0  0  0  0
  1  2  1  0  0  0  0
 22 23  2  0  0  0  0
 22 24  1  0  0  0  0
 20 21  1  0  0  0  0
 19 20  1  0  0  0  0
 17 18  1  0  0  0  0
 17 19  2  0  0  0  0
 15 16  1  0  0  0  0
 15 17  1  0  0  0  0
 14 15  1  0  0  0  0
 14 20  2  0  0  0  0
 11 12  1  0  0  0  0
 11 13  1  0  0  0  0
 11 14  1  0  0  0  0
  9 10  1  0  0  0  0
  9 11  1  0  0  0  0
  9 22  1  0  0  0  0
  7  8  1  0  0  0  0
  7  9  1  0  0  0  0
 26 27  1  0  0  0  0
 26 28  1  0  0  0  0
 26 29  1  0  0  0  0
 24 25  1  0  0  0  0
 24 26  1  0  0  0  0
M  END
$$$$
default_name
  -OEChem-01062215323D

 29 29  0     1  0  0  0  0  0999 V2000
   -3.6042   -3.5728    1.4576 H   0  0  0  0  0  0  0  0  0  0  0  0
   -3.5202   -2.6488    0.8866 C   0  0  0  0  0  0  0  0  0  0  0  0
   -4.2052   -1.9048    1.2896 H   0  0  0  0  0  0  0  0  0  0  0  0
   -3.7552   -2.8428   -0.1584 H   0  0  0  0  0  0  0  0  0  0  0  0
   -2.1052   -2.1358    0.9946 C   0  0  0  0  0  0  0  0  0  0  0  0
   -1.2852   -2.7288    1.6826 O   0  0  0  0  0  0  0  0  0  0  0  0
   -1.8202   -1.0288    0.3146 N   0  0  0  0  0  0  0  0  0  0  0  0
   -2.5542   -0.5788   -0.2104 H   0  0  0  0  0  0  0  0  0  0  0  0
   -0.5102   -0.3728    0.3086 C   0  0  1  0  0  0  0  0  0  0  0  0
   -0.2731   -0.0564    1.3254 H   0  0  0  0  0  0  0  0  0  0  0  0
    0.5597   -1.3857   -0.1392 C   0  0  0  0  0  0  0  0  0  0  0  0
    0.2925   -1.7763   -1.1227 H   0  0  0  0  0  0  0  0  0  0  0  0
    1.5188   -0.8727   -0.2311 H   0  0  0  0  0  0  0  0  0  0  0  0
    0.7268   -2.5455    0.8079 C   0  0  0  0  0  0  0  0  0  0  0  0
    1.3597   -2.5145    2.0320 N   0  0  0  0  0  0  0  0  0  0  0  0
    1.8617   -1.7312    2.4225 H   0  0  0  0  0  0  0  0  0  0  0  0
    1.1964   -3.7141    2.6148 C   0  0  0  0  0  0  0  0  0  0  0  0
    1.5871   -3.9974    3.5844 H   0  0  0  0  0  0  0  0  0  0  0  0
    0.4723   -4.5198    1.8242 N   0  0  0  0  0  0  0  0  0  0  0  0
    0.1716   -3.7899    0.6712 C   0  0  0  0  0  0  0  0  0  0  0  0
   -0.4245   -4.1325   -0.1647 H   0  0  0  0  0  0  0  0  0  0  0  0
   -0.5310    0.8815   -0.5815 C   0  0  0  0  0  0  0  0  0  0  0  0
    0.3975    1.1050   -1.3578 O   0  0  0  0  0  0  0  0  0  0  0  0
   -1.5779    1.7070   -0.4578 N   0  0  0  0  0  0  0  0  0  0  0  0
   -2.2720    1.4824    0.2398 H   0  0  0  0  0  0  0  0  0  0  0  0
   -1.7564    2.9345   -1.2289 C   0  0  0  0  0  0  0  0  0  0  0  0
   -1.7883    2.6996   -2.2952 H   0  0  0  0  0  0  0  0  0  0  0  0
   -2.6866    3.4256   -0.9418 H   0  0  0  0  0  0  0  0  0  0  0  0
   -0.9205    3.6118   -1.0468 H   0  0  0  0  0  0  0  0  0  0  0  0
  5  6  2  0  0  0  0
  5  7  1  0  0  0  0
  2  3  1  0  0  0  0
  2  4  1  0  0  0  0
  2  5  1  0  0  0  0
  1  2  1  0  0  0  0
 22 23  2  0  0  0  0
 22 24  1  0  0  0  0
 20 21  1  0  0  0  0
 19 20  1  0  0  0  0
 17 18  1  0  0  0  0
 17 19  2  0  0  0  0
 15 16  1  0  0  0  0
 15 17  1  0  0  0  0
 14 15  1  0  0  0  0
 14 20  2  0  0  0  0
 11 12  1  0  0  0  0
 11 13  1  0  0  0  0
 11 14  1  0  0  0  0
  9 10  1  0  0  0  0
  9 11  1  0  0  0  0
  9 22  1  0  0  0  0
  7  8  1  0  0  0  0
  7  9  1  0  0  0  0
 26 27  1  0  0  0  0
 26 28  1  0  0  0  0
 26 29  1  0  0  0  0
 24 25  1  0  0  0  0
 24 26  1  0  0  0  0
M  END
$$$$
default_name
  -OEChem-01062215323D

 29 29  0     1  0  0  0  0  0999 V2000
   -3.6042   -3.5728    1.4576 H   0  0  0  0  0  0  0  0  0  0  0  0
   -3.5202   -2.6488    0.8866 C   0  0  0  0  0  0  0  0  0  0  0  0
   -4.2052   -1.9048    1.2896 H   0  0  0  0  0  0  0  0  0  0  0  0
   -3.7552   -2.8428   -0.1584 H   0  0  0  0  0  0  0  0  0  0  0  0
   -2.1052   -2.1358    0.9946 C   0  0  0  0  0  0  0  0  0  0  0  0
   -1.2852   -2.7288    1.6826 O   0  0  0  0  0  0  0  0  0  0  0  0
   -1.8202   -1.0288    0.3146 N   0  0  0  0  0  0  0  0  0  0  0  0
   -2.5542   -0.5788   -0.2104 H   0  0  0  0  0  0  0  0  0  0  0  0
   -0.5102   -0.3728    0.3086 C   0  0  1  0  0  0  0  0  0  0  0  0
   -0.2731   -0.0564    1.3254 H   0  0  0  0  0  0  0  0  0  0  0  0
    0.5597   -1.3857   -0.1392 C   0  0  0  0  0  0  0  0  0  0  0  0
    0.2925   -1.7763   -1.1227 H   0  0  0  0  0  0  0  0  0  0  0  0
    1.5188   -0.8727   -0.2311 H   0  0  0  0  0  0  0  0  0  0  0  0
    0.7268   -2.5455    0.8079 C   0  0  0  0  0  0  0  0  0  0  0  0
    1.3597   -2.5145    2.0320 N   0  0  0  0  0  0  0  0  0  0  0  0
    1.8617   -1.7312    2.4225 H   0  0  0  0  0  0  0  0  0  0  0  0
    1.1964   -3.7141    2.6148 C   0  0  0  0  0  0  0  0  0  0  0  0
    1.5871   -3.9974    3.5844 H   0  0  0  0  0  0  0  0  0  0  0  0
    0.4723   -4.5198    1.8242 N   0  0  0  0  0  0  0  0  0  0  0  0
    0.1716   -3.7899    0.6712 C   0  0  0  0  0  0  0  0  0  0  0  0
   -0.4245   -4.1325   -0.1647 H   0  0  0  0  0  0  0  0  0  0  0  0
   -0.5310    0.8815   -0.5815 C   0  0  0  0  0  0  0  0  0  0  0  0
    0.2351    0.9728   -1.5403 O   0  0  0  0  0  0  0  0  0  0  0  0
   -1.3928    1.8532   -0.2561 N   0  0  0  0  0  0  0  0  0  0  0  0
   -1.9494    1.7266    0.5764 H   0  0  0  0  0  0  0  0  0  0  0  0
   -1.5448    3.1032   -0.9961 C   0  0  0  0  0  0  0  0  0  0  0  0
   -1.8361    2.8891   -2.0269 H   0  0  0  0  0  0  0  0  0  0  0  0
   -2.3093    3.7247   -0.5291 H   0  0  0  0  0  0  0  0  0  0  0  0
   -0.5977    3.6449   -1.0076 H   0  0  0  0  0  0  0  0  0  0  0  0
  5  6  2  0  0  0  0
  5  7  1  0  0  0  0
  2  3  1  0  0  0  0
  2  4  1  0  0  0  0
  2  5  1  0  0  0  0
  1  2  1  0  0  0  0
 22 23  2  0  0  0  0
 22 24  1  0  0  0  0
 20 21  1  0  0  0  0
 19 20  1  0  0  0  0
 17 18  1  0  0  0  0
 17 19  2  0  0  0  0
 15 16  1  0  0  0  0
 15 17  1  0  0  0  0
 14 15  1  0  0  0  0
 14 20  2  0  0  0  0
 11 12  1  0  0  0  0
 11 13  1  0  0  0  0
 11 14  1  0  0  0  0
  9 10  1  0  0  0  0
  9 11  1  0  0  0  0
  9 22  1  0  0  0  0
  7  8  1  0  0  0  0
  7  9  1  0  0  0  0
 26 27  1  0  0  0  0
 26 28  1  0  0  0  0
 26 29  1  0  0  0  0
 24 25  1  0  0  0  0
 24 26  1  0  0  0  0
M  END
$$$$
default_name
  -OEChem-01062215323D

 29 29  0     1  0  0  0  0  0999 V2000
   -3.6042   -3.5728    1.4576 H   0  0  0  0  0  0  0  0  0  0  0  0
   -3.5202   -2.6488    0.8866 C   0  0  0  0  0  0  0  0  0  0  0  0
   -4.2052   -1.9048    1.2896 H   0  0  0  0  0  0  0  0  0  0  0  0
   -3.7552   -2.8428   -0.1584 H   0  0  0  0  0  0  0  0  0  0  0  0
   -2.1052   -2.1358    0.9946 C   0  0  0  0  0  0  0  0  0  0  0  0
   -1.2852   -2.7288    1.6826 O   0  0  0  0  0  0  0  0  0  0  0  0
   -1.8202   -1.0288    0.3146 N   0  0  0  0  0  0  0  0  0  0  0  0
   -2.5542   -0.5788   -0.2104 H   0  0  0  0  0  0  0  0  0  0  0  0
   -0.5102   -0.3728    0.3086 C   0  0  1  0  0  0  0  0  0  0  0  0
   -0.2731   -0.0564    1.3254 H   0  0  0  0  0  0  0  0  0  0  0  0
    0.5597   -1.3857   -0.1392 C   0  0  0  0  0  0  0  0  0  0  0  0
    0.2925   -1.7763   -1.1227 H   0  0  0  0  0  0  0  0  0  0  0  0
    1.5188   -0.8727   -0.2311 H   0  0  0  0  0  0  0  0  0  0  0  0
    0.7268   -2.5455    0.8079 C   0  0  0  0  0  0  0  0  0  0  0  0
    1.3597   -2.5145    2.0320 N   0  0  0  0  0  0  0  0  0  0  0  0
    1.8617   -1.7312    2.4225 H   0  0  0  0  0  0  0  0  0  0  0  0
    1.1964   -3.7141    2.6148 C   0  0  0  0  0  0  0  0  0  0  0  0
    1.5871   -3.9974    3.5844 H   0  0  0  0  0  0  0  0  0  0  0  0
    0.4723   -4.5198    1.8242 N   0  0  0  0  0  0  0  0  0  0  0  0
    0.1716   -3.7899    0.6712 C   0  0  0  0  0  0  0  0  0  0  0  0
   -0.4245   -4.1325   -0.1647 H   0  0  0  0  0  0  0  0  0  0  0  0
   -0.5310    0.8815   -0.5815 C   0  0  0  0  0  0  0  0  0  0  0  0
    0.0201    0.8688   -1.6819 O   0  0  0  0  0  0  0  0  0  0  0  0
   -1.1495    1.9674   -0.1009 N   0  0  0  0  0  0  0  0  0  0  0  0
   -1.5301    1.9154    0.8326 H   0  0  0  0  0  0  0  0  0  0  0  0
   -1.2660    3.2352   -0.8166 C   0  0  0  0  0  0  0  0  0  0  0  0
   -1.7971    3.0803   -1.7584 H   0  0  0  0  0  0  0  0  0  0  0  0
   -1.8129    3.9586   -0.2111 H   0  0  0  0  0  0  0  0  0  0  0  0
   -0.2727    3.6288   -1.0380 H   0  0  0  0  0  0  0  0  0  0  0  0
  5  6  2  0  0  0  0
  5  7  1  0  0  0  0
  2  3  1  0  0  0  0
  2  4  1  0  0  0  0
  2  5  1  0  0  0  0
  1  2  1  0  0  0  0
 22 23  2  0  0  0  0
 22 24  1  0  0  0  0
 20 21  1  0  0  0  0
 19 20  1  0  0  0  0
 17 18  1  0  0  0  0
 17 19  2  0  0  0  0
 15 16  1  0  0  0  0
 15 17  1  0  0  0  0
 14 15  1  0  0  0  0
 14 20  2  0  0  0  0
 11 12  1  0  0  0  0
 11 13  1  0  0  0  0
 11 14  1  0  0  0  0
  9 10  1  0  0  0  0
  9 11  1  0  0  0  0
  9 22  1  0  0  0  0
  7  8  1  0  0  0  0
  7  9  1  0  0  0  0
 26 27  1  0  0  0  0
 26 28  1  0  0  0  0
 26 29  1  0  0  0  0
 24 25  1  0  0  0  0
 24 26  1  0  0  0  0
M  END
$$$$
default_name
  -OEChem-01062215323D

 29 29  0     1  0  0  0  0  0999 V2000
   -3.6042   -3.5728    1.4576 H   0  0  0  0  0  0  0  0  0  0  0  0
   -3.5202   -2.6488    0.8866 C   0  0  0  0  0  0  0  0  0  0  0  0
   -4.2052   -1.9048    1.2896 H   0  0  0  0  0  0  0  0  0  0  0  0
   -3.7552   -2.8428   -0.1584 H   0  0  0  0  0  0  0  0  0  0  0  0
   -2.1052   -2.1358    0.9946 C   0  0  0  0  0  0  0  0  0  0  0  0
   -1.2852   -2.7288    1.6826 O   0  0  0  0  0  0  0  0  0  0  0  0
   -1.8202   -1.0288    0.3146 N   0  0  0  0  0  0  0  0  0  0  0  0
   -2.5542   -0.5788   -0.2104 H   0  0  0  0  0  0  0  0  0  0  0  0
   -0.5102   -0.3728    0.3086 C   0  0  1  0  0  0  0  0  0  0  0  0
   -0.2731   -0.0564    1.3254 H   0  0  0  0  0  0  0  0  0  0  0  0
    0.5597   -1.3857   -0.1392 C   0  0  0  0  0  0  0  0  0  0  0  0
    0.2925   -1.7763   -1.1227 H   0  0  0  0  0  0  0  0  0  0  0  0
    1.5188   -0.8727   -0.2311 H   0  0  0  0  0  0  0  0  0  0  0  0
    0.7268   -2.5455    0.8079 C   0  0  0  0  0  0  0  0  0  0  0  0
    1.3597   -2.5145    2.0320 N   0  0  0  0  0  0  0  0  0  0  0  0
    1.8617   -1.7312    2.4225 H   0  0  0  0  0  0  0  0  0  0  0  0
    1.1964   -3.7141    2.6148 C   0  0  0  0  0  0  0  0  0  0  0  0
    1.5871   -3.9974    3.5844 H   0  0  0  0  0  0  0  0  0  0  0  0
    0.4723   -4.5198    1.8242 N   0  0  0  0  0  0  0  0  0  0  0  0
    0.1716   -3.7899    0.6712 C   0  0  0  0  0  0  0  0  0  0  0  0
   -0.4245   -4.1325   -0.1647 H   0  0  0  0  0  0  0  0  0  0  0  0
   -0.5310    0.8815   -0.5815 C   0  0  0  0  0  0  0  0  0  0  0  0
   -0.2332    0.8000   -1.7728 O   0  0  0  0  0  0  0  0  0  0  0  0
   -0.8647    2.0418   -0.0027 N   0  0  0  0  0  0  0  0  0  0  0  0
   -1.0428    2.0358    0.9909 H   0  0  0  0  0  0  0  0  0  0  0  0
   -0.9390    3.3217   -0.7024 C   0  0  0  0  0  0  0  0  0  0  0  0
   -1.6742    3.2601   -1.5079 H   0  0  0  0  0  0  0  0  0  0  0  0
   -1.2313    4.1112   -0.0095 H   0  0  0  0  0  0  0  0  0  0  0  0
    0.0324    3.5644   -1.1359 H   0  0  0  0  0  0  0  0  0  0  0  0
  5  6  2  0  0  0  0
  5  7  1  0  0  0  0
  2  3  1  0  0  0  0
  2  4  1  0  0  0  0
  2  5  1  0  0  0  0
  1  2  1  0  0  0  0
 22 23  2  0  0  0  0
 22 24  1  0  0  0  0
 20 21  1  0  0  0  0
 19 20  1  0  0  0  0
 17 18  1  0  0  0  0
 17 19  2  0  0  0  0
 15 16  1  0  0  0  0
 15 17  1  0  0  0  0
 14 15  1  0  0  0  0
 14 20  2  0  0  0  0
 11 12  1  0  0  0  0
 11 13  1  0  0  0  0
 11 14  1  0  0  0  0
  9 10  1  0  0  0  0
  9 11  1  0  0  0  0
  9 22  1  0  0  0  0
  7  8  1  0  0  0  0
  7  9  1  0  0  0  0
 26 27  1  0  0  0  0
 26 28  1  0  0  0  0
 26 29  1  0  0  0  0
 24 25  1  0  0  0  0
 24 26  1  0  0  0  0
M  END
$$$$
default_name
  -OEChem-01062215323D

 29 29  0     1  0  0  0  0  0999 V2000
   -3.6042   -3.5728    1.4576 H   0  0  0  0  0  0  0  0  0  0  0  0
   -3.5202   -2.6488    0.8866 C   0  0  0  0  0  0  0  0  0  0  0  0
   -4.2052   -1.9048    1.2896 H   0  0  0  0  0  0  0  0  0  0  0  0
   -3.7552   -2.8428   -0.1584 H   0  0  0  0  0  0  0  0  0  0  0  0
   -2.1052   -2.1358    0.9946 C   0  0  0  0  0  0  0  0  0  0  0  0
   -1.2852   -2.7288    1.6826 O   0  0  0  0  0  0  0  0  0  0  0  0
   -1.8202   -1.0288    0.3146 N   0  0  0  0  0  0  0  0  0  0  0  0
   -2.5542   -0.5788   -0.2104 H   0  0  0  0  0  0  0  0  0  0  0  0
   -0.5102   -0.3728    0.3086 C   0  0  1  0  0  0  0  0  0  0  0  0
   -0.2731   -0.0564    1.3254 H   0  0  0  0  0  0  0  0  0  0  0  0
    0.5597   -1.3857   -0.1392 C   0  0  0  0  0  0  0  0  0  0  0  0
    0.2925   -1.7763   -1.1227 H   0  0  0  0  0  0  0  0  0  0  0  0
    1.5188   -0.8727   -0.2311 H   0  0  0  0  0  0  0  0  0  0  0  0
    0.7268   -2.5455    0.8079 C   0  0  0  0  0  0  0  0  0  0  0  0
    1.3597   -2.5145    2.0320 N   0  0  0  0  0  0  0  0  0  0  0  0
    1.8617   -1.7312    2.4225 H   0  0  0  0  0  0  0  0  0  0  0  0
    1.1964   -3.7141    2.6148 C   0  0  0  0  0  0  0  0  0  0  0  0
    1.5871   -3.9974    3.5844 H   0  0  0  0  0  0  0  0  0  0  0  0
    0.4723   -4.5198    1.8242 N   0  0  0  0  0  0  0  0  0  0  0  0
    0.1716   -3.7899    0.6712 C   0  0  0  0  0  0  0  0  0  0  0  0
   -0.4245   -4.1325   -0.1647 H   0  0  0  0  0  0  0  0  0  0  0  0
   -0.5310    0.8815   -0.5815 C   0  0  0  0  0  0  0  0  0  0  0  0
   -0.5072    0.7712   -1.8070 O   0  0  0  0  0  0  0  0  0  0  0  0
   -0.5577    2.0714    0.0318 N   0  0  0  0  0  0  0  0  0  0  0  0
   -0.5207    2.0797    1.0405 H   0  0  0  0  0  0  0  0  0  0  0  0
   -0.5861    3.3566   -0.6614 C   0  0  0  0  0  0  0  0  0  0  0  0
   -1.4757    3.4163   -1.2925 H   0  0  0  0  0  0  0  0  0  0  0  0
   -0.6041    4.1723    0.0619 H   0  0  0  0  0  0  0  0  0  0  0  0
    0.2969    3.4561   -1.2947 H   0  0  0  0  0  0  0  0  0  0  0  0
  5  6  2  0  0  0  0
  5  7  1  0  0  0  0
  2  3  1  0  0  0  0
  2  4  1  0  0  0  0
  2  5  1  0  0  0  0
  1  2  1  0  0  0  0
 22 23  2  0  0  0  0
 22 24  1  0  0  0  0
 20 21  1  0  0  0  0
 19 20  1  0  0  0  0
 17 18  1  0  0  0  0
 17 19  2  0  0  0  0
 15 16  1  0  0  0  0
 15 17  1  0  0  0  0
 14 15  1  0  0  0  0
 14 20  2  0  0  0  0
 11 12  1  0  0  0  0
 11 13  1  0  0  0  0
 11 14  1  0  0  0  0
  9 10  1  0  0  0  0
  9 11  1  0  0  0  0
  9 22  1  0  0  0  0
  7  8  1  0  0  0  0
  7  9  1  0  0  0  0
 26 27  1  0  0  0  0
 26 28  1  0  0  0  0
 26 29  1  0  0  0  0
 24 25  1  0  0  0  0
 24 26  1  0  0  0  0
M  END
$$$$
default_name
  -OEChem-01062215323D

 29 29  0     1  0  0  0  0  0999 V2000
   -3.6042   -3.5728    1.4576 H   0  0  0  0  0  0  0  0  0  0  0  0
   -3.5202   -2.6488    0.8866 C   0  0  0  0  0  0  0  0  0  0  0  0
   -4.2052   -1.9048    1.2896 H   0  0  0  0  0  0  0  0  0  0  0  0
   -3.7552   -2.8428   -0.1584 H   0  0  0  0  0  0  0  0  0  0  0  0
   -2.1052   -2.1358    0.9946 C   0  0  0  0  0  0  0  0  0  0  0  0
   -1.2852   -2.7288    1.6826 O   0  0  0  0  0  0  0  0  0  0  0  0
   -1.8202   -1.0288    0.3146 N   0  0  0  0  0  0  0  0  0  0  0  0
   -2.5542   -0.5788   -0.2104 H   0  0  0  0  0  0  0  0  0  0  0  0
   -0.5102   -0.3728    0.3086 C   0  0  1  0  0  0  0  0  0  0  0  0
   -0.2731   -0.0564    1.3254 H   0  0  0  0  0  0  0  0  0  0  0  0
    0.5597   -1.3857   -0.1392 C   0  0  0  0  0  0  0  0  0  0  0  0
    0.2925   -1.7763   -1.1227 H   0  0  0  0  0  0  0  0  0  0  0  0
    1.5188   -0.8727   -0.2311 H   0  0  0  0  0  0  0  0  0  0  0  0
    0.7268   -2.5455    0.8079 C   0  0  0  0  0  0  0  0  0  0  0  0
    1.3597   -2.5145    2.0320 N   0  0  0  0  0  0  0  0  0  0  0  0
    1.8617   -1.7312    2.4225 H   0  0  0  0  0  0  0  0  0  0  0  0
    1.1964   -3.7141    2.6148 C   0  0  0  0  0  0  0  0  0  0  0  0
    1.5871   -3.9974    3.5844 H   0  0  0  0  0  0  0  0  0  0  0  0
    0.4723   -4.5198    1.8242 N   0  0  0  0  0  0  0  0  0  0  0  0
    0.1716   -3.7899    0.6712 C   0  0  0  0  0  0  0  0  0  0  0  0
   -0.4245   -4.1325   -0.1647 H   0  0  0  0  0  0  0  0  0  0  0  0
   -0.5310    0.8815   -0.5815 C   0  0  0  0  0  0  0  0  0  0  0  0
   -0.7835    0.7843   -1.7821 O   0  0  0  0  0  0  0  0  0  0  0  0
   -0.2494    2.0541    0.0002 N   0  0  0  0  0  0  0  0  0  0  0  0
    0.0007    2.0440    0.9781 H   0  0  0  0  0  0  0  0  0  0  0  0
   -0.2314    3.3376   -0.6965 C   0  0  0  0  0  0  0  0  0  0  0  0
   -1.2151    3.5381   -1.1269 H   0  0  0  0  0  0  0  0  0  0  0  0
    0.0260    4.1376   -0.0017 H   0  0  0  0  0  0  0  0  0  0  0  0
    0.5026    3.3114   -1.5034 H   0  0  0  0  0  0  0  0  0  0  0  0
  5  6  2  0  0  0  0
  5  7  1  0  0  0  0
  2  3  1  0  0  0  0
  2  4  1  0  0  0  0
  2  5  1  0  0  0  0
  1  2  1  0  0  0  0
 22 23  2  0  0  0  0
 22 24  1  0  0  0  0
 20 21  1  0  0  0  0
 19 20  1  0  0  0  0
 17 18  1  0  0  0  0
 17 19  2  0  0  0  0
 15 16  1  0  0  0  0
 15 17  1  0  0  0  0
 14 15  1  0  0  0  0
 14 20  2  0  0  0  0
 11 12  1  0  0  0  0
 11 13  1  0  0  0  0
 11 14  1  0  0  0  0
  9 10  1  0  0  0  0
  9 11  1  0  0  0  0
  9 22  1  0  0  0  0
  7  8  1  0  0  0  0
  7  9  1  0  0  0  0
 26 27  1  0  0  0  0
 26 28  1  0  0  0  0
 26 29  1  0  0  0  0
 24 25  1  0  0  0  0
 24 26  1  0  0  0  0
M  END
$$$$
default_name
  -OEChem-01062215323D

 29 29  0     1  0  0  0  0  0999 V2000
   -3.6042   -3.5728    1.4576 H   0  0  0  0  0  0  0  0  0  0  0  0
   -3.5202   -2.6488    0.8866 C   0  0  0  0  0  0  0  0  0  0  0  0
   -4.2052   -1.9048    1.2896 H   0  0  0  0  0  0  0  0  0  0  0  0
   -3.7552   -2.8428   -0.1584 H   0  0  0  0  0  0  0  0  0  0  0  0
   -2.1052   -2.1358    0.9946 C   0  0  0  0  0  0  0  0  0  0  0  0
   -1.2852   -2.7288    1.6826 O   0  0  0  0  0  0  0  0  0  0  0  0
   -1.8202   -1.0288    0.3146 N   0  0  0  0  0  0  0  0  0  0  0  0
   -2.5542   -0.5788   -0.2104 H   0  0  0  0  0  0  0  0  0  0  0  0
   -0.5102   -0.3728    0.3086 C   0  0  1  0  0  0  0  0  0  0  0  0
   -0.2731   -0.0564    1.3254 H   0  0  0  0  0  0  0  0  0  0  0  0
    0.5597   -1.3857   -0.1392 C   0  0  0  0  0  0  0  0  0  0  0  0
    0.2925   -1.7763   -1.1227 H   0  0  0  0  0  0  0  0  0  0  0  0
    1.5188   -0.8727   -0.2311 H   0  0  0  0  0  0  0  0  0  0  0  0
    0.7268   -2.5455    0.8079 C   0  0  0  0  0  0  0  0  0  0  0  0
    1.3597   -2.5145    2.0320 N   0  0  0  0  0  0  0  0  0  0  0  0
    1.8617   -1.7312    2.4225 H   0  0  0  0  0  0  0  0  0  0  0  0
    1.1964   -3.7141    2.6148 C   0  0  0  0  0  0  0  0  0  0  0  0
    1.5871   -3.9974    3.5844 H   0  0  0  0  0  0  0  0  0  0  0  0
    0.4723   -4.5198    1.8242 N   0  0  0  0  0  0  0  0  0  0  0  0
    0.1716   -3.7899    0.6712 C   0  0  0  0  0  0  0  0  0  0  0  0
   -0.4245   -4.1325   -0.1647 H   0  0  0  0  0  0  0  0  0  0  0  0
   -0.5310    0.8815   -0.5815 C   0  0  0  0  0  0  0  0  0  0  0  0
   -1.0432    0.8384   -1.6998 O   0  0  0  0  0  0  0  0  0  0  0  0
    0.0391    1.9911   -0.0953 N   0  0  0  0  0  0  0  0  0  0  0  0
    0.4859    1.9313    0.8079 H   0  0  0  0  0  0  0  0  0  0  0  0
    0.1010    3.2660   -0.8051 C   0  0  0  0  0  0  0  0  0  0  0  0
   -0.9102    3.6174   -1.0223 H   0  0  0  0  0  0  0  0  0  0  0  0
    0.6160    4.0095   -0.1961 H   0  0  0  0  0  0  0  0  0  0  0  0
    0.6355    3.1401   -1.7480 H   0  0  0  0  0  0  0  0  0  0  0  0
  5  6  2  0  0  0  0
  5  7  1  0  0  0  0
  2  3  1  0  0  0  0
  2  4  1  0  0  0  0
  2  5  1  0  0  0  0
  1  2  1  0  0  0  0
 22 23  2  0  0  0  0
 22 24  1  0  0  0  0
 20 21  1  0  0  0  0
 19 20  1  0  0  0  0
 17 18  1  0  0  0  0
 17 19  2  0  0  0  0
 15 16  1  0  0  0  0
 15 17  1  0  0  0  0
 14 15  1  0  0  0  0
 14 20  2  0  0  0  0
 11 12  1  0  0  0  0
 11 13  1  0  0  0  0
 11 14  1  0  0  0  0
  9 10  1  0  0  0  0
  9 11  1  0  0  0  0
  9 22  1  0  0  0  0
  7  8  1  0  0  0  0
  7  9  1  0  0  0  0
 26 27  1  0  0  0  0
 26 28  1  0  0  0  0
 26 29  1  0  0  0  0
 24 25  1  0  0  0  0
 24 26  1  0  0  0  0
M  END
$$$$
default_name
  -OEChem-01062215323D

 29 29  0     1  0  0  0  0  0999 V2000
   -3.6042   -3.5728    1.4576 H   0  0  0  0  0  0  0  0  0  0  0  0
   -3.5202   -2.6488    0.8866 C   0  0  0  0  0  0  0  0  0  0  0  0
   -4.2052   -1.9048    1.2896 H   0  0  0  0  0  0  0  0  0  0  0  0
   -3.7552   -2.8428   -0.1584 H   0  0  0  0  0  0  0  0  0  0  0  0
   -2.1052   -2.1358    0.9946 C   0  0  0  0  0  0  0  0  0  0  0  0
   -1.2852   -2.7288    1.6826 O   0  0  0  0  0  0  0  0  0  0  0  0
   -1.8202   -1.0288    0.3146 N   0  0  0  0  0  0  0  0  0  0  0  0
   -2.5542   -0.5788   -0.2104 H   0  0  0  0  0  0  0  0  0  0  0  0
   -0.5102   -0.3728    0.3086 C   0  0  1  0  0  0  0  0  0  0  0  0
   -0.2731   -0.0564    1.3254 H   0  0  0  0  0  0  0  0  0  0  0  0
    0.5597   -1.3857   -0.1392 C   0  0  0  0  0  0  0  0  0  0  0  0
    0.2925   -1.7763   -1.1227 H   0  0  0  0  0  0  0  0  0  0  0  0
    1.5188   -0.8727   -0.2311 H   0  0  0  0  0  0  0  0  0  0  0  0
    0.7268   -2.5455    0.8079 C   0  0  0  0  0  0  0  0  0  0  0  0
    1.3597   -2.5145    2.0320 N   0  0  0  0  0  0  0  0  0  0  0  0
    1.8617   -1.7312    2.4225 H   0  0  0  0  0  0  0  0  0  0  0  0
    1.1964   -3.7141    2.6148 C   0  0  0  0  0  0  0  0  0  0  0  0
    1.5871   -3.9974    3.5844 H   0  0  0  0  0  0  0  0  0  0  0  0
    0.4723   -4.5198    1.8242 N   0  0  0  0  0  0  0  0  0  0  0  0
    0.1716   -3.7899    0.6712 C   0  0  0  0  0  0  0  0  0  0  0  0
   -0.4245   -4.1325   -0.1647 H   0  0  0  0  0  0  0  0  0  0  0  0
   -0.5310    0.8815   -0.5815 C   0  0  0  0  0  0  0  0  0  0  0  0
   -1.2685    0.9299   -1.5656 O   0  0  0  0  0  0  0  0  0  0  0  0
    0.2882    1.8867   -0.2482 N   0  0  0  0  0  0  0  0  0  0  0  0
    0.9016    1.7492    0.5415 H   0  0  0  0  0  0  0  0  0  0  0  0
    0.3884    3.1467   -0.9800 C   0  0  0  0  0  0  0  0  0  0  0  0
   -0.5818    3.6486   -0.9860 H   0  0  0  0  0  0  0  0  0  0  0  0
    1.1256    3.7968   -0.5078 H   0  0  0  0  0  0  0  0  0  0  0  0
    0.6867    2.9538   -2.0117 H   0  0  0  0  0  0  0  0  0  0  0  0
  5  6  2  0  0  0  0
  5  7  1  0  0  0  0
  2  3  1  0  0  0  0
  2  4  1  0  0  0  0
  2  5  1  0  0  0  0
  1  2  1  0  0  0  0
 22 23  2  0  0  0  0
 22 24  1  0  0  0  0
 20 21  1  0  0  0  0
 19 20  1  0  0  0  0
 17 18  1  0  0  0  0
 17 19  2  0  0  0  0
 15 16  1  0  0  0  0
 15 17  1  0  0  0  0
 14 15  1  0  0  0  0
 14 20  2  0  0  0  0
 11 12  1  0  0  0  0
 11 13  1  0  0  0  0
 11 14  1  0  0  0  0
  9 10  1  0  0  0  0
  9 11  1  0  0  0  0
  9 22  1  0  0  0  0
  7  8  1  0  0  0  0
  7  9  1  0  0  0  0
 26 27  1  0  0  0  0
 26 28  1  0  0  0  0
 26 29  1  0  0  0  0
 24 25  1  0  0  0  0
 24 26  1  0  0  0  0
M  END
$$$$
default_name
  -OEChem-01062215323D

 29 29  0     1  0  0  0  0  0999 V2000
   -3.6042   -3.5728    1.4576 H   0  0  0  0  0  0  0  0  0  0  0  0
   -3.5202   -2.6488    0.8866 C   0  0  0  0  0  0  0  0  0  0  0  0
   -4.2052   -1.9048    1.2896 H   0  0  0  0  0  0  0  0  0  0  0  0
   -3.7552   -2.8428   -0.1584 H   0  0  0  0  0  0  0  0  0  0  0  0
   -2.1052   -2.1358    0.9946 C   0  0  0  0  0  0  0  0  0  0  0  0
   -1.2852   -2.7288    1.6826 O   0  0  0  0  0  0  0  0  0  0  0  0
   -1.8202   -1.0288    0.3146 N   0  0  0  0  0  0  0  0  0  0  0  0
   -2.5542   -0.5788   -0.2104 H   0  0  0  0  0  0  0  0  0  0  0  0
   -0.5102   -0.3728    0.3086 C   0  0  1  0  0  0  0  0  0  0  0  0
   -0.2731   -0.0564    1.3254 H   0  0  0  0  0  0  0  0  0  0  0  0
    0.5597   -1.3857   -0.1392 C   0  0  0  0  0  0  0  0  0  0  0  0
    0.2925   -1.7763   -1.1227 H   0  0  0  0  0  0  0  0  0  0  0  0
    1.5188   -0.8727   -0.2311 H   0  0  0  0  0  0  0  0  0  0  0  0
    0.7268   -2.5455    0.8079 C   0  0  0  0  0  0  0  0  0  0  0  0
    1.3597   -2.5145    2.0320 N   0  0  0  0  0  0  0  0  0  0  0  0
    1.8617   -1.7312    2.4225 H   0  0  0  0  0  0  0  0  0  0  0  0
    1.1964   -3.7141    2.6148 C   0  0  0  0  0  0  0  0  0  0  0  0
    1.5871   -3.9974    3.5844 H   0  0  0  0  0  0  0  0  0  0  0  0
    0.4723   -4.5198    1.8242 N   0  0  0  0  0  0  0  0  0  0  0  0
    0.1716   -3.7899    0.6712 C   0  0  0  0  0  0  0  0  0  0  0  0
   -0.4245   -4.1325   -0.1647 H   0  0  0  0  0  0  0  0  0  0  0  0
   -0.5310    0.8815   -0.5815 C   0  0  0  0  0  0  0  0  0  0  0  0
   -1.4441    1.0524   -1.3888 O   0  0  0  0  0  0  0  0  0  0  0  0
    0.4808    1.7480   -0.4481 N   0  0  0  0  0  0  0  0  0  0  0  0
    1.2198    1.5100    0.1971 H   0  0  0  0  0  0  0  0  0  0  0  0
    0.6113    2.9878   -1.2091 C   0  0  0  0  0  0  0  0  0  0  0  0
   -0.2521    3.6297   -1.0203 H   0  0  0  0  0  0  0  0  0  0  0  0
    1.5203    3.5138   -0.9158 H   0  0  0  0  0  0  0  0  0  0  0  0
    0.6525    2.7653   -2.2765 H   0  0  0  0  0  0  0  0  0  0  0  0
  5  6  2  0  0  0  0
  5  7  1  0  0  0  0
  2  3  1  0  0  0  0
  2  4  1  0  0  0  0
  2  5  1  0  0  0  0
  1  2  1  0  0  0  0
 22 23  2  0  0  0  0
 22 24  1  0  0  0  0
 20 21  1  0  0  0  0
 19 20  1  0  0  0  0
 17 18  1  0  0  0  0
 17 19  2  0  0  0  0
 15 16  1  0  0  0  0
 15 17  1  0  0  0  0
 14 15  1  0  0  0  0
 14 20  2  0  0  0  0
 11 12  1  0  0  0  0
 11 13  1  0  0  0  0
 11 14  1  0  0  0  0
  9 10  1  0  0  0  0
  9 11  1  0  0  0  0
  9 22  1  0  0  0  0
  7  8  1  0  0  0  0
  7  9  1  0  0  0  0
 26 27  1  0  0  0  0
 26 28  1  0  0  0  0
 26 29  1  0  0  0  0
 24 25  1  0  0  0  0
 24 26  1  0  0  0  0
M  END
$$$$
default_name
  -OEChem-01062215323D

 29 29  0     1  0  0  0  0  0999 V2000
   -3.6042   -3.5728    1.4576 H   0  0  0  0  0  0  0  0  0  0  0  0
   -3.5202   -2.6488    0.8866 C   0  0  0  0  0  0  0  0  0  0  0  0
   -4.2052   -1.9048    1.2896 H   0  0  0  0  0  0  0  0  0  0  0  0
   -3.7552   -2.8428   -0.1584 H   0  0  0  0  0  0  0  0  0  0  0  0
   -2.1052   -2.1358    0.9946 C   0  0  0  0  0  0  0  0  0  0  0  0
   -1.2852   -2.7288    1.6826 O   0  0  0  0  0  0  0  0  0  0  0  0
   -1.8202   -1.0288    0.3146 N   0  0  0  0  0  0  0  0  0  0  0  0
   -2.5542   -0.5788   -0.2104 H   0  0  0  0  0  0  0  0  0  0  0  0
   -0.5102   -0.3728    0.3086 C   0  0  1  0  0  0  0  0  0  0  0  0
   -0.1523   -0.2975    1.3364 H   0  0  0  0  0  0  0  0  0  0  0  0
    0.4856   -1.2409   -0.4825 C   0  0  0  0  0  0  0  0  0  0  0  0
    0.1007   -1.3966   -1.4918 H   0  0  0  0  0  0  0  0  0  0  0  0
    1.4351   -0.7086   -0.5638 H   0  0  0  0  0  0  0  0  0  0  0  0
    0.7442   -2.5863    0.1446 C   0  0  0  0  0  0  0  0  0  0  0  0
    1.5149   -2.8316    1.2608 N   0  0  0  0  0  0  0  0  0  0  0  0
    2.0702   -2.1536    1.7610 H   0  0  0  0  0  0  0  0  0  0  0  0
    1.4026   -4.1355    1.5651 C   0  0  0  0  0  0  0  0  0  0  0  0
    1.8987   -4.6306    2.3909 H   0  0  0  0  0  0  0  0  0  0  0  0
    0.5801   -4.7453    0.6991 N   0  0  0  0  0  0  0  0  0  0  0  0
    0.1587   -3.7722   -0.2108 C   0  0  0  0  0  0  0  0  0  0  0  0
   -0.5351   -3.9195   -1.0284 H   0  0  0  0  0  0  0  0  0  0  0  0
   -0.6155    1.0531   -0.2585 C   0  0  0  0  0  0  0  0  0  0  0  0
   -1.7003    1.4867   -0.6457 O   0  0  0  0  0  0  0  0  0  0  0  0
    0.5105    1.7744   -0.3241 N   0  0  0  0  0  0  0  0  0  0  0  0
    1.3698    1.3290   -0.0374 H   0  0  0  0  0  0  0  0  0  0  0  0
    0.5857    3.1429   -0.8287 C   0  0  0  0  0  0  0  0  0  0  0  0
   -0.0556    3.7933   -0.2296 H   0  0  0  0  0  0  0  0  0  0  0  0
    1.6127    3.5056   -0.7771 H   0  0  0  0  0  0  0  0  0  0  0  0
    0.2438    3.1757   -1.8644 H   0  0  0  0  0  0  0  0  0  0  0  0
  5  6  2  0  0  0  0
  5  7  1  0  0  0  0
  2  3  1  0  0  0  0
  2  4  1  0  0  0  0
  2  5  1  0  0  0  0
  1  2  1  0  0  0  0
 22 23  2  0  0  0  0
 22 24  1  0  0  0  0
 20 21  1  0  0  0  0
 19 20  1  0  0  0  0
 17 18  1  0  0  0  0
 17 19  2  0  0  0  0
 15 16  1  0  0  0  0
 15 17  1  0  0  0  0
 14 15  1  0  0  0  0
 14 20  2  0  0  0  0
 11 12  1  0  0  0  0
 11 13  1  0  0  0  0
 11 14  1  0  0  0  0
  9 10  1  0  0  0  0
  9 11  1  0  0  0  0
  9 22  1  0  0  0  0
  7  8  1  0  0  0  0
  7  9  1  0  0  0  0
 26 27  1  0  0  0  0
 26 28  1  0  0  0  0
 26 29  1  0  0  0  0
 24 25  1  0  0  0  0
 24 26  1  0  0  0  0
M  END
$$$$
default_name
  -OEChem-01062215323D

 29 29  0     1  0  0  0  0  0999 V2000
   -3.6042   -3.5728    1.4576 H   0  0  0  0  0  0  0  0  0  0  0  0
   -3.5202   -2.6488    0.8866 C   0  0  0  0  0  0  0  0  0  0  0  0
   -4.2052   -1.9048    1.2896 H   0  0  0  0  0  0  0  0  0  0  0  0
   -3.7552   -2.8428   -0.1584 H   0  0  0  0  0  0  0  0  0  0  0  0
   -2.1052   -2.1358    0.9946 C   0  0  0  0  0  0  0  0  0  0  0  0
   -1.2852   -2.7288    1.6826 O   0  0  0  0  0  0  0  0  0  0  0  0
   -1.8202   -1.0288    0.3146 N   0  0  0  0  0  0  0  0  0  0  0  0
   -2.5542   -0.5788   -0.2104 H   0  0  0  0  0  0  0  0  0  0  0  0
   -0.5102   -0.3728    0.3086 C   0  0  1  0  0  0  0  0  0  0  0  0
   -0.1523   -0.2975    1.3364 H   0  0  0  0  0  0  0  0  0  0  0  0
    0.4856   -1.2409   -0.4825 C   0  0  0  0  0  0  0  0  0  0  0  0
    0.1007   -1.3966   -1.4918 H   0  0  0  0  0  0  0  0  0  0  0  0
    1.4351   -0.7086   -0.5638 H   0  0  0  0  0  0  0  0  0  0  0  0
    0.7442   -2.5863    0.1446 C   0  0  0  0  0  0  0  0  0  0  0  0
    1.5149   -2.8316    1.2608 N   0  0  0  0  0  0  0  0  0  0  0  0
    2.0702   -2.1536    1.7610 H   0  0  0  0  0  0  0  0  0  0  0  0
    1.4026   -4.1355    1.5651 C   0  0  0  0  0  0  0  0  0  0  0  0
    1.8987   -4.6306    2.3909 H   0  0  0  0  0  0  0  0  0  0  0  0
    0.5801   -4.7453    0.6991 N   0  0  0  0  0  0  0  0  0  0  0  0
    0.1587   -3.7722   -0.2108 C   0  0  0  0  0  0  0  0  0  0  0  0
   -0.5351   -3.9195   -1.0284 H   0  0  0  0  0  0  0  0  0  0  0  0
   -0.6155    1.0531   -0.2585 C   0  0  0  0  0  0  0  0  0  0  0  0
   -1.7163    1.5881   -0.3877 O   0  0  0  0  0  0  0  0  0  0  0  0
    0.5238    1.6607   -0.6126 N   0  0  0  0  0  0  0  0  0  0  0  0
    1.3815    1.1352   -0.5267 H   0  0  0  0  0  0  0  0  0  0  0  0
    0.6026    3.0122   -1.1604 C   0  0  0  0  0  0  0  0  0  0  0  0
    0.1880    3.7257   -0.4447 H   0  0  0  0  0  0  0  0  0  0  0  0
    1.6410    3.2733   -1.3665 H   0  0  0  0  0  0  0  0  0  0  0  0
    0.0260    3.0720   -2.0848 H   0  0  0  0  0  0  0  0  0  0  0  0
  5  6  2  0  0  0  0
  5  7  1  0  0  0  0
  2  3  1  0  0  0  0
  2  4  1  0  0  0  0
  2  5  1  0  0  0  0
  1  2  1  0  0  0  0
 22 23  2  0  0  0  0
 22 24  1  0  0  0  0
 20 21  1  0  0  0  0
 19 20  1  0  0  0  0
 17 18  1  0  0  0  0
 17 19  2  0  0  0  0
 15 16  1  0  0  0  0
 15 17  1  0  0  0  0
 14 15  1  0  0  0  0
 14 20  2  0  0  0  0
 11 12  1  0  0  0  0
 11 13  1  0  0  0  0
 11 14  1  0  0  0  0
  9 10  1  0  0  0  0
  9 11  1  0  0  0  0
  9 22  1  0  0  0  0
  7  8  1  0  0  0  0
  7  9  1  0  0  0  0
 26 27  1  0  0  0  0
 26 28  1  0  0  0  0
 26 29  1  0  0  0  0
 24 25  1  0  0  0  0
 24 26  1  0  0  0  0
M  END
$$$$
default_name
  -OEChem-01062215323D

 29 29  0     1  0  0  0  0  0999 V2000
   -3.6042   -3.5728    1.4576 H   0  0  0  0  0  0  0  0  0  0  0  0
   -3.5202   -2.6488    0.8866 C   0  0  0  0  0  0  0  0  0  0  0  0
   -4.2052   -1.9048    1.2896 H   0  0  0  0  0  0  0  0  0  0  0  0
   -3.7552   -2.8428   -0.1584 H   0  0  0  0  0  0  0  0  0  0  0  0
   -2.1052   -2.1358    0.9946 C   0  0  0  0  0  0  0  0  0  0  0  0
   -1.2852   -2.7288    1.6826 O   0  0  0  0  0  0  0  0  0  0  0  0
   -1.8202   -1.0288    0.3146 N   0  0  0  0  0  0  0  0  0  0  0  0
   -2.5542   -0.5788   -0.2104 H   0  0  0  0  0  0  0  0  0  0  0  0
   -0.5102   -0.3728    0.3086 C   0  0  1  0  0  0  0  0  0  0  0  0
   -0.1523   -0.2975    1.3364 H   0  0  0  0  0  0  0  0  0  0  0  0
    0.4856   -1.2409   -0.4825 C   0  0  0  0  0  0  0  0  0  0  0  0
    0.1007   -1.3966   -1.4918 H   0  0  0  0  0  0  0  0  0  0  0  0
    1.4351   -0.7086   -0.5638 H   0  0  0  0  0  0  0  0  0  0  0  0
    0.7442   -2.5863    0.1446 C   0  0  0  0  0  0  0  0  0  0  0  0
    1.5149   -2.8316    1.2608 N   0  0  0  0  0  0  0  0  0  0  0  0
    2.0702   -2.1536    1.7610 H   0  0  0  0  0  0  0  0  0  0  0  0
    1.4026   -4.1355    1.5651 C   0  0  0  0  0  0  0  0  0  0  0  0
    1.8987   -4.6306    2.3909 H   0  0  0  0  0  0  0  0  0  0  0  0
    0.5801   -4.7453    0.6991 N   0  0  0  0  0  0  0  0  0  0  0  0
    0.1587   -3.7722   -0.2108 C   0  0  0  0  0  0  0  0  0  0  0  0
   -0.5351   -3.9195   -1.0284 H   0  0  0  0  0  0  0  0  0  0  0  0
   -0.6155    1.0531   -0.2585 C   0  0  0  0  0  0  0  0  0  0  0  0
   -1.6602    1.6922   -0.1364 O   0  0  0  0  0  0  0  0  0  0  0  0
    0.4566    1.5444   -0.8924 N   0  0  0  0  0  0  0  0  0  0  0  0
    1.2568    0.9383   -0.9986 H   0  0  0  0  0  0  0  0  0  0  0  0
    0.5268    2.8785   -1.4826 C   0  0  0  0  0  0  0  0  0  0  0  0
    0.3652    3.6334   -0.7098 H   0  0  0  0  0  0  0  0  0  0  0  0
    1.5048    3.0357   -1.9386 H   0  0  0  0  0  0  0  0  0  0  0  0
   -0.2473    2.9886   -2.2437 H   0  0  0  0  0  0  0  0  0  0  0  0
  5  6  2  0  0  0  0
  5  7  1  0  0  0  0
  2  3  1  0  0  0  0
  2  4  1  0  0  0  0
  2  5  1  0  0  0  0
  1  2  1  0  0  0  0
 22 23  2  0  0  0  0
 22 24  1  0  0  0  0
 20 21  1  0  0  0  0
 19 20  1  0  0  0  0
 17 18  1  0  0  0  0
 17 19  2  0  0  0  0
 15 16  1  0  0  0  0
 15 17  1  0  0  0  0
 14 15  1  0  0  0  0
 14 20  2  0  0  0  0
 11 12  1  0  0  0  0
 11 13  1  0  0  0  0
 11 14  1  0  0  0  0
  9 10  1  0  0  0  0
  9 11  1  0  0  0  0
  9 22  1  0  0  0  0
  7  8  1  0  0  0  0
  7  9  1  0  0  0  0
 26 27  1  0  0  0  0
 26 28  1  0  0  0  0
 26 29  1  0  0  0  0
 24 25  1  0  0  0  0
 24 26  1  0  0  0  0
M  END
$$$$
default_name
  -OEChem-01062215323D

 29 29  0     1  0  0  0  0  0999 V2000
   -3.6042   -3.5728    1.4576 H   0  0  0  0  0  0  0  0  0  0  0  0
   -3.5202   -2.6488    0.8866 C   0  0  0  0  0  0  0  0  0  0  0  0
   -4.2052   -1.9048    1.2896 H   0  0  0  0  0  0  0  0  0  0  0  0
   -3.7552   -2.8428   -0.1584 H   0  0  0  0  0  0  0  0  0  0  0  0
   -2.1052   -2.1358    0.9946 C   0  0  0  0  0  0  0  0  0  0  0  0
   -1.2852   -2.7288    1.6826 O   0  0  0  0  0  0  0  0  0  0  0  0
   -1.8202   -1.0288    0.3146 N   0  0  0  0  0  0  0  0  0  0  0  0
   -2.5542   -0.5788   -0.2104 H   0  0  0  0  0  0  0  0  0  0  0  0
   -0.5102   -0.3728    0.3086 C   0  0  1  0  0  0  0  0  0  0  0  0
   -0.1523   -0.2975    1.3364 H   0  0  0  0  0  0  0  0  0  0  0  0
    0.4856   -1.2409   -0.4825 C   0  0  0  0  0  0  0  0  0  0  0  0
    0.1007   -1.3966   -1.4918 H   0  0  0  0  0  0  0  0  0  0  0  0
    1.4351   -0.7086   -0.5638 H   0  0  0  0  0  0  0  0  0  0  0  0
    0.7442   -2.5863    0.1446 C   0  0  0  0  0  0  0  0  0  0  0  0
    1.5149   -2.8316    1.2608 N   0  0  0  0  0  0  0  0  0  0  0  0
    2.0702   -2.1536    1.7610 H   0  0  0  0  0  0  0  0  0  0  0  0
    1.4026   -4.1355    1.5651 C   0  0  0  0  0  0  0  0  0  0  0  0
    1.8987   -4.6306    2.3909 H   0  0  0  0  0  0  0  0  0  0  0  0
    0.5801   -4.7453    0.6991 N   0  0  0  0  0  0  0  0  0  0  0  0
    0.1587   -3.7722   -0.2108 C   0  0  0  0  0  0  0  0  0  0  0  0
   -0.5351   -3.9195   -1.0284 H   0  0  0  0  0  0  0  0  0  0  0  0
   -0.6155    1.0531   -0.2585 C   0  0  0  0  0  0  0  0  0  0  0  0
   -1.5358    1.7918    0.0910 O   0  0  0  0  0  0  0  0  0  0  0  0
    0.3134    1.4336   -1.1444 N   0  0  0  0  0  0  0  0  0  0  0  0
    1.0044    0.7517   -1.4211 H   0  0  0  0  0  0  0  0  0  0  0  0
    0.3636    2.7509   -1.7733 C   0  0  0  0  0  0  0  0  0  0  0  0
    0.4639    3.5226   -1.0067 H   0  0  0  0  0  0  0  0  0  0  0  0
    1.2132    2.8091   -2.4542 H   0  0  0  0  0  0  0  0  0  0  0  0
   -0.5572    2.9313   -2.3301 H   0  0  0  0  0  0  0  0  0  0  0  0
  5  6  2  0  0  0  0
  5  7  1  0  0  0  0
  2  3  1  0  0  0  0
  2  4  1  0  0  0  0
  2  5  1  0  0  0  0
  1  2  1  0  0  0  0
 22 23  2  0  0  0  0
 22 24  1  0  0  0  0
 20 21  1  0  0  0  0
 19 20  1  0  0  0  0
 17 18  1  0  0  0  0
 17 19  2  0  0  0  0
 15 16  1  0  0  0  0
 15 17  1  0  0  0  0
 14 15  1  0  0  0  0
 14 20  2  0  0  0  0
 11 12  1  0  0  0  0
 11 13  1  0  0  0  0
 11 14  1  0  0  0  0
  9 10  1  0  0  0  0
  9 11  1  0  0  0  0
  9 22  1  0  0  0  0
  7  8  1  0  0  0  0
  7  9  1  0  0  0  0
 26 27  1  0  0  0  0
 26 28  1  0  0  0  0
 26 29  1  0  0  0  0
 24 25  1  0  0  0  0
 24 26  1  0  0  0  0
M  END
$$$$
default_name
  -OEChem-01062215323D

 29 29  0     1  0  0  0  0  0999 V2000
   -3.6042   -3.5728    1.4576 H   0  0  0  0  0  0  0  0  0  0  0  0
   -3.5202   -2.6488    0.8866 C   0  0  0  0  0  0  0  0  0  0  0  0
   -4.2052   -1.9048    1.2896 H   0  0  0  0  0  0  0  0  0  0  0  0
   -3.7552   -2.8428   -0.1584 H   0  0  0  0  0  0  0  0  0  0  0  0
   -2.1052   -2.1358    0.9946 C   0  0  0  0  0  0  0  0  0  0  0  0
   -1.2852   -2.7288    1.6826 O   0  0  0  0  0  0  0  0  0  0  0  0
   -1.8202   -1.0288    0.3146 N   0  0  0  0  0  0  0  0  0  0  0  0
   -2.5542   -0.5788   -0.2104 H   0  0  0  0  0  0  0  0  0  0  0  0
   -0.5102   -0.3728    0.3086 C   0  0  1  0  0  0  0  0  0  0  0  0
   -0.1523   -0.2975    1.3364 H   0  0  0  0  0  0  0  0  0  0  0  0
    0.4856   -1.2409   -0.4825 C   0  0  0  0  0  0  0  0  0  0  0  0
    0.1007   -1.3966   -1.4918 H   0  0  0  0  0  0  0  0  0  0  0  0
    1.4351   -0.7086   -0.5638 H   0  0  0  0  0  0  0  0  0  0  0  0
    0.7442   -2.5863    0.1446 C   0  0  0  0  0  0  0  0  0  0  0  0
    1.5149   -2.8316    1.2608 N   0  0  0  0  0  0  0  0  0  0  0  0
    2.0702   -2.1536    1.7610 H   0  0  0  0  0  0  0  0  0  0  0  0
    1.4026   -4.1355    1.5651 C   0  0  0  0  0  0  0  0  0  0  0  0
    1.8987   -4.6306    2.3909 H   0  0  0  0  0  0  0  0  0  0  0  0
    0.5801   -4.7453    0.6991 N   0  0  0  0  0  0  0  0  0  0  0  0
    0.1587   -3.7722   -0.2108 C   0  0  0  0  0  0  0  0  0  0  0  0
   -0.5351   -3.9195   -1.0284 H   0  0  0  0  0  0  0  0  0  0  0  0
   -0.6155    1.0531   -0.2585 C   0  0  0  0  0  0  0  0  0  0  0  0
   -1.3515    1.8802    0.2790 O   0  0  0  0  0  0  0  0  0  0  0  0
    0.1041    1.3357   -1.3516 N   0  0  0  0  0  0  0  0  0  0  0  0
    0.6414    0.5880   -1.7653 H   0  0  0  0  0  0  0  0  0  0  0  0
    0.1240    2.6380   -2.0126 C   0  0  0  0  0  0  0  0  0  0  0  0
    0.4775    3.4009   -1.3152 H   0  0  0  0  0  0  0  0  0  0  0  0
    0.7863    2.6089   -2.8783 H   0  0  0  0  0  0  0  0  0  0  0  0
   -0.8829    2.9041   -2.3382 H   0  0  0  0  0  0  0  0  0  0  0  0
  5  6  2  0  0  0  0
  5  7  1  0  0  0  0
  2  3  1  0  0  0  0
  2  4  1  0  0  0  0
  2  5  1  0  0  0  0
  1  2  1  0  0  0  0
 22 23  2  0  0  0  0
 22 24  1  0  0  0  0
 20 21  1  0  0  0  0
 19 20  1  0  0  0  0
 17 18  1  0  0  0  0
 17 19  2  0  0  0  0
 15 16  1  0  0  0  0
 15 17  1  0  0  0  0
 14 15  1  0  0  0  0
 14 20  2  0  0  0  0
 11 12  1  0  0  0  0
 11 13  1  0  0  0  0
 11 14  1  0  0  0  0
  9 10  1  0  0  0  0
  9 11  1  0  0  0  0
  9 22  1  0  0  0  0
  7  8  1  0  0  0  0
  7  9  1  0  0  0  0
 26 27  1  0  0  0  0
 26 28  1  0  0  0  0
 26 29  1  0  0  0  0
 24 25  1  0  0  0  0
 24 26  1  0  0  0  0
M  END
$$$$
default_name
  -OEChem-01062215323D

 29 29  0     1  0  0  0  0  0999 V2000
   -3.6042   -3.5728    1.4576 H   0  0  0  0  0  0  0  0  0  0  0  0
   -3.5202   -2.6488    0.8866 C   0  0  0  0  0  0  0  0  0  0  0  0
   -4.2052   -1.9048    1.2896 H   0  0  0  0  0  0  0  0  0  0  0  0
   -3.7552   -2.8428   -0.1584 H   0  0  0  0  0  0  0  0  0  0  0  0
   -2.1052   -2.1358    0.9946 C   0  0  0  0  0  0  0  0  0  0  0  0
   -1.2852   -2.7288    1.6826 O   0  0  0  0  0  0  0  0  0  0  0  0
   -1.8202   -1.0288    0.3146 N   0  0  0  0  0  0  0  0  0  0  0  0
   -2.5542   -0.5788   -0.2104 H   0  0  0  0  0  0  0  0  0  0  0  0
   -0.5102   -0.3728    0.3086 C   0  0  1  0  0  0  0  0  0  0  0  0
   -0.1523   -0.2975    1.3364 H   0  0  0  0  0  0  0  0  0  0  0  0
    0.4856   -1.2409   -0.4825 C   0  0  0  0  0  0  0  0  0  0  0  0
    0.1007   -1.3966   -1.4918 H   0  0  0  0  0  0  0  0  0  0  0  0
    1.4351   -0.7086   -0.5638 H   0  0  0  0  0  0  0  0  0  0  0  0
    0.7442   -2.5863    0.1446 C   0  0  0  0  0  0  0  0  0  0  0  0
    1.5149   -2.8316    1.2608 N   0  0  0  0  0  0  0  0  0  0  0  0
    2.0702   -2.1536    1.7610 H   0  0  0  0  0  0  0  0  0  0  0  0
    1.4026   -4.1355    1.5651 C   0  0  0  0  0  0  0  0  0  0  0  0
    1.8987   -4.6306    2.3909 H   0  0  0  0  0  0  0  0  0  0  0  0
    0.5801   -4.7453    0.6991 N   0  0  0  0  0  0  0  0  0  0  0  0
    0.1587   -3.7722   -0.2108 C   0  0  0  0  0  0  0  0  0  0  0  0
   -0.5351   -3.9195   -1.0284 H   0  0  0  0  0  0  0  0  0  0  0  0
   -0.6155    1.0531   -0.2585 C   0  0  0  0  0  0  0  0  0  0  0  0
   -1.1200    1.9514    0.4149 O   0  0  0  0  0  0  0  0  0  0  0  0
   -0.1571    1.2575   -1.4997 N   0  0  0  0  0  0  0  0  0  0  0  0
    0.1926    0.4584   -2.0078 H   0  0  0  0  0  0  0  0  0  0  0  0
   -0.1757    2.5476   -2.1842 C   0  0  0  0  0  0  0  0  0  0  0  0
    0.4049    3.2765   -1.6143 H   0  0  0  0  0  0  0  0  0  0  0  0
    0.2530    2.4488   -3.1820 H   0  0  0  0  0  0  0  0  0  0  0  0
   -1.2019    2.9087   -2.2674 H   0  0  0  0  0  0  0  0  0  0  0  0
  5  6  2  0  0  0  0
  5  7  1  0  0  0  0
  2  3  1  0  0  0  0
  2  4  1  0  0  0  0
  2  5  1  0  0  0  0
  1  2  1  0  0  0  0
 22 23  2  0  0  0  0
 22 24  1  0  0  0  0
 20 21  1  0  0  0  0
 19 20  1  0  0  0  0
 17 18  1  0  0  0  0
 17 19  2  0  0  0  0
 15 16  1  0  0  0  0
 15 17  1  0  0  0  0
 14 15  1  0  0  0  0
 14 20  2  0  0  0  0
 11 12  1  0  0  0  0
 11 13  1  0  0  0  0
 11 14  1  0  0  0  0
  9 10  1  0  0  0  0
  9 11  1  0  0  0  0
  9 22  1  0  0  0  0
  7  8  1  0  0  0  0
  7  9  1  0  0  0  0
 26 27  1  0  0  0  0
 26 28  1  0  0  0  0
 26 29  1  0  0  0  0
 24 25  1  0  0  0  0
 24 26  1  0  0  0  0
M  END
$$$$
default_name
  -OEChem-01062215323D

 29 29  0     1  0  0  0  0  0999 V2000
   -3.6042   -3.5728    1.4576 H   0  0  0  0  0  0  0  0  0  0  0  0
   -3.5202   -2.6488    0.8866 C   0  0  0  0  0  0  0  0  0  0  0  0
   -4.2052   -1.9048    1.2896 H   0  0  0  0  0  0  0  0  0  0  0  0
   -3.7552   -2.8428   -0.1584 H   0  0  0  0  0  0  0  0  0  0  0  0
   -2.1052   -2.1358    0.9946 C   0  0  0  0  0  0  0  0  0  0  0  0
   -1.2852   -2.7288    1.6826 O   0  0  0  0  0  0  0  0  0  0  0  0
   -1.8202   -1.0288    0.3146 N   0  0  0  0  0  0  0  0  0  0  0  0
   -2.5542   -0.5788   -0.2104 H   0  0  0  0  0  0  0  0  0  0  0  0
   -0.5102   -0.3728    0.3086 C   0  0  1  0  0  0  0  0  0  0  0  0
   -0.1523   -0.2975    1.3364 H   0  0  0  0  0  0  0  0  0  0  0  0
    0.4856   -1.2409   -0.4825 C   0  0  0  0  0  0  0  0  0  0  0  0
    0.1007   -1.3966   -1.4918 H   0  0  0  0  0  0  0  0  0  0  0  0
    1.4351   -0.7086   -0.5638 H   0  0  0  0  0  0  0  0  0  0  0  0
    0.7442   -2.5863    0.1446 C   0  0  0  0  0  0  0  0  0  0  0  0
    1.5149   -2.8316    1.2608 N   0  0  0  0  0  0  0  0  0  0  0  0
    2.0702   -2.1536    1.7610 H   0  0  0  0  0  0  0  0  0  0  0  0
    1.4026   -4.1355    1.5651 C   0  0  0  0  0  0  0  0  0  0  0  0
    1.8987   -4.6306    2.3909 H   0  0  0  0  0  0  0  0  0  0  0  0
    0.5801   -4.7453    0.6991 N   0  0  0  0  0  0  0  0  0  0  0  0
    0.1587   -3.7722   -0.2108 C   0  0  0  0  0  0  0  0  0  0  0  0
   -0.5351   -3.9195   -1.0284 H   0  0  0  0  0  0  0  0  0  0  0  0
   -0.6155    1.0531   -0.2585 C   0  0  0  0  0  0  0  0  0  0  0  0
   -0.8569    2.0004    0.4893 O   0  0  0  0  0  0  0  0  0  0  0  0
   -0.4525    1.2043   -1.5788 N   0  0  0  0  0  0  0  0  0  0  0  0
   -0.3115    0.3718   -2.1320 H   0  0  0  0  0  0  0  0  0  0  0  0
   -0.5149    2.4858   -2.2766 C   0  0  0  0  0  0  0  0  0  0  0  0
    0.2512    3.1581   -1.8837 H   0  0  0  0  0  0  0  0  0  0  0  0
   -0.3502    2.3396   -3.3445 H   0  0  0  0  0  0  0  0  0  0  0  0
   -1.4927    2.9449   -2.1225 H   0  0  0  0  0  0  0  0  0  0  0  0
  5  6  2  0  0  0  0
  5  7  1  0  0  0  0
  2  3  1  0  0  0  0
  2  4  1  0  0  0  0
  2  5  1  0  0  0  0
  1  2  1  0  0  0  0
 22 23  2  0  0  0  0
 22 24  1  0  0  0  0
 20 21  1  0  0  0  0
 19 20  1  0  0  0  0
 17 18  1  0  0  0  0
 17 19  2  0  0  0  0
 15 16  1  0  0  0  0
 15 17  1  0  0  0  0
 14 15  1  0  0  0  0
 14 20  2  0  0  0  0
 11 12  1  0  0  0  0
 11 13  1  0  0  0  0
 11 14  1  0  0  0  0
  9 10  1  0  0  0  0
  9 11  1  0  0  0  0
  9 22  1  0  0  0  0
  7  8  1  0  0  0  0
  7  9  1  0  0  0  0
 26 27  1  0  0  0  0
 26 28  1  0  0  0  0
 26 29  1  0  0  0  0
 24 25  1  0  0  0  0
 24 26  1  0  0  0  0
M  END
$$$$
default_name
  -OEChem-01062215323D

 29 29  0     1  0  0  0  0  0999 V2000
   -3.6042   -3.5728    1.4576 H   0  0  0  0  0  0  0  0  0  0  0  0
   -3.5202   -2.6488    0.8866 C   0  0  0  0  0  0  0  0  0  0  0  0
   -4.2052   -1.9048    1.2896 H   0  0  0  0  0  0  0  0  0  0  0  0
   -3.7552   -2.8428   -0.1584 H   0  0  0  0  0  0  0  0  0  0  0  0
   -2.1052   -2.1358    0.9946 C   0  0  0  0  0  0  0  0  0  0  0  0
   -1.2852   -2.7288    1.6826 O   0  0  0  0  0  0  0  0  0  0  0  0
   -1.8202   -1.0288    0.3146 N   0  0  0  0  0  0  0  0  0  0  0  0
   -2.5542   -0.5788   -0.2104 H   0  0  0  0  0  0  0  0  0  0  0  0
   -0.5102   -0.3728    0.3086 C   0  0  1  0  0  0  0  0  0  0  0  0
   -0.1523   -0.2975    1.3364 H   0  0  0  0  0  0  0  0  0  0  0  0
    0.4856   -1.2409   -0.4825 C   0  0  0  0  0  0  0  0  0  0  0  0
    0.1007   -1.3966   -1.4918 H   0  0  0  0  0  0  0  0  0  0  0  0
    1.4351   -0.7086   -0.5638 H   0  0  0  0  0  0  0  0  0  0  0  0
    0.7442   -2.5863    0.1446 C   0  0  0  0  0  0  0  0  0  0  0  0
    1.5149   -2.8316    1.2608 N   0  0  0  0  0  0  0  0  0  0  0  0
    2.0702   -2.1536    1.7610 H   0  0  0  0  0  0  0  0  0  0  0  0
    1.4026   -4.1355    1.5651 C   0  0  0  0  0  0  0  0  0  0  0  0
    1.8987   -4.6306    2.3909 H   0  0  0  0  0  0  0  0  0  0  0  0
    0.5801   -4.7453    0.6991 N   0  0  0  0  0  0  0  0  0  0  0  0
    0.1587   -3.7722   -0.2108 C   0  0  0  0  0  0  0  0  0  0  0  0
   -0.5351   -3.9195   -1.0284 H   0  0  0  0  0  0  0  0  0  0  0  0
   -0.6155    1.0531   -0.2585 C   0  0  0  0  0  0  0  0  0  0  0  0
   -0.5804    2.0239    0.4972 O   0  0  0  0  0  0  0  0  0  0  0  0
   -0.7618    1.1796   -1.5833 N   0  0  0  0  0  0  0  0  0  0  0  0
   -0.8364    0.3340   -2.1295 H   0  0  0  0  0  0  0  0  0  0  0  0
   -0.8706    2.4569   -2.2833 C   0  0  0  0  0  0  0  0  0  0  0  0
    0.0268    3.0536   -2.1048 H   0  0  0  0  0  0  0  0  0  0  0  0
   -0.9823    2.2888   -3.3548 H   0  0  0  0  0  0  0  0  0  0  0  0
   -1.7353    3.0101   -1.9135 H   0  0  0  0  0  0  0  0  0  0  0  0
  5  6  2  0  0  0  0
  5  7  1  0  0  0  0
  2  3  1  0  0  0  0
  2  4  1  0  0  0  0
  2  5  1  0  0  0  0
  1  2  1  0  0  0  0
 22 23  2  0  0  0  0
 22 24  1  0  0  0  0
 20 21  1  0  0  0  0
 19 20  1  0  0  0  0
 17 18  1  0  0  0  0
 17 19  2  0  0  0  0
 15 16  1  0  0  0  0
 15 17  1  0  0  0  0
 14 15  1  0  0  0  0
 14 20  2  0  0  0  0
 11 12  1  0  0  0  0
 11 13  1  0  0  0  0
 11 14  1  0  0  0  0
  9 10  1  0  0  0  0
  9 11  1  0  0  0  0
  9 22  1  0  0  0  0
  7  8  1  0  0  0  0
  7  9  1  0  0  0  0
 26 27  1  0  0  0  0
 26 28  1  0  0  0  0
 26 29  1  0  0  0  0
 24 25  1  0  0  0  0
 24 26  1  0  0  0  0
M  END
$$$$
default_name
  -OEChem-01062215323D

 29 29  0     1  0  0  0  0  0999 V2000
   -3.6042   -3.5728    1.4576 H   0  0  0  0  0  0  0  0  0  0  0  0
   -3.5202   -2.6488    0.8866 C   0  0  0  0  0  0  0  0  0  0  0  0
   -4.2052   -1.9048    1.2896 H   0  0  0  0  0  0  0  0  0  0  0  0
   -3.7552   -2.8428   -0.1584 H   0  0  0  0  0  0  0  0  0  0  0  0
   -2.1052   -2.1358    0.9946 C   0  0  0  0  0  0  0  0  0  0  0  0
   -1.2852   -2.7288    1.6826 O   0  0  0  0  0  0  0  0  0  0  0  0
   -1.8202   -1.0288    0.3146 N   0  0  0  0  0  0  0  0  0  0  0  0
   -2.5542   -0.5788   -0.2104 H   0  0  0  0  0  0  0  0  0  0  0  0
   -0.5102   -0.3728    0.3086 C   0  0  1  0  0  0  0  0  0  0  0  0
   -0.1523   -0.2975    1.3364 H   0  0  0  0  0  0  0  0  0  0  0  0
    0.4856   -1.2409   -0.4825 C   0  0  0  0  0  0  0  0  0  0  0  0
    0.1007   -1.3966   -1.4918 H   0  0  0  0  0  0  0  0  0  0  0  0
    1.4351   -0.7086   -0.5638 H   0  0  0  0  0  0  0  0  0  0  0  0
    0.7442   -2.5863    0.1446 C   0  0  0  0  0  0  0  0  0  0  0  0
    1.5149   -2.8316    1.2608 N   0  0  0  0  0  0  0  0  0  0  0  0
    2.0702   -2.1536    1.7610 H   0  0  0  0  0  0  0  0  0  0  0  0
    1.4026   -4.1355    1.5651 C   0  0  0  0  0  0  0  0  0  0  0  0
    1.8987   -4.6306    2.3909 H   0  0  0  0  0  0  0  0  0  0  0  0
    0.5801   -4.7453    0.6991 N   0  0  0  0  0  0  0  0  0  0  0  0
    0.1587   -3.7722   -0.2108 C   0  0  0  0  0  0  0  0  0  0  0  0
   -0.5351   -3.9195   -1.0284 H   0  0  0  0  0  0  0  0  0  0  0  0
   -0.6155    1.0531   -0.2585 C   0  0  0  0  0  0  0  0  0  0  0  0
   -0.3090    2.0204    0.4380 O   0  0  0  0  0  0  0  0  0  0  0  0
   -1.0641    1.1853   -1.5131 N   0  0  0  0  0  0  0  0  0  0  0  0
   -1.3465    0.3477   -2.0005 H   0  0  0  0  0  0  0  0  0  0  0  0
   -1.2186    2.4628   -2.2039 C   0  0  0  0  0  0  0  0  0  0  0  0
   -0.2530    2.9701   -2.2627 H   0  0  0  0  0  0  0  0  0  0  0  0
   -1.6002    2.2999   -3.2123 H   0  0  0  0  0  0  0  0  0  0  0  0
   -1.9133    3.1000   -1.6545 H   0  0  0  0  0  0  0  0  0  0  0  0
  5  6  2  0  0  0  0
  5  7  1  0  0  0  0
  2  3  1  0  0  0  0
  2  4  1  0  0  0  0
  2  5  1  0  0  0  0
  1  2  1  0  0  0  0
 22 23  2  0  0  0  0
 22 24  1  0  0  0  0
 20 21  1  0  0  0  0
 19 20  1  0  0  0  0
 17 18  1  0  0  0  0
 17 19  2  0  0  0  0
 15 16  1  0  0  0  0
 15 17  1  0  0  0  0
 14 15  1  0  0  0  0
 14 20  2  0  0  0  0
 11 12  1  0  0  0  0
 11 13  1  0  0  0  0
 11 14  1  0  0  0  0
  9 10  1  0  0  0  0
  9 11  1  0  0  0  0
  9 22  1  0  0  0  0
  7  8  1  0  0  0  0
  7  9  1  0  0  0  0
 26 27  1  0  0  0  0
 26 28  1  0  0  0  0
 26 29  1  0  0  0  0
 24 25  1  0  0  0  0
 24 26  1  0  0  0  0
M  END
$$$$
default_name
  -OEChem-01062215323D

 29 29  0     1  0  0  0  0  0999 V2000
   -3.6042   -3.5728    1.4576 H   0  0  0  0  0  0  0  0  0  0  0  0
   -3.5202   -2.6488    0.8866 C   0  0  0  0  0  0  0  0  0  0  0  0
   -4.2052   -1.9048    1.2896 H   0  0  0  0  0  0  0  0  0  0  0  0
   -3.7552   -2.8428   -0.1584 H   0  0  0  0  0  0  0  0  0  0  0  0
   -2.1052   -2.1358    0.9946 C   0  0  0  0  0  0  0  0  0  0  0  0
   -1.2852   -2.7288    1.6826 O   0  0  0  0  0  0  0  0  0  0  0  0
   -1.8202   -1.0288    0.3146 N   0  0  0  0  0  0  0  0  0  0  0  0
   -2.5542   -0.5788   -0.2104 H   0  0  0  0  0  0  0  0  0  0  0  0
   -0.5102   -0.3728    0.3086 C   0  0  1  0  0  0  0  0  0  0  0  0
   -0.1523   -0.2975    1.3364 H   0  0  0  0  0  0  0  0  0  0  0  0
    0.4856   -1.2409   -0.4825 C   0  0  0  0  0  0  0  0  0  0  0  0
    0.1007   -1.3966   -1.4918 H   0  0  0  0  0  0  0  0  0  0  0  0
    1.4351   -0.7086   -0.5638 H   0  0  0  0  0  0  0  0  0  0  0  0
    0.7442   -2.5863    0.1446 C   0  0  0  0  0  0  0  0  0  0  0  0
    1.5149   -2.8316    1.2608 N   0  0  0  0  0  0  0  0  0  0  0  0
    2.0702   -2.1536    1.7610 H   0  0  0  0  0  0  0  0  0  0  0  0
    1.4026   -4.1355    1.5651 C   0  0  0  0  0  0  0  0  0  0  0  0
    1.8987   -4.6306    2.3909 H   0  0  0  0  0  0  0  0  0  0  0  0
    0.5801   -4.7453    0.6991 N   0  0  0  0  0  0  0  0  0  0  0  0
    0.1587   -3.7722   -0.2108 C   0  0  0  0  0  0  0  0  0  0  0  0
   -0.5351   -3.9195   -1.0284 H   0  0  0  0  0  0  0  0  0  0  0  0
   -0.6155    1.0531   -0.2585 C   0  0  0  0  0  0  0  0  0  0  0  0
   -0.0615    1.9901    0.3158 O   0  0  0  0  0  0  0  0  0  0  0  0
   -1.3386    1.2208   -1.3728 N   0  0  0  0  0  0  0  0  0  0  0  0
   -1.8070    0.4118   -1.7537 H   0  0  0  0  0  0  0  0  0  0  0  0
   -1.5351    2.5031   -2.0438 C   0  0  0  0  0  0  0  0  0  0  0  0
   -0.5691    2.9134   -2.3467 H   0  0  0  0  0  0  0  0  0  0  0  0
   -2.1617    2.3721   -2.9265 H   0  0  0  0  0  0  0  0  0  0  0  0
   -2.0145    3.2083   -1.3632 H   0  0  0  0  0  0  0  0  0  0  0  0
  5  6  2  0  0  0  0
  5  7  1  0  0  0  0
  2  3  1  0  0  0  0
  2  4  1  0  0  0  0
  2  5  1  0  0  0  0
  1  2  1  0  0  0  0
 22 23  2  0  0  0  0
 22 24  1  0  0  0  0
 20 21  1  0  0  0  0
 19 20  1  0  0  0  0
 17 18  1  0  0  0  0
 17 19  2  0  0  0  0
 15 16  1  0  0  0  0
 15 17  1  0  0  0  0
 14 15  1  0  0  0  0
 14 20  2  0  0  0  0
 11 12  1  0  0  0  0
 11 13  1  0  0  0  0
 11 14  1  0  0  0  0
  9 10  1  0  0  0  0
  9 11  1  0  0  0  0
  9 22  1  0  0  0  0
  7  8  1  0  0  0  0
  7  9  1  0  0  0  0
 26 27  1  0  0  0  0
 26 28  1  0  0  0  0
 26 29  1  0  0  0  0
 24 25  1  0  0  0  0
 24 26  1  0  0  0  0
M  END
$$$$
default_name
  -OEChem-01062215323D

 29 29  0     1  0  0  0  0  0999 V2000
   -3.6042   -3.5728    1.4576 H   0  0  0  0  0  0  0  0  0  0  0  0
   -3.5202   -2.6488    0.8866 C   0  0  0  0  0  0  0  0  0  0  0  0
   -4.2052   -1.9048    1.2896 H   0  0  0  0  0  0  0  0  0  0  0  0
   -3.7552   -2.8428   -0.1584 H   0  0  0  0  0  0  0  0  0  0  0  0
   -2.1052   -2.1358    0.9946 C   0  0  0  0  0  0  0  0  0  0  0  0
   -1.2852   -2.7288    1.6826 O   0  0  0  0  0  0  0  0  0  0  0  0
   -1.8202   -1.0288    0.3146 N   0  0  0  0  0  0  0  0  0  0  0  0
   -2.5542   -0.5788   -0.2104 H   0  0  0  0  0  0  0  0  0  0  0  0
   -0.5102   -0.3728    0.3086 C   0  0  1  0  0  0  0  0  0  0  0  0
   -0.1523   -0.2975    1.3364 H   0  0  0  0  0  0  0  0  0  0  0  0
    0.4856   -1.2409   -0.4825 C   0  0  0  0  0  0  0  0  0  0  0  0
    0.1007   -1.3966   -1.4918 H   0  0  0  0  0  0  0  0  0  0  0  0
    1.4351   -0.7086   -0.5638 H   0  0  0  0  0  0  0  0  0  0  0  0
    0.7442   -2.5863    0.1446 C   0  0  0  0  0  0  0  0  0  0  0  0
    1.5149   -2.8316    1.2608 N   0  0  0  0  0  0  0  0  0  0  0  0
    2.0702   -2.1536    1.7610 H   0  0  0  0  0  0  0  0  0  0  0  0
    1.4026   -4.1355    1.5651 C   0  0  0  0  0  0  0  0  0  0  0  0
    1.8987   -4.6306    2.3909 H   0  0  0  0  0  0  0  0  0  0  0  0
    0.5801   -4.7453    0.6991 N   0  0  0  0  0  0  0  0  0  0  0  0
    0.1587   -3.7722   -0.2108 C   0  0  0  0  0  0  0  0  0  0  0  0
   -0.5351   -3.9195   -1.0284 H   0  0  0  0  0  0  0  0  0  0  0  0
   -0.6155    1.0531   -0.2585 C   0  0  0  0  0  0  0  0  0  0  0  0
    0.1454    1.9350    0.1390 O   0  0  0  0  0  0  0  0  0  0  0  0
   -1.5667    1.2838   -1.1720 N   0  0  0  0  0  0  0  0  0  0  0  0
   -2.1864    0.5221   -1.4060 H   0  0  0  0  0  0  0  0  0  0  0  0
   -1.7985    2.5751   -1.8140 C   0  0  0  0  0  0  0  0  0  0  0  0
   -0.9000    2.8873   -2.3509 H   0  0  0  0  0  0  0  0  0  0  0  0
   -2.6287    2.5005   -2.5170 H   0  0  0  0  0  0  0  0  0  0  0  0
   -2.0321    3.3278   -1.0595 H   0  0  0  0  0  0  0  0  0  0  0  0
  5  6  2  0  0  0  0
  5  7  1  0  0  0  0
  2  3  1  0  0  0  0
  2  4  1  0  0  0  0
  2  5  1  0  0  0  0
  1  2  1  0  0  0  0
 22 23  2  0  0  0  0
 22 24  1  0  0  0  0
 20 21  1  0  0  0  0
 19 20  1  0  0  0  0
 17 18  1  0  0  0  0
 17 19  2  0  0  0  0
 15 16  1  0  0  0  0
 15 17  1  0  0  0  0
 14 15  1  0  0  0  0
 14 20  2  0  0  0  0
 11 12  1  0  0  0  0
 11 13  1  0  0  0  0
 11 14  1  0  0  0  0
  9 10  1  0  0  0  0
  9 11  1  0  0  0  0
  9 22  1  0  0  0  0
  7  8  1  0  0  0  0
  7  9  1  0  0  0  0
 26 27  1  0  0  0  0
 26 28  1  0  0  0  0
 26 29  1  0  0  0  0
 24 25  1  0  0  0  0
 24 26  1  0  0  0  0
M  END
$$$$
default_name
  -OEChem-01062215323D

 29 29  0     1  0  0  0  0  0999 V2000
   -3.6042   -3.5728    1.4576 H   0  0  0  0  0  0  0  0  0  0  0  0
   -3.5202   -2.6488    0.8866 C   0  0  0  0  0  0  0  0  0  0  0  0
   -4.2052   -1.9048    1.2896 H   0  0  0  0  0  0  0  0  0  0  0  0
   -3.7552   -2.8428   -0.1584 H   0  0  0  0  0  0  0  0  0  0  0  0
   -2.1052   -2.1358    0.9946 C   0  0  0  0  0  0  0  0  0  0  0  0
   -1.2852   -2.7288    1.6826 O   0  0  0  0  0  0  0  0  0  0  0  0
   -1.8202   -1.0288    0.3146 N   0  0  0  0  0  0  0  0  0  0  0  0
   -2.5542   -0.5788   -0.2104 H   0  0  0  0  0  0  0  0  0  0  0  0
   -0.5102   -0.3728    0.3086 C   0  0  1  0  0  0  0  0  0  0  0  0
   -0.1523   -0.2975    1.3364 H   0  0  0  0  0  0  0  0  0  0  0  0
    0.4856   -1.2409   -0.4825 C   0  0  0  0  0  0  0  0  0  0  0  0
    0.1007   -1.3966   -1.4918 H   0  0  0  0  0  0  0  0  0  0  0  0
    1.4351   -0.7086   -0.5638 H   0  0  0  0  0  0  0  0  0  0  0  0
    0.7442   -2.5863    0.1446 C   0  0  0  0  0  0  0  0  0  0  0  0
    1.5149   -2.8316    1.2608 N   0  0  0  0  0  0  0  0  0  0  0  0
    2.0702   -2.1536    1.7610 H   0  0  0  0  0  0  0  0  0  0  0  0
    1.4026   -4.1355    1.5651 C   0  0  0  0  0  0  0  0  0  0  0  0
    1.8987   -4.6306    2.3909 H   0  0  0  0  0  0  0  0  0  0  0  0
    0.5801   -4.7453    0.6991 N   0  0  0  0  0  0  0  0  0  0  0  0
    0.1587   -3.7722   -0.2108 C   0  0  0  0  0  0  0  0  0  0  0  0
   -0.5351   -3.9195   -1.0284 H   0  0  0  0  0  0  0  0  0  0  0  0
   -0.6155    1.0531   -0.2585 C   0  0  0  0  0  0  0  0  0  0  0  0
    0.2976    1.8590   -0.0805 O   0  0  0  0  0  0  0  0  0  0  0  0
   -1.7329    1.3700   -0.9245 N   0  0  0  0  0  0  0  0  0  0  0  0
   -2.4590    0.6710   -0.9811 H   0  0  0  0  0  0  0  0  0  0  0  0
   -1.9910    2.6738   -1.5300 C   0  0  0  0  0  0  0  0  0  0  0  0
   -1.2231    2.8935   -2.2751 H   0  0  0  0  0  0  0  0  0  0  0  0
   -2.9693    2.6763   -2.0117 H   0  0  0  0  0  0  0  0  0  0  0  0
   -1.9647    3.4503   -0.7640 H   0  0  0  0  0  0  0  0  0  0  0  0
  5  6  2  0  0  0  0
  5  7  1  0  0  0  0
  2  3  1  0  0  0  0
  2  4  1  0  0  0  0
  2  5  1  0  0  0  0
  1  2  1  0  0  0  0
 22 23  2  0  0  0  0
 22 24  1  0  0  0  0
 20 21  1  0  0  0  0
 19 20  1  0  0  0  0
 17 18  1  0  0  0  0
 17 19  2  0  0  0  0
 15 16  1  0  0  0  0
 15 17  1  0  0  0  0
 14 15  1  0  0  0  0
 14 20  2  0  0  0  0
 11 12  1  0  0  0  0
 11 13  1  0  0  0  0
 11 14  1  0  0  0  0
  9 10  1  0  0  0  0
  9 11  1  0  0  0  0
  9 22  1  0  0  0  0
  7  8  1  0  0  0  0
  7  9  1  0  0  0  0
 26 27  1  0  0  0  0
 26 28  1  0  0  0  0
 26 29  1  0  0  0  0
 24 25  1  0  0  0  0
 24 26  1  0  0  0  0
M  END
$$$$
default_name
  -OEChem-01062215323D

 29 29  0     1  0  0  0  0  0999 V2000
   -3.6042   -3.5728    1.4576 H   0  0  0  0  0  0  0  0  0  0  0  0
   -3.5202   -2.6488    0.8866 C   0  0  0  0  0  0  0  0  0  0  0  0
   -4.2052   -1.9048    1.2896 H   0  0  0  0  0  0  0  0  0  0  0  0
   -3.7552   -2.8428   -0.1584 H   0  0  0  0  0  0  0  0  0  0  0  0
   -2.1052   -2.1358    0.9946 C   0  0  0  0  0  0  0  0  0  0  0  0
   -1.2852   -2.7288    1.6826 O   0  0  0  0  0  0  0  0  0  0  0  0
   -1.8202   -1.0288    0.3146 N   0  0  0  0  0  0  0  0  0  0  0  0
   -2.5542   -0.5788   -0.2104 H   0  0  0  0  0  0  0  0  0  0  0  0
   -0.5102   -0.3728    0.3086 C   0  0  1  0  0  0  0  0  0  0  0  0
   -0.1523   -0.2975    1.3364 H   0  0  0  0  0  0  0  0  0  0  0  0
    0.4856   -1.2409   -0.4825 C   0  0  0  0  0  0  0  0  0  0  0  0
    0.1007   -1.3966   -1.4918 H   0  0  0  0  0  0  0  0  0  0  0  0
    1.4351   -0.7086   -0.5638 H   0  0  0  0  0  0  0  0  0  0  0  0
    0.7442   -2.5863    0.1446 C   0  0  0  0  0  0  0  0  0  0  0  0
    1.5149   -2.8316    1.2608 N   0  0  0  0  0  0  0  0  0  0  0  0
    2.0702   -2.1536    1.7610 H   0  0  0  0  0  0  0  0  0  0  0  0
    1.4026   -4.1355    1.5651 C   0  0  0  0  0  0  0  0  0  0  0  0
    1.8987   -4.6306    2.3909 H   0  0  0  0  0  0  0  0  0  0  0  0
    0.5801   -4.7453    0.6991 N   0  0  0  0  0  0  0  0  0  0  0  0
    0.1587   -3.7722   -0.2108 C   0  0  0  0  0  0  0  0  0  0  0  0
   -0.5351   -3.9195   -1.0284 H   0  0  0  0  0  0  0  0  0  0  0  0
   -0.6155    1.0531   -0.2585 C   0  0  0  0  0  0  0  0  0  0  0  0
    0.3846    1.7671   -0.3277 O   0  0  0  0  0  0  0  0  0  0  0  0
   -1.8258    1.4735   -0.6470 N   0  0  0  0  0  0  0  0  0  0  0  0
   -2.6061    0.8484   -0.5079 H   0  0  0  0  0  0  0  0  0  0  0  0
   -2.0994    2.7925   -1.2113 C   0  0  0  0  0  0  0  0  0  0  0  0
   -1.5164    2.9318   -2.1245 H   0  0  0  0  0  0  0  0  0  0  0  0
   -3.1602    2.8876   -1.4450 H   0  0  0  0  0  0  0  0  0  0  0  0
   -1.8171    3.5674   -0.4969 H   0  0  0  0  0  0  0  0  0  0  0  0
  5  6  2  0  0  0  0
  5  7  1  0  0  0  0
  2  3  1  0  0  0  0
  2  4  1  0  0  0  0
  2  5  1  0  0  0  0
  1  2  1  0  0  0  0
 22 23  2  0  0  0  0
 22 24  1  0  0  0  0
 20 21  1  0  0  0  0
 19 20  1  0  0  0  0
 17 18  1  0  0  0  0
 17 19  2  0  0  0  0
 15 16  1  0  0  0  0
 15 17  1  0  0  0  0
 14 15  1  0  0  0  0
 14 20  2  0  0  0  0
 11 12  1  0  0  0  0
 11 13  1  0  0  0  0
 11 14  1  0  0  0  0
  9 10  1  0  0  0  0
  9 11  1  0  0  0  0
  9 22  1  0  0  0  0
  7  8  1  0  0  0  0
  7  9  1  0  0  0  0
 26 27  1  0  0  0  0
 26 28  1  0  0  0  0
 26 29  1  0  0  0  0
 24 25  1  0  0  0  0
 24 26  1  0  0  0  0
M  END
$$$$
default_name
  -OEChem-01062215323D

 29 29  0     1  0  0  0  0  0999 V2000
   -3.6042   -3.5728    1.4576 H   0  0  0  0  0  0  0  0  0  0  0  0
   -3.5202   -2.6488    0.8866 C   0  0  0  0  0  0  0  0  0  0  0  0
   -4.2052   -1.9048    1.2896 H   0  0  0  0  0  0  0  0  0  0  0  0
   -3.7552   -2.8428   -0.1584 H   0  0  0  0  0  0  0  0  0  0  0  0
   -2.1052   -2.1358    0.9946 C   0  0  0  0  0  0  0  0  0  0  0  0
   -1.2852   -2.7288    1.6826 O   0  0  0  0  0  0  0  0  0  0  0  0
   -1.8202   -1.0288    0.3146 N   0  0  0  0  0  0  0  0  0  0  0  0
   -2.5542   -0.5788   -0.2104 H   0  0  0  0  0  0  0  0  0  0  0  0
   -0.5102   -0.3728    0.3086 C   0  0  1  0  0  0  0  0  0  0  0  0
   -0.1523   -0.2975    1.3364 H   0  0  0  0  0  0  0  0  0  0  0  0
    0.4856   -1.2409   -0.4825 C   0  0  0  0  0  0  0  0  0  0  0  0
    0.1007   -1.3966   -1.4918 H   0  0  0  0  0  0  0  0  0  0  0  0
    1.4351   -0.7086   -0.5638 H   0  0  0  0  0  0  0  0  0  0  0  0
    0.7442   -2.5863    0.1446 C   0  0  0  0  0  0  0  0  0  0  0  0
    1.5149   -2.8316    1.2608 N   0  0  0  0  0  0  0  0  0  0  0  0
    2.0702   -2.1536    1.7610 H   0  0  0  0  0  0  0  0  0  0  0  0
    1.4026   -4.1355    1.5651 C   0  0  0  0  0  0  0  0  0  0  0  0
    1.8987   -4.6306    2.3909 H   0  0  0  0  0  0  0  0  0  0  0  0
    0.5801   -4.7453    0.6991 N   0  0  0  0  0  0  0  0  0  0  0  0
    0.1587   -3.7722   -0.2108 C   0  0  0  0  0  0  0  0  0  0  0  0
   -0.5351   -3.9195   -1.0284 H   0  0  0  0  0  0  0  0  0  0  0  0
   -0.6155    1.0531   -0.2585 C   0  0  0  0  0  0  0  0  0  0  0  0
    0.4006    1.6656   -0.5857 O   0  0  0  0  0  0  0  0  0  0  0  0
   -1.8391    1.5872   -0.3586 N   0  0  0  0  0  0  0  0  0  0  0  0
   -2.6177    1.0421   -0.0186 H   0  0  0  0  0  0  0  0  0  0  0  0
   -2.1163    2.9232   -0.8796 C   0  0  0  0  0  0  0  0  0  0  0  0
   -1.7600    2.9994   -1.9094 H   0  0  0  0  0  0  0  0  0  0  0  0
   -3.1885    3.1200   -0.8556 H   0  0  0  0  0  0  0  0  0  0  0  0
   -1.5993    3.6712   -0.2764 H   0  0  0  0  0  0  0  0  0  0  0  0
  5  6  2  0  0  0  0
  5  7  1  0  0  0  0
  2  3  1  0  0  0  0
  2  4  1  0  0  0  0
  2  5  1  0  0  0  0
  1  2  1  0  0  0  0
 22 23  2  0  0  0  0
 22 24  1  0  0  0  0
 20 21  1  0  0  0  0
 19 20  1  0  0  0  0
 17 18  1  0  0  0  0
 17 19  2  0  0  0  0
 15 16  1  0  0  0  0
 15 17  1  0  0  0  0
 14 15  1  0  0  0  0
 14 20  2  0  0  0  0
 11 12  1  0  0  0  0
 11 13  1  0  0  0  0
 11 14  1  0  0  0  0
  9 10  1  0  0  0  0
  9 11  1  0  0  0  0
  9 22  1  0  0  0  0
  7  8  1  0  0  0  0
  7  9  1  0  0  0  0
 26 27  1  0  0  0  0
 26 28  1  0  0  0  0
 26 29  1  0  0  0  0
 24 25  1  0  0  0  0
 24 26  1  0  0  0  0
M  END
$$$$
default_name
  -OEChem-01062215323D

 29 29  0     1  0  0  0  0  0999 V2000
   -3.6042   -3.5728    1.4576 H   0  0  0  0  0  0  0  0  0  0  0  0
   -3.5202   -2.6488    0.8866 C   0  0  0  0  0  0  0  0  0  0  0  0
   -4.2052   -1.9048    1.2896 H   0  0  0  0  0  0  0  0  0  0  0  0
   -3.7552   -2.8428   -0.1584 H   0  0  0  0  0  0  0  0  0  0  0  0
   -2.1052   -2.1358    0.9946 C   0  0  0  0  0  0  0  0  0  0  0  0
   -1.2852   -2.7288    1.6826 O   0  0  0  0  0  0  0  0  0  0  0  0
   -1.8202   -1.0288    0.3146 N   0  0  0  0  0  0  0  0  0  0  0  0
   -2.5542   -0.5788   -0.2104 H   0  0  0  0  0  0  0  0  0  0  0  0
   -0.5102   -0.3728    0.3086 C   0  0  1  0  0  0  0  0  0  0  0  0
   -0.1523   -0.2975    1.3364 H   0  0  0  0  0  0  0  0  0  0  0  0
    0.4856   -1.2409   -0.4825 C   0  0  0  0  0  0  0  0  0  0  0  0
    0.1007   -1.3966   -1.4918 H   0  0  0  0  0  0  0  0  0  0  0  0
    1.4351   -0.7086   -0.5638 H   0  0  0  0  0  0  0  0  0  0  0  0
    0.7442   -2.5863    0.1446 C   0  0  0  0  0  0  0  0  0  0  0  0
    1.5149   -2.8316    1.2608 N   0  0  0  0  0  0  0  0  0  0  0  0
    2.0702   -2.1536    1.7610 H   0  0  0  0  0  0  0  0  0  0  0  0
    1.4026   -4.1355    1.5651 C   0  0  0  0  0  0  0  0  0  0  0  0
    1.8987   -4.6306    2.3909 H   0  0  0  0  0  0  0  0  0  0  0  0
    0.5801   -4.7453    0.6991 N   0  0  0  0  0  0  0  0  0  0  0  0
    0.1587   -3.7722   -0.2108 C   0  0  0  0  0  0  0  0  0  0  0  0
   -0.5351   -3.9195   -1.0284 H   0  0  0  0  0  0  0  0  0  0  0  0
   -0.6155    1.0531   -0.2585 C   0  0  0  0  0  0  0  0  0  0  0  0
    0.3445    1.5616   -0.8370 O   0  0  0  0  0  0  0  0  0  0  0  0
   -1.7719    1.7035   -0.0788 N   0  0  0  0  0  0  0  0  0  0  0  0
   -2.4931    1.2390    0.4533 H   0  0  0  0  0  0  0  0  0  0  0  0
   -2.0405    3.0570   -0.5574 C   0  0  0  0  0  0  0  0  0  0  0  0
   -1.9371    3.0917   -1.6443 H   0  0  0  0  0  0  0  0  0  0  0  0
   -3.0522    3.3575   -0.2835 H   0  0  0  0  0  0  0  0  0  0  0  0
   -1.3260    3.7546   -0.1176 H   0  0  0  0  0  0  0  0  0  0  0  0
  5  6  2  0  0  0  0
  5  7  1  0  0  0  0
  2  3  1  0  0  0  0
  2  4  1  0  0  0  0
  2  5  1  0  0  0  0
  1  2  1  0  0  0  0
 22 23  2  0  0  0  0
 22 24  1  0  0  0  0
 20 21  1  0  0  0  0
 19 20  1  0  0  0  0
 17 18  1  0  0  0  0
 17 19  2  0  0  0  0
 15 16  1  0  0  0  0
 15 17  1  0  0  0  0
 14 15  1  0  0  0  0
 14 20  2  0  0  0  0
 11 12  1  0  0  0  0
 11 13  1  0  0  0  0
 11 14  1  0  0  0  0
  9 10  1  0  0  0  0
  9 11  1  0  0  0  0
  9 22  1  0  0  0  0
  7  8  1  0  0  0  0
  7  9  1  0  0  0  0
 26 27  1  0  0  0  0
 26 28  1  0  0  0  0
 26 29  1  0  0  0  0
 24 25  1  0  0  0  0
 24 26  1  0  0  0  0
M  END
$$$$
default_name
  -OEChem-01062215323D

 29 29  0     1  0  0  0  0  0999 V2000
   -3.6042   -3.5728    1.4576 H   0  0  0  0  0  0  0  0  0  0  0  0
   -3.5202   -2.6488    0.8866 C   0  0  0  0  0  0  0  0  0  0  0  0
   -4.2052   -1.9048    1.2896 H   0  0  0  0  0  0  0  0  0  0  0  0
   -3.7552   -2.8428   -0.1584 H   0  0  0  0  0  0  0  0  0  0  0  0
   -2.1052   -2.1358    0.9946 C   0  0  0  0  0  0  0  0  0  0  0  0
   -1.2852   -2.7288    1.6826 O   0  0  0  0  0  0  0  0  0  0  0  0
   -1.8202   -1.0288    0.3146 N   0  0  0  0  0  0  0  0  0  0  0  0
   -2.5542   -0.5788   -0.2104 H   0  0  0  0  0  0  0  0  0  0  0  0
   -0.5102   -0.3728    0.3086 C   0  0  1  0  0  0  0  0  0  0  0  0
   -0.1523   -0.2975    1.3364 H   0  0  0  0  0  0  0  0  0  0  0  0
    0.4856   -1.2409   -0.4825 C   0  0  0  0  0  0  0  0  0  0  0  0
    0.1007   -1.3966   -1.4918 H   0  0  0  0  0  0  0  0  0  0  0  0
    1.4351   -0.7086   -0.5638 H   0  0  0  0  0  0  0  0  0  0  0  0
    0.7442   -2.5863    0.1446 C   0  0  0  0  0  0  0  0  0  0  0  0
    1.5149   -2.8316    1.2608 N   0  0  0  0  0  0  0  0  0  0  0  0
    2.0702   -2.1536    1.7610 H   0  0  0  0  0  0  0  0  0  0  0  0
    1.4026   -4.1355    1.5651 C   0  0  0  0  0  0  0  0  0  0  0  0
    1.8987   -4.6306    2.3909 H   0  0  0  0  0  0  0  0  0  0  0  0
    0.5801   -4.7453    0.6991 N   0  0  0  0  0  0  0  0  0  0  0  0
    0.1587   -3.7722   -0.2108 C   0  0  0  0  0  0  0  0  0  0  0  0
   -0.5351   -3.9195   -1.0284 H   0  0  0  0  0  0  0  0  0  0  0  0
   -0.6155    1.0531   -0.2585 C   0  0  0  0  0  0  0  0  0  0  0  0
    0.2201    1.4619   -1.0644 O   0  0  0  0  0  0  0  0  0  0  0  0
   -1.6287    1.8143    0.1733 N   0  0  0  0  0  0  0  0  0  0  0  0
   -2.2407    1.4256    0.8758 H   0  0  0  0  0  0  0  0  0  0  0  0
   -1.8772    3.1846   -0.2668 C   0  0  0  0  0  0  0  0  0  0  0  0
   -2.0359    3.2025   -1.3474 H   0  0  0  0  0  0  0  0  0  0  0  0
   -2.7607    3.5841    0.2321 H   0  0  0  0  0  0  0  0  0  0  0  0
   -1.0161    3.8118   -0.0312 H   0  0  0  0  0  0  0  0  0  0  0  0
  5  6  2  0  0  0  0
  5  7  1  0  0  0  0
  2  3  1  0  0  0  0
  2  4  1  0  0  0  0
  2  5  1  0  0  0  0
  1  2  1  0  0  0  0
 22 23  2  0  0  0  0
 22 24  1  0  0  0  0
 20 21  1  0  0  0  0
 19 20  1  0  0  0  0
 17 18  1  0  0  0  0
 17 19  2  0  0  0  0
 15 16  1  0  0  0  0
 15 17  1  0  0  0  0
 14 15  1  0  0  0  0
 14 20  2  0  0  0  0
 11 12  1  0  0  0  0
 11 13  1  0  0  0  0
 11 14  1  0  0  0  0
  9 10  1  0  0  0  0
  9 11  1  0  0  0  0
  9 22  1  0  0  0  0
  7  8  1  0  0  0  0
  7  9  1  0  0  0  0
 26 27  1  0  0  0  0
 26 28  1  0  0  0  0
 26 29  1  0  0  0  0
 24 25  1  0  0  0  0
 24 26  1  0  0  0  0
M  END
$$$$
default_name
  -OEChem-01062215323D

 29 29  0     1  0  0  0  0  0999 V2000
   -3.6042   -3.5728    1.4576 H   0  0  0  0  0  0  0  0  0  0  0  0
   -3.5202   -2.6488    0.8866 C   0  0  0  0  0  0  0  0  0  0  0  0
   -4.2052   -1.9048    1.2896 H   0  0  0  0  0  0  0  0  0  0  0  0
   -3.7552   -2.8428   -0.1584 H   0  0  0  0  0  0  0  0  0  0  0  0
   -2.1052   -2.1358    0.9946 C   0  0  0  0  0  0  0  0  0  0  0  0
   -1.2852   -2.7288    1.6826 O   0  0  0  0  0  0  0  0  0  0  0  0
   -1.8202   -1.0288    0.3146 N   0  0  0  0  0  0  0  0  0  0  0  0
   -2.5542   -0.5788   -0.2104 H   0  0  0  0  0  0  0  0  0  0  0  0
   -0.5102   -0.3728    0.3086 C   0  0  1  0  0  0  0  0  0  0  0  0
   -0.1523   -0.2975    1.3364 H   0  0  0  0  0  0  0  0  0  0  0  0
    0.4856   -1.2409   -0.4825 C   0  0  0  0  0  0  0  0  0  0  0  0
    0.1007   -1.3966   -1.4918 H   0  0  0  0  0  0  0  0  0  0  0  0
    1.4351   -0.7086   -0.5638 H   0  0  0  0  0  0  0  0  0  0  0  0
    0.7442   -2.5863    0.1446 C   0  0  0  0  0  0  0  0  0  0  0  0
    1.5149   -2.8316    1.2608 N   0  0  0  0  0  0  0  0  0  0  0  0
    2.0702   -2.1536    1.7610 H   0  0  0  0  0  0  0  0  0  0  0  0
    1.4026   -4.1355    1.5651 C   0  0  0  0  0  0  0  0  0  0  0  0
    1.8987   -4.6306    2.3909 H   0  0  0  0  0  0  0  0  0  0  0  0
    0.5801   -4.7453    0.6991 N   0  0  0  0  0  0  0  0  0  0  0  0
    0.1587   -3.7722   -0.2108 C   0  0  0  0  0  0  0  0  0  0  0  0
   -0.5351   -3.9195   -1.0284 H   0  0  0  0  0  0  0  0  0  0  0  0
   -0.6155    1.0531   -0.2585 C   0  0  0  0  0  0  0  0  0  0  0  0
    0.0358    1.3735   -1.2525 O   0  0  0  0  0  0  0  0  0  0  0  0
   -1.4194    1.9122    0.3805 N   0  0  0  0  0  0  0  0  0  0  0  0
   -1.8777    1.5893    1.2200 H   0  0  0  0  0  0  0  0  0  0  0  0
   -1.6376    3.2975   -0.0275 C   0  0  0  0  0  0  0  0  0  0  0  0
   -2.0494    3.3242   -1.0389 H   0  0  0  0  0  0  0  0  0  0  0  0
   -2.3337    3.7843    0.6562 H   0  0  0  0  0  0  0  0  0  0  0  0
   -0.6904    3.8391   -0.0231 H   0  0  0  0  0  0  0  0  0  0  0  0
  5  6  2  0  0  0  0
  5  7  1  0  0  0  0
  2  3  1  0  0  0  0
  2  4  1  0  0  0  0
  2  5  1  0  0  0  0
  1  2  1  0  0  0  0
 22 23  2  0  0  0  0
 22 24  1  0  0  0  0
 20 21  1  0  0  0  0
 19 20  1  0  0  0  0
 17 18  1  0  0  0  0
 17 19  2  0  0  0  0
 15 16  1  0  0  0  0
 15 17  1  0  0  0  0
 14 15  1  0  0  0  0
 14 20  2  0  0  0  0
 11 12  1  0  0  0  0
 11 13  1  0  0  0  0
 11 14  1  0  0  0  0
  9 10  1  0  0  0  0
  9 11  1  0  0  0  0
  9 22  1  0  0  0  0
  7  8  1  0  0  0  0
  7  9  1  0  0  0  0
 26 27  1  0  0  0  0
 26 28  1  0  0  0  0
 26 29  1  0  0  0  0
 24 25  1  0  0  0  0
 24 26  1  0  0  0  0
M  END
$$$$
default_name
  -OEChem-01062215323D

 29 29  0     1  0  0  0  0  0999 V2000
   -3.6042   -3.5728    1.4576 H   0  0  0  0  0  0  0  0  0  0  0  0
   -3.5202   -2.6488    0.8866 C   0  0  0  0  0  0  0  0  0  0  0  0
   -4.2052   -1.9048    1.2896 H   0  0  0  0  0  0  0  0  0  0  0  0
   -3.7552   -2.8428   -0.1584 H   0  0  0  0  0  0  0  0  0  0  0  0
   -2.1052   -2.1358    0.9946 C   0  0  0  0  0  0  0  0  0  0  0  0
   -1.2852   -2.7288    1.6826 O   0  0  0  0  0  0  0  0  0  0  0  0
   -1.8202   -1.0288    0.3146 N   0  0  0  0  0  0  0  0  0  0  0  0
   -2.5542   -0.5788   -0.2104 H   0  0  0  0  0  0  0  0  0  0  0  0
   -0.5102   -0.3728    0.3086 C   0  0  1  0  0  0  0  0  0  0  0  0
   -0.1523   -0.2975    1.3364 H   0  0  0  0  0  0  0  0  0  0  0  0
    0.4856   -1.2409   -0.4825 C   0  0  0  0  0  0  0  0  0  0  0  0
    0.1007   -1.3966   -1.4918 H   0  0  0  0  0  0  0  0  0  0  0  0
    1.4351   -0.7086   -0.5638 H   0  0  0  0  0  0  0  0  0  0  0  0
    0.7442   -2.5863    0.1446 C   0  0  0  0  0  0  0  0  0  0  0  0
    1.5149   -2.8316    1.2608 N   0  0  0  0  0  0  0  0  0  0  0  0
    2.0702   -2.1536    1.7610 H   0  0  0  0  0  0  0  0  0  0  0  0
    1.4026   -4.1355    1.5651 C   0  0  0  0  0  0  0  0  0  0  0  0
    1.8987   -4.6306    2.3909 H   0  0  0  0  0  0  0  0  0  0  0  0
    0.5801   -4.7453    0.6991 N   0  0  0  0  0  0  0  0  0  0  0  0
    0.1587   -3.7722   -0.2108 C   0  0  0  0  0  0  0  0  0  0  0  0
   -0.5351   -3.9195   -1.0284 H   0  0  0  0  0  0  0  0  0  0  0  0
   -0.6155    1.0531   -0.2585 C   0  0  0  0  0  0  0  0  0  0  0  0
   -0.1957    1.3024   -1.3883 O   0  0  0  0  0  0  0  0  0  0  0  0
   -1.1581    1.9904    0.5286 N   0  0  0  0  0  0  0  0  0  0  0  0
   -1.4289    1.7189    1.4624 H   0  0  0  0  0  0  0  0  0  0  0  0
   -1.3380    3.3879    0.1442 C   0  0  0  0  0  0  0  0  0  0  0  0
   -1.9769    3.4486   -0.7398 H   0  0  0  0  0  0  0  0  0  0  0  0
   -1.8005    3.9445    0.9599 H   0  0  0  0  0  0  0  0  0  0  0  0
   -0.3714    3.8345   -0.0939 H   0  0  0  0  0  0  0  0  0  0  0  0
  5  6  2  0  0  0  0
  5  7  1  0  0  0  0
  2  3  1  0  0  0  0
  2  4  1  0  0  0  0
  2  5  1  0  0  0  0
  1  2  1  0  0  0  0
 22 23  2  0  0  0  0
 22 24  1  0  0  0  0
 20 21  1  0  0  0  0
 19 20  1  0  0  0  0
 17 18  1  0  0  0  0
 17 19  2  0  0  0  0
 15 16  1  0  0  0  0
 15 17  1  0  0  0  0
 14 15  1  0  0  0  0
 14 20  2  0  0  0  0
 11 12  1  0  0  0  0
 11 13  1  0  0  0  0
 11 14  1  0  0  0  0
  9 10  1  0  0  0  0
  9 11  1  0  0  0  0
  9 22  1  0  0  0  0
  7  8  1  0  0  0  0
  7  9  1  0  0  0  0
 26 27  1  0  0  0  0
 26 28  1  0  0  0  0
 26 29  1  0  0  0  0
 24 25  1  0  0  0  0
 24 26  1  0  0  0  0
M  END
$$$$
default_name
  -OEChem-01062215323D

 29 29  0     1  0  0  0  0  0999 V2000
   -3.6042   -3.5728    1.4576 H   0  0  0  0  0  0  0  0  0  0  0  0
   -3.5202   -2.6488    0.8866 C   0  0  0  0  0  0  0  0  0  0  0  0
   -4.2052   -1.9048    1.2896 H   0  0  0  0  0  0  0  0  0  0  0  0
   -3.7552   -2.8428   -0.1584 H   0  0  0  0  0  0  0  0  0  0  0  0
   -2.1052   -2.1358    0.9946 C   0  0  0  0  0  0  0  0  0  0  0  0
   -1.2852   -2.7288    1.6826 O   0  0  0  0  0  0  0  0  0  0  0  0
   -1.8202   -1.0288    0.3146 N   0  0  0  0  0  0  0  0  0  0  0  0
   -2.5542   -0.5788   -0.2104 H   0  0  0  0  0  0  0  0  0  0  0  0
   -0.5102   -0.3728    0.3086 C   0  0  1  0  0  0  0  0  0  0  0  0
   -0.1523   -0.2975    1.3364 H   0  0  0  0  0  0  0  0  0  0  0  0
    0.4856   -1.2409   -0.4825 C   0  0  0  0  0  0  0  0  0  0  0  0
    0.1007   -1.3966   -1.4918 H   0  0  0  0  0  0  0  0  0  0  0  0
    1.4351   -0.7086   -0.5638 H   0  0  0  0  0  0  0  0  0  0  0  0
    0.7442   -2.5863    0.1446 C   0  0  0  0  0  0  0  0  0  0  0  0
    1.5149   -2.8316    1.2608 N   0  0  0  0  0  0  0  0  0  0  0  0
    2.0702   -2.1536    1.7610 H   0  0  0  0  0  0  0  0  0  0  0  0
    1.4026   -4.1355    1.5651 C   0  0  0  0  0  0  0  0  0  0  0  0
    1.8987   -4.6306    2.3909 H   0  0  0  0  0  0  0  0  0  0  0  0
    0.5801   -4.7453    0.6991 N   0  0  0  0  0  0  0  0  0  0  0  0
    0.1587   -3.7722   -0.2108 C   0  0  0  0  0  0  0  0  0  0  0  0
   -0.5351   -3.9195   -1.0284 H   0  0  0  0  0  0  0  0  0  0  0  0
   -0.6155    1.0531   -0.2585 C   0  0  0  0  0  0  0  0  0  0  0  0
   -0.4588    1.2534   -1.4627 O   0  0  0  0  0  0  0  0  0  0  0  0
   -0.8628    2.0436    0.6077 N   0  0  0  0  0  0  0  0  0  0  0  0
   -0.9248    1.8055    1.5867 H   0  0  0  0  0  0  0  0  0  0  0  0
   -0.9988    3.4496    0.2365 C   0  0  0  0  0  0  0  0  0  0  0  0
   -1.8232    3.5670   -0.4704 H   0  0  0  0  0  0  0  0  0  0  0  0
   -1.1972    4.0537    1.1224 H   0  0  0  0  0  0  0  0  0  0  0  0
   -0.0806    3.7983   -0.2388 H   0  0  0  0  0  0  0  0  0  0  0  0
  5  6  2  0  0  0  0
  5  7  1  0  0  0  0
  2  3  1  0  0  0  0
  2  4  1  0  0  0  0
  2  5  1  0  0  0  0
  1  2  1  0  0  0  0
 22 23  2  0  0  0  0
 22 24  1  0  0  0  0
 20 21  1  0  0  0  0
 19 20  1  0  0  0  0
 17 18  1  0  0  0  0
 17 19  2  0  0  0  0
 15 16  1  0  0  0  0
 15 17  1  0  0  0  0
 14 15  1  0  0  0  0
 14 20  2  0  0  0  0
 11 12  1  0  0  0  0
 11 13  1  0  0  0  0
 11 14  1  0  0  0  0
  9 10  1  0  0  0  0
  9 11  1  0  0  0  0
  9 22  1  0  0  0  0
  7  8  1  0  0  0  0
  7  9  1  0  0  0  0
 26 27  1  0  0  0  0
 26 28  1  0  0  0  0
 26 29  1  0  0  0  0
 24 25  1  0  0  0  0
 24 26  1  0  0  0  0
M  END
$$$$
default_name
  -OEChem-01062215323D

 29 29  0     1  0  0  0  0  0999 V2000
   -3.6042   -3.5728    1.4576 H   0  0  0  0  0  0  0  0  0  0  0  0
   -3.5202   -2.6488    0.8866 C   0  0  0  0  0  0  0  0  0  0  0  0
   -4.2052   -1.9048    1.2896 H   0  0  0  0  0  0  0  0  0  0  0  0
   -3.7552   -2.8428   -0.1584 H   0  0  0  0  0  0  0  0  0  0  0  0
   -2.1052   -2.1358    0.9946 C   0  0  0  0  0  0  0  0  0  0  0  0
   -1.2852   -2.7288    1.6826 O   0  0  0  0  0  0  0  0  0  0  0  0
   -1.8202   -1.0288    0.3146 N   0  0  0  0  0  0  0  0  0  0  0  0
   -2.5542   -0.5788   -0.2104 H   0  0  0  0  0  0  0  0  0  0  0  0
   -0.5102   -0.3728    0.3086 C   0  0  1  0  0  0  0  0  0  0  0  0
   -0.1523   -0.2975    1.3364 H   0  0  0  0  0  0  0  0  0  0  0  0
    0.4856   -1.2409   -0.4825 C   0  0  0  0  0  0  0  0  0  0  0  0
    0.1007   -1.3966   -1.4918 H   0  0  0  0  0  0  0  0  0  0  0  0
    1.4351   -0.7086   -0.5638 H   0  0  0  0  0  0  0  0  0  0  0  0
    0.7442   -2.5863    0.1446 C   0  0  0  0  0  0  0  0  0  0  0  0
    1.5149   -2.8316    1.2608 N   0  0  0  0  0  0  0  0  0  0  0  0
    2.0702   -2.1536    1.7610 H   0  0  0  0  0  0  0  0  0  0  0  0
    1.4026   -4.1355    1.5651 C   0  0  0  0  0  0  0  0  0  0  0  0
    1.8987   -4.6306    2.3909 H   0  0  0  0  0  0  0  0  0  0  0  0
    0.5801   -4.7453    0.6991 N   0  0  0  0  0  0  0  0  0  0  0  0
    0.1587   -3.7722   -0.2108 C   0  0  0  0  0  0  0  0  0  0  0  0
   -0.5351   -3.9195   -1.0284 H   0  0  0  0  0  0  0  0  0  0  0  0
   -0.6155    1.0531   -0.2585 C   0  0  0  0  0  0  0  0  0  0  0  0
   -0.7354    1.2298   -1.4706 O   0  0  0  0  0  0  0  0  0  0  0  0
   -0.5534    2.0683    0.6122 N   0  0  0  0  0  0  0  0  0  0  0  0
   -0.3998    1.8433    1.5842 H   0  0  0  0  0  0  0  0  0  0  0  0
   -0.6431    3.4786    0.2432 C   0  0  0  0  0  0  0  0  0  0  0  0
   -1.5988    3.6715   -0.2493 H   0  0  0  0  0  0  0  0  0  0  0  0
   -0.5652    4.1044    1.1327 H   0  0  0  0  0  0  0  0  0  0  0  0
    0.1620    3.7331   -0.4478 H   0  0  0  0  0  0  0  0  0  0  0  0
  5  6  2  0  0  0  0
  5  7  1  0  0  0  0
  2  3  1  0  0  0  0
  2  4  1  0  0  0  0
  2  5  1  0  0  0  0
  1  2  1  0  0  0  0
 22 23  2  0  0  0  0
 22 24  1  0  0  0  0
 20 21  1  0  0  0  0
 19 20  1  0  0  0  0
 17 18  1  0  0  0  0
 17 19  2  0  0  0  0
 15 16  1  0  0  0  0
 15 17  1  0  0  0  0
 14 15  1  0  0  0  0
 14 20  2  0  0  0  0
 11 12  1  0  0  0  0
 11 13  1  0  0  0  0
 11 14  1  0  0  0  0
  9 10  1  0  0  0  0
  9 11  1  0  0  0  0
  9 22  1  0  0  0  0
  7  8  1  0  0  0  0
  7  9  1  0  0  0  0
 26 27  1  0  0  0  0
 26 28  1  0  0  0  0
 26 29  1  0  0  0  0
 24 25  1  0  0  0  0
 24 26  1  0  0  0  0
M  END
$$$$
default_name
  -OEChem-01062215323D

 29 29  0     1  0  0  0  0  0999 V2000
   -3.6042   -3.5728    1.4576 H   0  0  0  0  0  0  0  0  0  0  0  0
   -3.5202   -2.6488    0.8866 C   0  0  0  0  0  0  0  0  0  0  0  0
   -4.2052   -1.9048    1.2896 H   0  0  0  0  0  0  0  0  0  0  0  0
   -3.7552   -2.8428   -0.1584 H   0  0  0  0  0  0  0  0  0  0  0  0
   -2.1052   -2.1358    0.9946 C   0  0  0  0  0  0  0  0  0  0  0  0
   -1.2852   -2.7288    1.6826 O   0  0  0  0  0  0  0  0  0  0  0  0
   -1.8202   -1.0288    0.3146 N   0  0  0  0  0  0  0  0  0  0  0  0
   -2.5542   -0.5788   -0.2104 H   0  0  0  0  0  0  0  0  0  0  0  0
   -0.5102   -0.3728    0.3086 C   0  0  1  0  0  0  0  0  0  0  0  0
   -0.1523   -0.2975    1.3364 H   0  0  0  0  0  0  0  0  0  0  0  0
    0.4856   -1.2409   -0.4825 C   0  0  0  0  0  0  0  0  0  0  0  0
    0.1007   -1.3966   -1.4918 H   0  0  0  0  0  0  0  0  0  0  0  0
    1.4351   -0.7086   -0.5638 H   0  0  0  0  0  0  0  0  0  0  0  0
    0.7442   -2.5863    0.1446 C   0  0  0  0  0  0  0  0  0  0  0  0
    1.5149   -2.8316    1.2608 N   0  0  0  0  0  0  0  0  0  0  0  0
    2.0702   -2.1536    1.7610 H   0  0  0  0  0  0  0  0  0  0  0  0
    1.4026   -4.1355    1.5651 C   0  0  0  0  0  0  0  0  0  0  0  0
    1.8987   -4.6306    2.3909 H   0  0  0  0  0  0  0  0  0  0  0  0
    0.5801   -4.7453    0.6991 N   0  0  0  0  0  0  0  0  0  0  0  0
    0.1587   -3.7722   -0.2108 C   0  0  0  0  0  0  0  0  0  0  0  0
   -0.5351   -3.9195   -1.0284 H   0  0  0  0  0  0  0  0  0  0  0  0
   -0.6155    1.0531   -0.2585 C   0  0  0  0  0  0  0  0  0  0  0  0
   -1.0067    1.2333   -1.4115 O   0  0  0  0  0  0  0  0  0  0  0  0
   -0.2512    2.0626    0.5419 N   0  0  0  0  0  0  0  0  0  0  0  0
    0.1103    1.8296    1.4552 H   0  0  0  0  0  0  0  0  0  0  0  0
   -0.2951    3.4727    0.1638 C   0  0  0  0  0  0  0  0  0  0  0  0
   -1.3190    3.7550   -0.0914 H   0  0  0  0  0  0  0  0  0  0  0  0
    0.0527    4.0933    0.9901 H   0  0  0  0  0  0  0  0  0  0  0  0
    0.3400    3.6432   -0.7068 H   0  0  0  0  0  0  0  0  0  0  0  0
  5  6  2  0  0  0  0
  5  7  1  0  0  0  0
  2  3  1  0  0  0  0
  2  4  1  0  0  0  0
  2  5  1  0  0  0  0
  1  2  1  0  0  0  0
 22 23  2  0  0  0  0
 22 24  1  0  0  0  0
 20 21  1  0  0  0  0
 19 20  1  0  0  0  0
 17 18  1  0  0  0  0
 17 19  2  0  0  0  0
 15 16  1  0  0  0  0
 15 17  1  0  0  0  0
 14 15  1  0  0  0  0
 14 20  2  0  0  0  0
 11 12  1  0  0  0  0
 11 13  1  0  0  0  0
 11 14  1  0  0  0  0
  9 10  1  0  0  0  0
  9 11  1  0  0  0  0
  9 22  1  0  0  0  0
  7  8  1  0  0  0  0
  7  9  1  0  0  0  0
 26 27  1  0  0  0  0
 26 28  1  0  0  0  0
 26 29  1  0  0  0  0
 24 25  1  0  0  0  0
 24 26  1  0  0  0  0
M  END
$$$$
default_name
  -OEChem-01062215323D

 29 29  0     1  0  0  0  0  0999 V2000
   -3.6042   -3.5728    1.4576 H   0  0  0  0  0  0  0  0  0  0  0  0
   -3.5202   -2.6488    0.8866 C   0  0  0  0  0  0  0  0  0  0  0  0
   -4.2052   -1.9048    1.2896 H   0  0  0  0  0  0  0  0  0  0  0  0
   -3.7552   -2.8428   -0.1584 H   0  0  0  0  0  0  0  0  0  0  0  0
   -2.1052   -2.1358    0.9946 C   0  0  0  0  0  0  0  0  0  0  0  0
   -1.2852   -2.7288    1.6826 O   0  0  0  0  0  0  0  0  0  0  0  0
   -1.8202   -1.0288    0.3146 N   0  0  0  0  0  0  0  0  0  0  0  0
   -2.5542   -0.5788   -0.2104 H   0  0  0  0  0  0  0  0  0  0  0  0
   -0.5102   -0.3728    0.3086 C   0  0  1  0  0  0  0  0  0  0  0  0
   -0.1523   -0.2975    1.3364 H   0  0  0  0  0  0  0  0  0  0  0  0
    0.4856   -1.2409   -0.4825 C   0  0  0  0  0  0  0  0  0  0  0  0
    0.1007   -1.3966   -1.4918 H   0  0  0  0  0  0  0  0  0  0  0  0
    1.4351   -0.7086   -0.5638 H   0  0  0  0  0  0  0  0  0  0  0  0
    0.7442   -2.5863    0.1446 C   0  0  0  0  0  0  0  0  0  0  0  0
    1.5149   -2.8316    1.2608 N   0  0  0  0  0  0  0  0  0  0  0  0
    2.0702   -2.1536    1.7610 H   0  0  0  0  0  0  0  0  0  0  0  0
    1.4026   -4.1355    1.5651 C   0  0  0  0  0  0  0  0  0  0  0  0
    1.8987   -4.6306    2.3909 H   0  0  0  0  0  0  0  0  0  0  0  0
    0.5801   -4.7453    0.6991 N   0  0  0  0  0  0  0  0  0  0  0  0
    0.1587   -3.7722   -0.2108 C   0  0  0  0  0  0  0  0  0  0  0  0
   -0.5351   -3.9195   -1.0284 H   0  0  0  0  0  0  0  0  0  0  0  0
   -0.6155    1.0531   -0.2585 C   0  0  0  0  0  0  0  0  0  0  0  0
   -1.2542    1.2637   -1.2893 O   0  0  0  0  0  0  0  0  0  0  0  0
    0.0233    2.0271    0.4016 N   0  0  0  0  0  0  0  0  0  0  0  0
    0.5707    1.7655    1.2084 H   0  0  0  0  0  0  0  0  0  0  0  0
    0.0214    3.4324    0.0038 C   0  0  0  0  0  0  0  0  0  0  0  0
   -1.0029    3.8117   -0.0074 H   0  0  0  0  0  0  0  0  0  0  0  0
    0.6143    4.0211    0.7044 H   0  0  0  0  0  0  0  0  0  0  0  0
    0.4412    3.5348   -0.9981 H   0  0  0  0  0  0  0  0  0  0  0  0
  5  6  2  0  0  0  0
  5  7  1  0  0  0  0
  2  3  1  0  0  0  0
  2  4  1  0  0  0  0
  2  5  1  0  0  0  0
  1  2  1  0  0  0  0
 22 23  2  0  0  0  0
 22 24  1  0  0  0  0
 20 21  1  0  0  0  0
 19 20  1  0  0  0  0
 17 18  1  0  0  0  0
 17 19  2  0  0  0  0
 15 16  1  0  0  0  0
 15 17  1  0  0  0  0
 14 15  1  0  0  0  0
 14 20  2  0  0  0  0
 11 12  1  0  0  0  0
 11 13  1  0  0  0  0
 11 14  1  0  0  0  0
  9 10  1  0  0  0  0
  9 11  1  0  0  0  0
  9 22  1  0  0  0  0
  7  8  1  0  0  0  0
  7  9  1  0  0  0  0
 26 27  1  0  0  0  0
 26 28  1  0  0  0  0
 26 29  1  0  0  0  0
 24 25  1  0  0  0  0
 24 26  1  0  0  0  0
M  END
$$$$
default_name
  -OEChem-01062215323D

 29 29  0     1  0  0  0  0  0999 V2000
   -3.6042   -3.5728    1.4576 H   0  0  0  0  0  0  0  0  0  0  0  0
   -3.5202   -2.6488    0.8866 C   0  0  0  0  0  0  0  0  0  0  0  0
   -4.2052   -1.9048    1.2896 H   0  0  0  0  0  0  0  0  0  0  0  0
   -3.7552   -2.8428   -0.1584 H   0  0  0  0  0  0  0  0  0  0  0  0
   -2.1052   -2.1358    0.9946 C   0  0  0  0  0  0  0  0  0  0  0  0
   -1.2852   -2.7288    1.6826 O   0  0  0  0  0  0  0  0  0  0  0  0
   -1.8202   -1.0288    0.3146 N   0  0  0  0  0  0  0  0  0  0  0  0
   -2.5542   -0.5788   -0.2104 H   0  0  0  0  0  0  0  0  0  0  0  0
   -0.5102   -0.3728    0.3086 C   0  0  1  0  0  0  0  0  0  0  0  0
   -0.1523   -0.2975    1.3364 H   0  0  0  0  0  0  0  0  0  0  0  0
    0.4856   -1.2409   -0.4825 C   0  0  0  0  0  0  0  0  0  0  0  0
    0.1007   -1.3966   -1.4918 H   0  0  0  0  0  0  0  0  0  0  0  0
    1.4351   -0.7086   -0.5638 H   0  0  0  0  0  0  0  0  0  0  0  0
    0.7442   -2.5863    0.1446 C   0  0  0  0  0  0  0  0  0  0  0  0
    1.5149   -2.8316    1.2608 N   0  0  0  0  0  0  0  0  0  0  0  0
    2.0702   -2.1536    1.7610 H   0  0  0  0  0  0  0  0  0  0  0  0
    1.4026   -4.1355    1.5651 C   0  0  0  0  0  0  0  0  0  0  0  0
    1.8987   -4.6306    2.3909 H   0  0  0  0  0  0  0  0  0  0  0  0
    0.5801   -4.7453    0.6991 N   0  0  0  0  0  0  0  0  0  0  0  0
    0.1587   -3.7722   -0.2108 C   0  0  0  0  0  0  0  0  0  0  0  0
   -0.5351   -3.9195   -1.0284 H   0  0  0  0  0  0  0  0  0  0  0  0
   -0.6155    1.0531   -0.2585 C   0  0  0  0  0  0  0  0  0  0  0  0
   -1.4611    1.3187   -1.1124 O   0  0  0  0  0  0  0  0  0  0  0  0
    0.2515    1.9641    0.2009 N   0  0  0  0  0  0  0  0  0  0  0  0
    0.9502    1.6552    0.8607 H   0  0  0  0  0  0  0  0  0  0  0  0
    0.2849    3.3604   -0.2261 C   0  0  0  0  0  0  0  0  0  0  0  0
   -0.6720    3.8378   -0.0032 H   0  0  0  0  0  0  0  0  0  0  0  0
    1.0812    3.8927    0.2949 H   0  0  0  0  0  0  0  0  0  0  0  0
    0.4588    3.4153   -1.3018 H   0  0  0  0  0  0  0  0  0  0  0  0
  5  6  2  0  0  0  0
  5  7  1  0  0  0  0
  2  3  1  0  0  0  0
  2  4  1  0  0  0  0
  2  5  1  0  0  0  0
  1  2  1  0  0  0  0
 22 23  2  0  0  0  0
 22 24  1  0  0  0  0
 20 21  1  0  0  0  0
 19 20  1  0  0  0  0
 17 18  1  0  0  0  0
 17 19  2  0  0  0  0
 15 16  1  0  0  0  0
 15 17  1  0  0  0  0
 14 15  1  0  0  0  0
 14 20  2  0  0  0  0
 11 12  1  0  0  0  0
 11 13  1  0  0  0  0
 11 14  1  0  0  0  0
  9 10  1  0  0  0  0
  9 11  1  0  0  0  0
  9 22  1  0  0  0  0
  7  8  1  0  0  0  0
  7  9  1  0  0  0  0
 26 27  1  0  0  0  0
 26 28  1  0  0  0  0
 26 29  1  0  0  0  0
 24 25  1  0  0  0  0
 24 26  1  0  0  0  0
M  END
$$$$
default_name
  -OEChem-01062215323D

 29 29  0     1  0  0  0  0  0999 V2000
   -3.6042   -3.5728    1.4576 H   0  0  0  0  0  0  0  0  0  0  0  0
   -3.5202   -2.6488    0.8866 C   0  0  0  0  0  0  0  0  0  0  0  0
   -4.2052   -1.9048    1.2896 H   0  0  0  0  0  0  0  0  0  0  0  0
   -3.7552   -2.8428   -0.1584 H   0  0  0  0  0  0  0  0  0  0  0  0
   -2.1052   -2.1358    0.9946 C   0  0  0  0  0  0  0  0  0  0  0  0
   -1.2852   -2.7288    1.6826 O   0  0  0  0  0  0  0  0  0  0  0  0
   -1.8202   -1.0288    0.3146 N   0  0  0  0  0  0  0  0  0  0  0  0
   -2.5542   -0.5788   -0.2104 H   0  0  0  0  0  0  0  0  0  0  0  0
   -0.5102   -0.3728    0.3086 C   0  0  1  0  0  0  0  0  0  0  0  0
   -0.1523   -0.2975    1.3364 H   0  0  0  0  0  0  0  0  0  0  0  0
    0.4856   -1.2409   -0.4825 C   0  0  0  0  0  0  0  0  0  0  0  0
    0.1007   -1.3966   -1.4918 H   0  0  0  0  0  0  0  0  0  0  0  0
    1.4351   -0.7086   -0.5638 H   0  0  0  0  0  0  0  0  0  0  0  0
    0.7442   -2.5863    0.1446 C   0  0  0  0  0  0  0  0  0  0  0  0
    1.5149   -2.8316    1.2608 N   0  0  0  0  0  0  0  0  0  0  0  0
    2.0702   -2.1536    1.7610 H   0  0  0  0  0  0  0  0  0  0  0  0
    1.4026   -4.1355    1.5651 C   0  0  0  0  0  0  0  0  0  0  0  0
    1.8987   -4.6306    2.3909 H   0  0  0  0  0  0  0  0  0  0  0  0
    0.5801   -4.7453    0.6991 N   0  0  0  0  0  0  0  0  0  0  0  0
    0.1587   -3.7722   -0.2108 C   0  0  0  0  0  0  0  0  0  0  0  0
   -0.5351   -3.9195   -1.0284 H   0  0  0  0  0  0  0  0  0  0  0  0
   -0.6155    1.0531   -0.2585 C   0  0  0  0  0  0  0  0  0  0  0  0
   -1.6133    1.3948   -0.8929 O   0  0  0  0  0  0  0  0  0  0  0  0
    0.4176    1.8779   -0.0467 N   0  0  0  0  0  0  0  0  0  0  0  0
    1.2227    1.5063    0.4358 H   0  0  0  0  0  0  0  0  0  0  0  0
    0.4773    3.2617   -0.5100 C   0  0  0  0  0  0  0  0  0  0  0  0
   -0.3489    3.8316   -0.0790 H   0  0  0  0  0  0  0  0  0  0  0  0
    1.4218    3.7169   -0.2104 H   0  0  0  0  0  0  0  0  0  0  0  0
    0.3914    3.2928   -1.5973 H   0  0  0  0  0  0  0  0  0  0  0  0
  5  6  2  0  0  0  0
  5  7  1  0  0  0  0
  2  3  1  0  0  0  0
  2  4  1  0  0  0  0
  2  5  1  0  0  0  0
  1  2  1  0  0  0  0
 22 23  2  0  0  0  0
 22 24  1  0  0  0  0
 20 21  1  0  0  0  0
 19 20  1  0  0  0  0
 17 18  1  0  0  0  0
 17 19  2  0  0  0  0
 15 16  1  0  0  0  0
 15 17  1  0  0  0  0
 14 15  1  0  0  0  0
 14 20  2  0  0  0  0
 11 12  1  0  0  0  0
 11 13  1  0  0  0  0
 11 14  1  0  0  0  0
  9 10  1  0  0  0  0
  9 11  1  0  0  0  0
  9 22  1  0  0  0  0
  7  8  1  0  0  0  0
  7  9  1  0  0  0  0
 26 27  1  0  0  0  0
 26 28  1  0  0  0  0
 26 29  1  0  0  0  0
 24 25  1  0  0  0  0
 24 26  1  0  0  0  0
M  END
$$$$
default_name
  -OEChem-01062215323D

 29 29  0     1  0  0  0  0  0999 V2000
   -3.6042   -3.5728    1.4576 H   0  0  0  0  0  0  0  0  0  0  0  0
   -3.5202   -2.6488    0.8866 C   0  0  0  0  0  0  0  0  0  0  0  0
   -4.2052   -1.9048    1.2896 H   0  0  0  0  0  0  0  0  0  0  0  0
   -3.7552   -2.8428   -0.1584 H   0  0  0  0  0  0  0  0  0  0  0  0
   -2.1052   -2.1358    0.9946 C   0  0  0  0  0  0  0  0  0  0  0  0
   -1.2852   -2.7288    1.6826 O   0  0  0  0  0  0  0  0  0  0  0  0
   -1.8202   -1.0288    0.3146 N   0  0  0  0  0  0  0  0  0  0  0  0
   -2.5542   -0.5788   -0.2104 H   0  0  0  0  0  0  0  0  0  0  0  0
   -0.5102   -0.3728    0.3086 C   0  0  1  0  0  0  0  0  0  0  0  0
   -0.0347   -0.5329    1.2773 H   0  0  0  0  0  0  0  0  0  0  0  0
    0.3745   -1.0216   -0.7719 C   0  0  0  0  0  0  0  0  0  0  0  0
   -0.1270   -0.9442   -1.7382 H   0  0  0  0  0  0  0  0  0  0  0  0
    1.3159   -0.4730   -0.8375 H   0  0  0  0  0  0  0  0  0  0  0  0
    0.6841   -2.4723   -0.5074 C   0  0  0  0  0  0  0  0  0  0  0  0
    1.5752   -2.9595    0.4246 N   0  0  0  0  0  0  0  0  0  0  0  0
    2.1946   -2.4089    1.0001 H   0  0  0  0  0  0  0  0  0  0  0  0
    1.4796   -4.2998    0.4299 C   0  0  0  0  0  0  0  0  0  0  0  0
    2.0607   -4.9663    1.0554 H   0  0  0  0  0  0  0  0  0  0  0  0
    0.5536   -4.7029   -0.4523 N   0  0  0  0  0  0  0  0  0  0  0  0
    0.0440   -3.5509   -1.0572 C   0  0  0  0  0  0  0  0  0  0  0  0
   -0.7419   -3.5137   -1.8005 H   0  0  0  0  0  0  0  0  0  0  0  0
   -0.6595    1.1442    0.1029 C   0  0  0  0  0  0  0  0  0  0  0  0
   -1.7753    1.6420   -0.0449 O   0  0  0  0  0  0  0  0  0  0  0  0
    0.4619    1.8752    0.0758 N   0  0  0  0  0  0  0  0  0  0  0  0
    1.3419    1.3864    0.1500 H   0  0  0  0  0  0  0  0  0  0  0  0
    0.4982    3.3242   -0.1037 C   0  0  0  0  0  0  0  0  0  0  0  0
   -0.0597    3.8101    0.6999 H   0  0  0  0  0  0  0  0  0  0  0  0
    1.5296    3.6780   -0.0891 H   0  0  0  0  0  0  0  0  0  0  0  0
    0.0393    3.5915   -1.0568 H   0  0  0  0  0  0  0  0  0  0  0  0
  5  6  2  0  0  0  0
  5  7  1  0  0  0  0
  2  3  1  0  0  0  0
  2  4  1  0  0  0  0
  2  5  1  0  0  0  0
  1  2  1  0  0  0  0
 22 23  2  0  0  0  0
 22 24  1  0  0  0  0
 20 21  1  0  0  0  0
 19 20  1  0  0  0  0
 17 18  1  0  0  0  0
 17 19  2  0  0  0  0
 15 16  1  0  0  0  0
 15 17  1  0  0  0  0
 14 15  1  0  0  0  0
 14 20  2  0  0  0  0
 11 12  1  0  0  0  0
 11 13  1  0  0  0  0
 11 14  1  0  0  0  0
  9 10  1  0  0  0  0
  9 11  1  0  0  0  0
  9 22  1  0  0  0  0
  7  8  1  0  0  0  0
  7  9  1  0  0  0  0
 26 27  1  0  0  0  0
 26 28  1  0  0  0  0
 26 29  1  0  0  0  0
 24 25  1  0  0  0  0
 24 26  1  0  0  0  0
M  END
$$$$
default_name
  -OEChem-01062215323D

 29 29  0     1  0  0  0  0  0999 V2000
   -3.6042   -3.5728    1.4576 H   0  0  0  0  0  0  0  0  0  0  0  0
   -3.5202   -2.6488    0.8866 C   0  0  0  0  0  0  0  0  0  0  0  0
   -4.2052   -1.9048    1.2896 H   0  0  0  0  0  0  0  0  0  0  0  0
   -3.7552   -2.8428   -0.1584 H   0  0  0  0  0  0  0  0  0  0  0  0
   -2.1052   -2.1358    0.9946 C   0  0  0  0  0  0  0  0  0  0  0  0
   -1.2852   -2.7288    1.6826 O   0  0  0  0  0  0  0  0  0  0  0  0
   -1.8202   -1.0288    0.3146 N   0  0  0  0  0  0  0  0  0  0  0  0
   -2.5542   -0.5788   -0.2104 H   0  0  0  0  0  0  0  0  0  0  0  0
   -0.5102   -0.3728    0.3086 C   0  0  1  0  0  0  0  0  0  0  0  0
   -0.0347   -0.5329    1.2773 H   0  0  0  0  0  0  0  0  0  0  0  0
    0.3745   -1.0216   -0.7719 C   0  0  0  0  0  0  0  0  0  0  0  0
   -0.1270   -0.9442   -1.7382 H   0  0  0  0  0  0  0  0  0  0  0  0
    1.3159   -0.4730   -0.8375 H   0  0  0  0  0  0  0  0  0  0  0  0
    0.6841   -2.4723   -0.5074 C   0  0  0  0  0  0  0  0  0  0  0  0
    1.5752   -2.9595    0.4246 N   0  0  0  0  0  0  0  0  0  0  0  0
    2.1946   -2.4089    1.0001 H   0  0  0  0  0  0  0  0  0  0  0  0
    1.4796   -4.2998    0.4299 C   0  0  0  0  0  0  0  0  0  0  0  0
    2.0607   -4.9663    1.0554 H   0  0  0  0  0  0  0  0  0  0  0  0
    0.5536   -4.7029   -0.4523 N   0  0  0  0  0  0  0  0  0  0  0  0
    0.0440   -3.5509   -1.0572 C   0  0  0  0  0  0  0  0  0  0  0  0
   -0.7419   -3.5137   -1.8005 H   0  0  0  0  0  0  0  0  0  0  0  0
   -0.6595    1.1442    0.1029 C   0  0  0  0  0  0  0  0  0  0  0  0
   -1.7599    1.6807    0.2296 O   0  0  0  0  0  0  0  0  0  0  0  0
    0.4400    1.8315   -0.2307 N   0  0  0  0  0  0  0  0  0  0  0  0
    1.2940    1.3113   -0.3688 H   0  0  0  0  0  0  0  0  0  0  0  0
    0.4747    3.2741   -0.4563 C   0  0  0  0  0  0  0  0  0  0  0  0
    0.1563    3.7972    0.4482 H   0  0  0  0  0  0  0  0  0  0  0  0
    1.4860    3.5888   -0.7155 H   0  0  0  0  0  0  0  0  0  0  0  0
   -0.2041    3.5389   -1.2685 H   0  0  0  0  0  0  0  0  0  0  0  0
  5  6  2  0  0  0  0
  5  7  1  0  0  0  0
  2  3  1  0  0  0  0
  2  4  1  0  0  0  0
  2  5  1  0  0  0  0
  1  2  1  0  0  0  0
 22 23  2  0  0  0  0
 22 24  1  0  0  0  0
 20 21  1  0  0  0  0
 19 20  1  0  0  0  0
 17 18  1  0  0  0  0
 17 19  2  0  0  0  0
 15 16  1  0  0  0  0
 15 17  1  0  0  0  0
 14 15  1  0  0  0  0
 14 20  2  0  0  0  0
 11 12  1  0  0  0  0
 11 13  1  0  0  0  0
 11 14  1  0  0  0  0
  9 10  1  0  0  0  0
  9 11  1  0  0  0  0
  9 22  1  0  0  0  0
  7  8  1  0  0  0  0
  7  9  1  0  0  0  0
 26 27  1  0  0  0  0
 26 28  1  0  0  0  0
 26 29  1  0  0  0  0
 24 25  1  0  0  0  0
 24 26  1  0  0  0  0
M  END
$$$$
default_name
  -OEChem-01062215323D

 29 29  0     1  0  0  0  0  0999 V2000
   -3.6042   -3.5728    1.4576 H   0  0  0  0  0  0  0  0  0  0  0  0
   -3.5202   -2.6488    0.8866 C   0  0  0  0  0  0  0  0  0  0  0  0
   -4.2052   -1.9048    1.2896 H   0  0  0  0  0  0  0  0  0  0  0  0
   -3.7552   -2.8428   -0.1584 H   0  0  0  0  0  0  0  0  0  0  0  0
   -2.1052   -2.1358    0.9946 C   0  0  0  0  0  0  0  0  0  0  0  0
   -1.2852   -2.7288    1.6826 O   0  0  0  0  0  0  0  0  0  0  0  0
   -1.8202   -1.0288    0.3146 N   0  0  0  0  0  0  0  0  0  0  0  0
   -2.5542   -0.5788   -0.2104 H   0  0  0  0  0  0  0  0  0  0  0  0
   -0.5102   -0.3728    0.3086 C   0  0  1  0  0  0  0  0  0  0  0  0
   -0.0347   -0.5329    1.2773 H   0  0  0  0  0  0  0  0  0  0  0  0
    0.3745   -1.0216   -0.7719 C   0  0  0  0  0  0  0  0  0  0  0  0
   -0.1270   -0.9442   -1.7382 H   0  0  0  0  0  0  0  0  0  0  0  0
    1.3159   -0.4730   -0.8375 H   0  0  0  0  0  0  0  0  0  0  0  0
    0.6841   -2.4723   -0.5074 C   0  0  0  0  0  0  0  0  0  0  0  0
    1.5752   -2.9595    0.4246 N   0  0  0  0  0  0  0  0  0  0  0  0
    2.1946   -2.4089    1.0001 H   0  0  0  0  0  0  0  0  0  0  0  0
    1.4796   -4.2998    0.4299 C   0  0  0  0  0  0  0  0  0  0  0  0
    2.0607   -4.9663    1.0554 H   0  0  0  0  0  0  0  0  0  0  0  0
    0.5536   -4.7029   -0.4523 N   0  0  0  0  0  0  0  0  0  0  0  0
    0.0440   -3.5509   -1.0572 C   0  0  0  0  0  0  0  0  0  0  0  0
   -0.7419   -3.5137   -1.8005 H   0  0  0  0  0  0  0  0  0  0  0  0
   -0.6595    1.1442    0.1029 C   0  0  0  0  0  0  0  0  0  0  0  0
   -1.6735    1.7245    0.4899 O   0  0  0  0  0  0  0  0  0  0  0  0
    0.3392    1.7823   -0.5200 N   0  0  0  0  0  0  0  0  0  0  0  0
    1.1127    1.2274   -0.8557 H   0  0  0  0  0  0  0  0  0  0  0  0
    0.3602    3.2176   -0.7897 C   0  0  0  0  0  0  0  0  0  0  0  0
    0.3002    3.7710    0.1502 H   0  0  0  0  0  0  0  0  0  0  0  0
    1.2810    3.4884   -1.3072 H   0  0  0  0  0  0  0  0  0  0  0  0
   -0.4951    3.4911   -1.4096 H   0  0  0  0  0  0  0  0  0  0  0  0
  5  6  2  0  0  0  0
  5  7  1  0  0  0  0
  2  3  1  0  0  0  0
  2  4  1  0  0  0  0
  2  5  1  0  0  0  0
  1  2  1  0  0  0  0
 22 23  2  0  0  0  0
 22 24  1  0  0  0  0
 20 21  1  0  0  0  0
 19 20  1  0  0  0  0
 17 18  1  0  0  0  0
 17 19  2  0  0  0  0
 15 16  1  0  0  0  0
 15 17  1  0  0  0  0
 14 15  1  0  0  0  0
 14 20  2  0  0  0  0
 11 12  1  0  0  0  0
 11 13  1  0  0  0  0
 11 14  1  0  0  0  0
  9 10  1  0  0  0  0
  9 11  1  0  0  0  0
  9 22  1  0  0  0  0
  7  8  1  0  0  0  0
  7  9  1  0  0  0  0
 26 27  1  0  0  0  0
 26 28  1  0  0  0  0
 26 29  1  0  0  0  0
 24 25  1  0  0  0  0
 24 26  1  0  0  0  0
M  END
$$$$
default_name
  -OEChem-01062215323D

 29 29  0     1  0  0  0  0  0999 V2000
   -3.6042   -3.5728    1.4576 H   0  0  0  0  0  0  0  0  0  0  0  0
   -3.5202   -2.6488    0.8866 C   0  0  0  0  0  0  0  0  0  0  0  0
   -4.2052   -1.9048    1.2896 H   0  0  0  0  0  0  0  0  0  0  0  0
   -3.7552   -2.8428   -0.1584 H   0  0  0  0  0  0  0  0  0  0  0  0
   -2.1052   -2.1358    0.9946 C   0  0  0  0  0  0  0  0  0  0  0  0
   -1.2852   -2.7288    1.6826 O   0  0  0  0  0  0  0  0  0  0  0  0
   -1.8202   -1.0288    0.3146 N   0  0  0  0  0  0  0  0  0  0  0  0
   -2.5542   -0.5788   -0.2104 H   0  0  0  0  0  0  0  0  0  0  0  0
   -0.5102   -0.3728    0.3086 C   0  0  1  0  0  0  0  0  0  0  0  0
   -0.0347   -0.5329    1.2773 H   0  0  0  0  0  0  0  0  0  0  0  0
    0.3745   -1.0216   -0.7719 C   0  0  0  0  0  0  0  0  0  0  0  0
   -0.1270   -0.9442   -1.7382 H   0  0  0  0  0  0  0  0  0  0  0  0
    1.3159   -0.4730   -0.8375 H   0  0  0  0  0  0  0  0  0  0  0  0
    0.6841   -2.4723   -0.5074 C   0  0  0  0  0  0  0  0  0  0  0  0
    1.5752   -2.9595    0.4246 N   0  0  0  0  0  0  0  0  0  0  0  0
    2.1946   -2.4089    1.0001 H   0  0  0  0  0  0  0  0  0  0  0  0
    1.4796   -4.2998    0.4299 C   0  0  0  0  0  0  0  0  0  0  0  0
    2.0607   -4.9663    1.0554 H   0  0  0  0  0  0  0  0  0  0  0  0
    0.5536   -4.7029   -0.4523 N   0  0  0  0  0  0  0  0  0  0  0  0
    0.0440   -3.5509   -1.0572 C   0  0  0  0  0  0  0  0  0  0  0  0
   -0.7419   -3.5137   -1.8005 H   0  0  0  0  0  0  0  0  0  0  0  0
   -0.6595    1.1442    0.1029 C   0  0  0  0  0  0  0  0  0  0  0  0
   -1.5221    1.7703    0.7182 O   0  0  0  0  0  0  0  0  0  0  0  0
    0.1662    1.7311   -0.7726 N   0  0  0  0  0  0  0  0  0  0  0  0
    0.8104    1.1405   -1.2777 H   0  0  0  0  0  0  0  0  0  0  0  0
    0.1625    3.1587   -1.0810 C   0  0  0  0  0  0  0  0  0  0  0  0
    0.3623    3.7332   -0.1737 H   0  0  0  0  0  0  0  0  0  0  0  0
    0.9284    3.3836   -1.8238 H   0  0  0  0  0  0  0  0  0  0  0  0
   -0.8138    3.4516   -1.4703 H   0  0  0  0  0  0  0  0  0  0  0  0
  5  6  2  0  0  0  0
  5  7  1  0  0  0  0
  2  3  1  0  0  0  0
  2  4  1  0  0  0  0
  2  5  1  0  0  0  0
  1  2  1  0  0  0  0
 22 23  2  0  0  0  0
 22 24  1  0  0  0  0
 20 21  1  0  0  0  0
 19 20  1  0  0  0  0
 17 18  1  0  0  0  0
 17 19  2  0  0  0  0
 15 16  1  0  0  0  0
 15 17  1  0  0  0  0
 14 15  1  0  0  0  0
 14 20  2  0  0  0  0
 11 12  1  0  0  0  0
 11 13  1  0  0  0  0
 11 14  1  0  0  0  0
  9 10  1  0  0  0  0
  9 11  1  0  0  0  0
  9 22  1  0  0  0  0
  7  8  1  0  0  0  0
  7  9  1  0  0  0  0
 26 27  1  0  0  0  0
 26 28  1  0  0  0  0
 26 29  1  0  0  0  0
 24 25  1  0  0  0  0
 24 26  1  0  0  0  0
M  END
$$$$
default_name
  -OEChem-01062215323D

 29 29  0     1  0  0  0  0  0999 V2000
   -3.6042   -3.5728    1.4576 H   0  0  0  0  0  0  0  0  0  0  0  0
   -3.5202   -2.6488    0.8866 C   0  0  0  0  0  0  0  0  0  0  0  0
   -4.2052   -1.9048    1.2896 H   0  0  0  0  0  0  0  0  0  0  0  0
   -3.7552   -2.8428   -0.1584 H   0  0  0  0  0  0  0  0  0  0  0  0
   -2.1052   -2.1358    0.9946 C   0  0  0  0  0  0  0  0  0  0  0  0
   -1.2852   -2.7288    1.6826 O   0  0  0  0  0  0  0  0  0  0  0  0
   -1.8202   -1.0288    0.3146 N   0  0  0  0  0  0  0  0  0  0  0  0
   -2.5542   -0.5788   -0.2104 H   0  0  0  0  0  0  0  0  0  0  0  0
   -0.5102   -0.3728    0.3086 C   0  0  1  0  0  0  0  0  0  0  0  0
   -0.0347   -0.5329    1.2773 H   0  0  0  0  0  0  0  0  0  0  0  0
    0.3745   -1.0216   -0.7719 C   0  0  0  0  0  0  0  0  0  0  0  0
   -0.1270   -0.9442   -1.7382 H   0  0  0  0  0  0  0  0  0  0  0  0
    1.3159   -0.4730   -0.8375 H   0  0  0  0  0  0  0  0  0  0  0  0
    0.6841   -2.4723   -0.5074 C   0  0  0  0  0  0  0  0  0  0  0  0
    1.5752   -2.9595    0.4246 N   0  0  0  0  0  0  0  0  0  0  0  0
    2.1946   -2.4089    1.0001 H   0  0  0  0  0  0  0  0  0  0  0  0
    1.4796   -4.2998    0.4299 C   0  0  0  0  0  0  0  0  0  0  0  0
    2.0607   -4.9663    1.0554 H   0  0  0  0  0  0  0  0  0  0  0  0
    0.5536   -4.7029   -0.4523 N   0  0  0  0  0  0  0  0  0  0  0  0
    0.0440   -3.5509   -1.0572 C   0  0  0  0  0  0  0  0  0  0  0  0
   -0.7419   -3.5137   -1.8005 H   0  0  0  0  0  0  0  0  0  0  0  0
   -0.6595    1.1442    0.1029 C   0  0  0  0  0  0  0  0  0  0  0  0
   -1.3161    1.8151    0.8989 O   0  0  0  0  0  0  0  0  0  0  0  0
   -0.0672    1.6812   -0.9710 N   0  0  0  0  0  0  0  0  0  0  0  0
    0.4076    1.0564   -1.6059 H   0  0  0  0  0  0  0  0  0  0  0  0
   -0.1048    3.1013   -1.3105 C   0  0  0  0  0  0  0  0  0  0  0  0
    0.3382    3.6864   -0.5014 H   0  0  0  0  0  0  0  0  0  0  0  0
    0.4523    3.2817   -2.2303 H   0  0  0  0  0  0  0  0  0  0  0  0
   -1.1385    3.4228   -1.4466 H   0  0  0  0  0  0  0  0  0  0  0  0
  5  6  2  0  0  0  0
  5  7  1  0  0  0  0
  2  3  1  0  0  0  0
  2  4  1  0  0  0  0
  2  5  1  0  0  0  0
  1  2  1  0  0  0  0
 22 23  2  0  0  0  0
 22 24  1  0  0  0  0
 20 21  1  0  0  0  0
 19 20  1  0  0  0  0
 17 18  1  0  0  0  0
 17 19  2  0  0  0  0
 15 16  1  0  0  0  0
 15 17  1  0  0  0  0
 14 15  1  0  0  0  0
 14 20  2  0  0  0  0
 11 12  1  0  0  0  0
 11 13  1  0  0  0  0
 11 14  1  0  0  0  0
  9 10  1  0  0  0  0
  9 11  1  0  0  0  0
  9 22  1  0  0  0  0
  7  8  1  0  0  0  0
  7  9  1  0  0  0  0
 26 27  1  0  0  0  0
 26 28  1  0  0  0  0
 26 29  1  0  0  0  0
 24 25  1  0  0  0  0
 24 26  1  0  0  0  0
M  END
$$$$
default_name
  -OEChem-01062215323D

 29 29  0     1  0  0  0  0  0999 V2000
   -3.6042   -3.5728    1.4576 H   0  0  0  0  0  0  0  0  0  0  0  0
   -3.5202   -2.6488    0.8866 C   0  0  0  0  0  0  0  0  0  0  0  0
   -4.2052   -1.9048    1.2896 H   0  0  0  0  0  0  0  0  0  0  0  0
   -3.7552   -2.8428   -0.1584 H   0  0  0  0  0  0  0  0  0  0  0  0
   -2.1052   -2.1358    0.9946 C   0  0  0  0  0  0  0  0  0  0  0  0
   -1.2852   -2.7288    1.6826 O   0  0  0  0  0  0  0  0  0  0  0  0
   -1.8202   -1.0288    0.3146 N   0  0  0  0  0  0  0  0  0  0  0  0
   -2.5542   -0.5788   -0.2104 H   0  0  0  0  0  0  0  0  0  0  0  0
   -0.5102   -0.3728    0.3086 C   0  0  1  0  0  0  0  0  0  0  0  0
   -0.0347   -0.5329    1.2773 H   0  0  0  0  0  0  0  0  0  0  0  0
    0.3745   -1.0216   -0.7719 C   0  0  0  0  0  0  0  0  0  0  0  0
   -0.1270   -0.9442   -1.7382 H   0  0  0  0  0  0  0  0  0  0  0  0
    1.3159   -0.4730   -0.8375 H   0  0  0  0  0  0  0  0  0  0  0  0
    0.6841   -2.4723   -0.5074 C   0  0  0  0  0  0  0  0  0  0  0  0
    1.5752   -2.9595    0.4246 N   0  0  0  0  0  0  0  0  0  0  0  0
    2.1946   -2.4089    1.0001 H   0  0  0  0  0  0  0  0  0  0  0  0
    1.4796   -4.2998    0.4299 C   0  0  0  0  0  0  0  0  0  0  0  0
    2.0607   -4.9663    1.0554 H   0  0  0  0  0  0  0  0  0  0  0  0
    0.5536   -4.7029   -0.4523 N   0  0  0  0  0  0  0  0  0  0  0  0
    0.0440   -3.5509   -1.0572 C   0  0  0  0  0  0  0  0  0  0  0  0
   -0.7419   -3.5137   -1.8005 H   0  0  0  0  0  0  0  0  0  0  0  0
   -0.6595    1.1442    0.1029 C   0  0  0  0  0  0  0  0  0  0  0  0
   -1.0693    1.8558    1.0197 O   0  0  0  0  0  0  0  0  0  0  0  0
   -0.3449    1.6362   -1.1019 N   0  0  0  0  0  0  0  0  0  0  0  0
   -0.0681    0.9808   -1.8181 H   0  0  0  0  0  0  0  0  0  0  0  0
   -0.4236    3.0493   -1.4625 C   0  0  0  0  0  0  0  0  0  0  0  0
    0.2297    3.6338   -0.8107 H   0  0  0  0  0  0  0  0  0  0  0  0
   -0.1148    3.1895   -2.4988 H   0  0  0  0  0  0  0  0  0  0  0  0
   -1.4472    3.4069   -1.3402 H   0  0  0  0  0  0  0  0  0  0  0  0
  5  6  2  0  0  0  0
  5  7  1  0  0  0  0
  2  3  1  0  0  0  0
  2  4  1  0  0  0  0
  2  5  1  0  0  0  0
  1  2  1  0  0  0  0
 22 23  2  0  0  0  0
 22 24  1  0  0  0  0
 20 21  1  0  0  0  0
 19 20  1  0  0  0  0
 17 18  1  0  0  0  0
 17 19  2  0  0  0  0
 15 16  1  0  0  0  0
 15 17  1  0  0  0  0
 14 15  1  0  0  0  0
 14 20  2  0  0  0  0
 11 12  1  0  0  0  0
 11 13  1  0  0  0  0
 11 14  1  0  0  0  0
  9 10  1  0  0  0  0
  9 11  1  0  0  0  0
  9 22  1  0  0  0  0
  7  8  1  0  0  0  0
  7  9  1  0  0  0  0
 26 27  1  0  0  0  0
 26 28  1  0  0  0  0
 26 29  1  0  0  0  0
 24 25  1  0  0  0  0
 24 26  1  0  0  0  0
M  END
$$$$
default_name
  -OEChem-01062215323D

 29 29  0     1  0  0  0  0  0999 V2000
   -3.6042   -3.5728    1.4576 H   0  0  0  0  0  0  0  0  0  0  0  0
   -3.5202   -2.6488    0.8866 C   0  0  0  0  0  0  0  0  0  0  0  0
   -4.2052   -1.9048    1.2896 H   0  0  0  0  0  0  0  0  0  0  0  0
   -3.7552   -2.8428   -0.1584 H   0  0  0  0  0  0  0  0  0  0  0  0
   -2.1052   -2.1358    0.9946 C   0  0  0  0  0  0  0  0  0  0  0  0
   -1.2852   -2.7288    1.6826 O   0  0  0  0  0  0  0  0  0  0  0  0
   -1.8202   -1.0288    0.3146 N   0  0  0  0  0  0  0  0  0  0  0  0
   -2.5542   -0.5788   -0.2104 H   0  0  0  0  0  0  0  0  0  0  0  0
   -0.5102   -0.3728    0.3086 C   0  0  1  0  0  0  0  0  0  0  0  0
   -0.0347   -0.5329    1.2773 H   0  0  0  0  0  0  0  0  0  0  0  0
    0.3745   -1.0216   -0.7719 C   0  0  0  0  0  0  0  0  0  0  0  0
   -0.1270   -0.9442   -1.7382 H   0  0  0  0  0  0  0  0  0  0  0  0
    1.3159   -0.4730   -0.8375 H   0  0  0  0  0  0  0  0  0  0  0  0
    0.6841   -2.4723   -0.5074 C   0  0  0  0  0  0  0  0  0  0  0  0
    1.5752   -2.9595    0.4246 N   0  0  0  0  0  0  0  0  0  0  0  0
    2.1946   -2.4089    1.0001 H   0  0  0  0  0  0  0  0  0  0  0  0
    1.4796   -4.2998    0.4299 C   0  0  0  0  0  0  0  0  0  0  0  0
    2.0607   -4.9663    1.0554 H   0  0  0  0  0  0  0  0  0  0  0  0
    0.5536   -4.7029   -0.4523 N   0  0  0  0  0  0  0  0  0  0  0  0
    0.0440   -3.5509   -1.0572 C   0  0  0  0  0  0  0  0  0  0  0  0
   -0.7419   -3.5137   -1.8005 H   0  0  0  0  0  0  0  0  0  0  0  0
   -0.6595    1.1442    0.1029 C   0  0  0  0  0  0  0  0  0  0  0  0
   -0.7988    1.8895    1.0724 O   0  0  0  0  0  0  0  0  0  0  0  0
   -0.6482    1.5989   -1.1563 N   0  0  0  0  0  0  0  0  0  0  0  0
   -0.5844    0.9190   -1.8996 H   0  0  0  0  0  0  0  0  0  0  0  0
   -0.7721    3.0063   -1.5266 C   0  0  0  0  0  0  0  0  0  0  0  0
    0.0441    3.5789   -1.0804 H   0  0  0  0  0  0  0  0  0  0  0  0
   -0.7343    3.1133   -2.6111 H   0  0  0  0  0  0  0  0  0  0  0  0
   -1.7186    3.4049   -1.1581 H   0  0  0  0  0  0  0  0  0  0  0  0
  5  6  2  0  0  0  0
  5  7  1  0  0  0  0
  2  3  1  0  0  0  0
  2  4  1  0  0  0  0
  2  5  1  0  0  0  0
  1  2  1  0  0  0  0
 22 23  2  0  0  0  0
 22 24  1  0  0  0  0
 20 21  1  0  0  0  0
 19 20  1  0  0  0  0
 17 18  1  0  0  0  0
 17 19  2  0  0  0  0
 15 16  1  0  0  0  0
 15 17  1  0  0  0  0
 14 15  1  0  0  0  0
 14 20  2  0  0  0  0
 11 12  1  0  0  0  0
 11 13  1  0  0  0  0
 11 14  1  0  0  0  0
  9 10  1  0  0  0  0
  9 11  1  0  0  0  0
  9 22  1  0  0  0  0
  7  8  1  0  0  0  0
  7  9  1  0  0  0  0
 26 27  1  0  0  0  0
 26 28  1  0  0  0  0
 26 29  1  0  0  0  0
 24 25  1  0  0  0  0
 24 26  1  0  0  0  0
M  END
$$$$
default_name
  -OEChem-01062215323D

 29 29  0     1  0  0  0  0  0999 V2000
   -3.6042   -3.5728    1.4576 H   0  0  0  0  0  0  0  0  0  0  0  0
   -3.5202   -2.6488    0.8866 C   0  0  0  0  0  0  0  0  0  0  0  0
   -4.2052   -1.9048    1.2896 H   0  0  0  0  0  0  0  0  0  0  0  0
   -3.7552   -2.8428   -0.1584 H   0  0  0  0  0  0  0  0  0  0  0  0
   -2.1052   -2.1358    0.9946 C   0  0  0  0  0  0  0  0  0  0  0  0
   -1.2852   -2.7288    1.6826 O   0  0  0  0  0  0  0  0  0  0  0  0
   -1.8202   -1.0288    0.3146 N   0  0  0  0  0  0  0  0  0  0  0  0
   -2.5542   -0.5788   -0.2104 H   0  0  0  0  0  0  0  0  0  0  0  0
   -0.5102   -0.3728    0.3086 C   0  0  1  0  0  0  0  0  0  0  0  0
   -0.0347   -0.5329    1.2773 H   0  0  0  0  0  0  0  0  0  0  0  0
    0.3745   -1.0216   -0.7719 C   0  0  0  0  0  0  0  0  0  0  0  0
   -0.1270   -0.9442   -1.7382 H   0  0  0  0  0  0  0  0  0  0  0  0
    1.3159   -0.4730   -0.8375 H   0  0  0  0  0  0  0  0  0  0  0  0
    0.6841   -2.4723   -0.5074 C   0  0  0  0  0  0  0  0  0  0  0  0
    1.5752   -2.9595    0.4246 N   0  0  0  0  0  0  0  0  0  0  0  0
    2.1946   -2.4089    1.0001 H   0  0  0  0  0  0  0  0  0  0  0  0
    1.4796   -4.2998    0.4299 C   0  0  0  0  0  0  0  0  0  0  0  0
    2.0607   -4.9663    1.0554 H   0  0  0  0  0  0  0  0  0  0  0  0
    0.5536   -4.7029   -0.4523 N   0  0  0  0  0  0  0  0  0  0  0  0
    0.0440   -3.5509   -1.0572 C   0  0  0  0  0  0  0  0  0  0  0  0
   -0.7419   -3.5137   -1.8005 H   0  0  0  0  0  0  0  0  0  0  0  0
   -0.6595    1.1442    0.1029 C   0  0  0  0  0  0  0  0  0  0  0  0
   -0.5228    1.9141    1.0534 O   0  0  0  0  0  0  0  0  0  0  0  0
   -0.9563    1.5721   -1.1305 N   0  0  0  0  0  0  0  0  0  0  0  0
   -1.1061    0.8750   -1.8451 H   0  0  0  0  0  0  0  0  0  0  0  0
   -1.1266    2.9753   -1.4985 C   0  0  0  0  0  0  0  0  0  0  0  0
   -0.2059    3.5256   -1.2922 H   0  0  0  0  0  0  0  0  0  0  0  0
   -1.3640    3.0584   -2.5595 H   0  0  0  0  0  0  0  0  0  0  0  0
   -1.9345    3.4169   -0.9130 H   0  0  0  0  0  0  0  0  0  0  0  0
  5  6  2  0  0  0  0
  5  7  1  0  0  0  0
  2  3  1  0  0  0  0
  2  4  1  0  0  0  0
  2  5  1  0  0  0  0
  1  2  1  0  0  0  0
 22 23  2  0  0  0  0
 22 24  1  0  0  0  0
 20 21  1  0  0  0  0
 19 20  1  0  0  0  0
 17 18  1  0  0  0  0
 17 19  2  0  0  0  0
 15 16  1  0  0  0  0
 15 17  1  0  0  0  0
 14 15  1  0  0  0  0
 14 20  2  0  0  0  0
 11 12  1  0  0  0  0
 11 13  1  0  0  0  0
 11 14  1  0  0  0  0
  9 10  1  0  0  0  0
  9 11  1  0  0  0  0
  9 22  1  0  0  0  0
  7  8  1  0  0  0  0
  7  9  1  0  0  0  0
 26 27  1  0  0  0  0
 26 28  1  0  0  0  0
 26 29  1  0  0  0  0
 24 25  1  0  0  0  0
 24 26  1  0  0  0  0
M  END
$$$$
default_name
  -OEChem-01062215323D

 29 29  0     1  0  0  0  0  0999 V2000
   -3.6042   -3.5728    1.4576 H   0  0  0  0  0  0  0  0  0  0  0  0
   -3.5202   -2.6488    0.8866 C   0  0  0  0  0  0  0  0  0  0  0  0
   -4.2052   -1.9048    1.2896 H   0  0  0  0  0  0  0  0  0  0  0  0
   -3.7552   -2.8428   -0.1584 H   0  0  0  0  0  0  0  0  0  0  0  0
   -2.1052   -2.1358    0.9946 C   0  0  0  0  0  0  0  0  0  0  0  0
   -1.2852   -2.7288    1.6826 O   0  0  0  0  0  0  0  0  0  0  0  0
   -1.8202   -1.0288    0.3146 N   0  0  0  0  0  0  0  0  0  0  0  0
   -2.5542   -0.5788   -0.2104 H   0  0  0  0  0  0  0  0  0  0  0  0
   -0.5102   -0.3728    0.3086 C   0  0  1  0  0  0  0  0  0  0  0  0
   -0.0347   -0.5329    1.2773 H   0  0  0  0  0  0  0  0  0  0  0  0
    0.3745   -1.0216   -0.7719 C   0  0  0  0  0  0  0  0  0  0  0  0
   -0.1270   -0.9442   -1.7382 H   0  0  0  0  0  0  0  0  0  0  0  0
    1.3159   -0.4730   -0.8375 H   0  0  0  0  0  0  0  0  0  0  0  0
    0.6841   -2.4723   -0.5074 C   0  0  0  0  0  0  0  0  0  0  0  0
    1.5752   -2.9595    0.4246 N   0  0  0  0  0  0  0  0  0  0  0  0
    2.1946   -2.4089    1.0001 H   0  0  0  0  0  0  0  0  0  0  0  0
    1.4796   -4.2998    0.4299 C   0  0  0  0  0  0  0  0  0  0  0  0
    2.0607   -4.9663    1.0554 H   0  0  0  0  0  0  0  0  0  0  0  0
    0.5536   -4.7029   -0.4523 N   0  0  0  0  0  0  0  0  0  0  0  0
    0.0440   -3.5509   -1.0572 C   0  0  0  0  0  0  0  0  0  0  0  0
   -0.7419   -3.5137   -1.8005 H   0  0  0  0  0  0  0  0  0  0  0  0
   -0.6595    1.1442    0.1029 C   0  0  0  0  0  0  0  0  0  0  0  0
   -0.2602    1.9278    0.9640 O   0  0  0  0  0  0  0  0  0  0  0  0
   -1.2483    1.5576   -1.0263 N   0  0  0  0  0  0  0  0  0  0  0  0
   -1.5975    0.8520   -1.6581 H   0  0  0  0  0  0  0  0  0  0  0  0
   -1.4629    2.9582   -1.3801 C   0  0  0  0  0  0  0  0  0  0  0  0
   -0.5032    3.4775   -1.4316 H   0  0  0  0  0  0  0  0  0  0  0  0
   -1.9610    3.0284   -2.3475 H   0  0  0  0  0  0  0  0  0  0  0  0
   -2.0799    3.4421   -0.6214 H   0  0  0  0  0  0  0  0  0  0  0  0
  5  6  2  0  0  0  0
  5  7  1  0  0  0  0
  2  3  1  0  0  0  0
  2  4  1  0  0  0  0
  2  5  1  0  0  0  0
  1  2  1  0  0  0  0
 22 23  2  0  0  0  0
 22 24  1  0  0  0  0
 20 21  1  0  0  0  0
 19 20  1  0  0  0  0
 17 18  1  0  0  0  0
 17 19  2  0  0  0  0
 15 16  1  0  0  0  0
 15 17  1  0  0  0  0
 14 15  1  0  0  0  0
 14 20  2  0  0  0  0
 11 12  1  0  0  0  0
 11 13  1  0  0  0  0
 11 14  1  0  0  0  0
  9 10  1  0  0  0  0
  9 11  1  0  0  0  0
  9 22  1  0  0  0  0
  7  8  1  0  0  0  0
  7  9  1  0  0  0  0
 26 27  1  0  0  0  0
 26 28  1  0  0  0  0
 26 29  1  0  0  0  0
 24 25  1  0  0  0  0
 24 26  1  0  0  0  0
M  END
$$$$
default_name
  -OEChem-01062215323D

 29 29  0     1  0  0  0  0  0999 V2000
   -3.6042   -3.5728    1.4576 H   0  0  0  0  0  0  0  0  0  0  0  0
   -3.5202   -2.6488    0.8866 C   0  0  0  0  0  0  0  0  0  0  0  0
   -4.2052   -1.9048    1.2896 H   0  0  0  0  0  0  0  0  0  0  0  0
   -3.7552   -2.8428   -0.1584 H   0  0  0  0  0  0  0  0  0  0  0  0
   -2.1052   -2.1358    0.9946 C   0  0  0  0  0  0  0  0  0  0  0  0
   -1.2852   -2.7288    1.6826 O   0  0  0  0  0  0  0  0  0  0  0  0
   -1.8202   -1.0288    0.3146 N   0  0  0  0  0  0  0  0  0  0  0  0
   -2.5542   -0.5788   -0.2104 H   0  0  0  0  0  0  0  0  0  0  0  0
   -0.5102   -0.3728    0.3086 C   0  0  1  0  0  0  0  0  0  0  0  0
   -0.0347   -0.5329    1.2773 H   0  0  0  0  0  0  0  0  0  0  0  0
    0.3745   -1.0216   -0.7719 C   0  0  0  0  0  0  0  0  0  0  0  0
   -0.1270   -0.9442   -1.7382 H   0  0  0  0  0  0  0  0  0  0  0  0
    1.3159   -0.4730   -0.8375 H   0  0  0  0  0  0  0  0  0  0  0  0
    0.6841   -2.4723   -0.5074 C   0  0  0  0  0  0  0  0  0  0  0  0
    1.5752   -2.9595    0.4246 N   0  0  0  0  0  0  0  0  0  0  0  0
    2.1946   -2.4089    1.0001 H   0  0  0  0  0  0  0  0  0  0  0  0
    1.4796   -4.2998    0.4299 C   0  0  0  0  0  0  0  0  0  0  0  0
    2.0607   -4.9663    1.0554 H   0  0  0  0  0  0  0  0  0  0  0  0
    0.5536   -4.7029   -0.4523 N   0  0  0  0  0  0  0  0  0  0  0  0
    0.0440   -3.5509   -1.0572 C   0  0  0  0  0  0  0  0  0  0  0  0
   -0.7419   -3.5137   -1.8005 H   0  0  0  0  0  0  0  0  0  0  0  0
   -0.6595    1.1442    0.1029 C   0  0  0  0  0  0  0  0  0  0  0  0
   -0.0290    1.9297    0.8102 O   0  0  0  0  0  0  0  0  0  0  0  0
   -1.5042    1.5562   -0.8507 N   0  0  0  0  0  0  0  0  0  0  0  0
   -2.0253    0.8515   -1.3515 H   0  0  0  0  0  0  0  0  0  0  0  0
   -1.7581    2.9564   -1.1794 C   0  0  0  0  0  0  0  0  0  0  0  0
   -0.8277    3.4378   -1.4891 H   0  0  0  0  0  0  0  0  0  0  0  0
   -2.4846    3.0254   -1.9896 H   0  0  0  0  0  0  0  0  0  0  0  0
   -2.1452    3.4788   -0.3032 H   0  0  0  0  0  0  0  0  0  0  0  0
  5  6  2  0  0  0  0
  5  7  1  0  0  0  0
  2  3  1  0  0  0  0
  2  4  1  0  0  0  0
  2  5  1  0  0  0  0
  1  2  1  0  0  0  0
 22 23  2  0  0  0  0
 22 24  1  0  0  0  0
 20 21  1  0  0  0  0
 19 20  1  0  0  0  0
 17 18  1  0  0  0  0
 17 19  2  0  0  0  0
 15 16  1  0  0  0  0
 15 17  1  0  0  0  0
 14 15  1  0  0  0  0
 14 20  2  0  0  0  0
 11 12  1  0  0  0  0
 11 13  1  0  0  0  0
 11 14  1  0  0  0  0
  9 10  1  0  0  0  0
  9 11  1  0  0  0  0
  9 22  1  0  0  0  0
  7  8  1  0  0  0  0
  7  9  1  0  0  0  0
 26 27  1  0  0  0  0
 26 28  1  0  0  0  0
 26 29  1  0  0  0  0
 24 25  1  0  0  0  0
 24 26  1  0  0  0  0
M  END
$$$$
default_name
  -OEChem-01062215323D

 29 29  0     1  0  0  0  0  0999 V2000
   -3.6042   -3.5728    1.4576 H   0  0  0  0  0  0  0  0  0  0  0  0
   -3.5202   -2.6488    0.8866 C   0  0  0  0  0  0  0  0  0  0  0  0
   -4.2052   -1.9048    1.2896 H   0  0  0  0  0  0  0  0  0  0  0  0
   -3.7552   -2.8428   -0.1584 H   0  0  0  0  0  0  0  0  0  0  0  0
   -2.1052   -2.1358    0.9946 C   0  0  0  0  0  0  0  0  0  0  0  0
   -1.2852   -2.7288    1.6826 O   0  0  0  0  0  0  0  0  0  0  0  0
   -1.8202   -1.0288    0.3146 N   0  0  0  0  0  0  0  0  0  0  0  0
   -2.5542   -0.5788   -0.2104 H   0  0  0  0  0  0  0  0  0  0  0  0
   -0.5102   -0.3728    0.3086 C   0  0  1  0  0  0  0  0  0  0  0  0
   -0.0347   -0.5329    1.2773 H   0  0  0  0  0  0  0  0  0  0  0  0
    0.3745   -1.0216   -0.7719 C   0  0  0  0  0  0  0  0  0  0  0  0
   -0.1270   -0.9442   -1.7382 H   0  0  0  0  0  0  0  0  0  0  0  0
    1.3159   -0.4730   -0.8375 H   0  0  0  0  0  0  0  0  0  0  0  0
    0.6841   -2.4723   -0.5074 C   0  0  0  0  0  0  0  0  0  0  0  0
    1.5752   -2.9595    0.4246 N   0  0  0  0  0  0  0  0  0  0  0  0
    2.1946   -2.4089    1.0001 H   0  0  0  0  0  0  0  0  0  0  0  0
    1.4796   -4.2998    0.4299 C   0  0  0  0  0  0  0  0  0  0  0  0
    2.0607   -4.9663    1.0554 H   0  0  0  0  0  0  0  0  0  0  0  0
    0.5536   -4.7029   -0.4523 N   0  0  0  0  0  0  0  0  0  0  0  0
    0.0440   -3.5509   -1.0572 C   0  0  0  0  0  0  0  0  0  0  0  0
   -0.7419   -3.5137   -1.8005 H   0  0  0  0  0  0  0  0  0  0  0  0
   -0.6595    1.1442    0.1029 C   0  0  0  0  0  0  0  0  0  0  0  0
    0.1552    1.9197    0.6026 O   0  0  0  0  0  0  0  0  0  0  0  0
   -1.7066    1.5681   -0.6157 N   0  0  0  0  0  0  0  0  0  0  0  0
   -2.3603    0.8736   -0.9461 H   0  0  0  0  0  0  0  0  0  0  0  0
   -1.9921    2.9699   -0.9102 C   0  0  0  0  0  0  0  0  0  0  0  0
   -1.1572    3.4092   -1.4608 H   0  0  0  0  0  0  0  0  0  0  0  0
   -2.8991    3.0497   -1.5102 H   0  0  0  0  0  0  0  0  0  0  0  0
   -2.1257    3.5246    0.0199 H   0  0  0  0  0  0  0  0  0  0  0  0
  5  6  2  0  0  0  0
  5  7  1  0  0  0  0
  2  3  1  0  0  0  0
  2  4  1  0  0  0  0
  2  5  1  0  0  0  0
  1  2  1  0  0  0  0
 22 23  2  0  0  0  0
 22 24  1  0  0  0  0
 20 21  1  0  0  0  0
 19 20  1  0  0  0  0
 17 18  1  0  0  0  0
 17 19  2  0  0  0  0
 15 16  1  0  0  0  0
 15 17  1  0  0  0  0
 14 15  1  0  0  0  0
 14 20  2  0  0  0  0
 11 12  1  0  0  0  0
 11 13  1  0  0  0  0
 11 14  1  0  0  0  0
  9 10  1  0  0  0  0
  9 11  1  0  0  0  0
  9 22  1  0  0  0  0
  7  8  1  0  0  0  0
  7  9  1  0  0  0  0
 26 27  1  0  0  0  0
 26 28  1  0  0  0  0
 26 29  1  0  0  0  0
 24 25  1  0  0  0  0
 24 26  1  0  0  0  0
M  END
$$$$
default_name
  -OEChem-01062215323D

 29 29  0     1  0  0  0  0  0999 V2000
   -3.6042   -3.5728    1.4576 H   0  0  0  0  0  0  0  0  0  0  0  0
   -3.5202   -2.6488    0.8866 C   0  0  0  0  0  0  0  0  0  0  0  0
   -4.2052   -1.9048    1.2896 H   0  0  0  0  0  0  0  0  0  0  0  0
   -3.7552   -2.8428   -0.1584 H   0  0  0  0  0  0  0  0  0  0  0  0
   -2.1052   -2.1358    0.9946 C   0  0  0  0  0  0  0  0  0  0  0  0
   -1.2852   -2.7288    1.6826 O   0  0  0  0  0  0  0  0  0  0  0  0
   -1.8202   -1.0288    0.3146 N   0  0  0  0  0  0  0  0  0  0  0  0
   -2.5542   -0.5788   -0.2104 H   0  0  0  0  0  0  0  0  0  0  0  0
   -0.5102   -0.3728    0.3086 C   0  0  1  0  0  0  0  0  0  0  0  0
   -0.0347   -0.5329    1.2773 H   0  0  0  0  0  0  0  0  0  0  0  0
    0.3745   -1.0216   -0.7719 C   0  0  0  0  0  0  0  0  0  0  0  0
   -0.1270   -0.9442   -1.7382 H   0  0  0  0  0  0  0  0  0  0  0  0
    1.3159   -0.4730   -0.8375 H   0  0  0  0  0  0  0  0  0  0  0  0
    0.6841   -2.4723   -0.5074 C   0  0  0  0  0  0  0  0  0  0  0  0
    1.5752   -2.9595    0.4246 N   0  0  0  0  0  0  0  0  0  0  0  0
    2.1946   -2.4089    1.0001 H   0  0  0  0  0  0  0  0  0  0  0  0
    1.4796   -4.2998    0.4299 C   0  0  0  0  0  0  0  0  0  0  0  0
    2.0607   -4.9663    1.0554 H   0  0  0  0  0  0  0  0  0  0  0  0
    0.5536   -4.7029   -0.4523 N   0  0  0  0  0  0  0  0  0  0  0  0
    0.0440   -3.5509   -1.0572 C   0  0  0  0  0  0  0  0  0  0  0  0
   -0.7419   -3.5137   -1.8005 H   0  0  0  0  0  0  0  0  0  0  0  0
   -0.6595    1.1442    0.1029 C   0  0  0  0  0  0  0  0  0  0  0  0
    0.2798    1.8984    0.3553 O   0  0  0  0  0  0  0  0  0  0  0  0
   -1.8417    1.5926   -0.3374 N   0  0  0  0  0  0  0  0  0  0  0  0
   -2.5796    0.9166   -0.4696 H   0  0  0  0  0  0  0  0  0  0  0  0
   -2.1489    2.9978   -0.5908 C   0  0  0  0  0  0  0  0  0  0  0  0
   -1.4693    3.3937   -1.3487 H   0  0  0  0  0  0  0  0  0  0  0  0
   -3.1762    3.0994   -0.9419 H   0  0  0  0  0  0  0  0  0  0  0  0
   -2.0228    3.5762    0.3258 H   0  0  0  0  0  0  0  0  0  0  0  0
  5  6  2  0  0  0  0
  5  7  1  0  0  0  0
  2  3  1  0  0  0  0
  2  4  1  0  0  0  0
  2  5  1  0  0  0  0
  1  2  1  0  0  0  0
 22 23  2  0  0  0  0
 22 24  1  0  0  0  0
 20 21  1  0  0  0  0
 19 20  1  0  0  0  0
 17 18  1  0  0  0  0
 17 19  2  0  0  0  0
 15 16  1  0  0  0  0
 15 17  1  0  0  0  0
 14 15  1  0  0  0  0
 14 20  2  0  0  0  0
 11 12  1  0  0  0  0
 11 13  1  0  0  0  0
 11 14  1  0  0  0  0
  9 10  1  0  0  0  0
  9 11  1  0  0  0  0
  9 22  1  0  0  0  0
  7  8  1  0  0  0  0
  7  9  1  0  0  0  0
 26 27  1  0  0  0  0
 26 28  1  0  0  0  0
 26 29  1  0  0  0  0
 24 25  1  0  0  0  0
 24 26  1  0  0  0  0
M  END
$$$$
default_name
  -OEChem-01062215323D

 29 29  0     1  0  0  0  0  0999 V2000
   -3.6042   -3.5728    1.4576 H   0  0  0  0  0  0  0  0  0  0  0  0
   -3.5202   -2.6488    0.8866 C   0  0  0  0  0  0  0  0  0  0  0  0
   -4.2052   -1.9048    1.2896 H   0  0  0  0  0  0  0  0  0  0  0  0
   -3.7552   -2.8428   -0.1584 H   0  0  0  0  0  0  0  0  0  0  0  0
   -2.1052   -2.1358    0.9946 C   0  0  0  0  0  0  0  0  0  0  0  0
   -1.2852   -2.7288    1.6826 O   0  0  0  0  0  0  0  0  0  0  0  0
   -1.8202   -1.0288    0.3146 N   0  0  0  0  0  0  0  0  0  0  0  0
   -2.5542   -0.5788   -0.2104 H   0  0  0  0  0  0  0  0  0  0  0  0
   -0.5102   -0.3728    0.3086 C   0  0  1  0  0  0  0  0  0  0  0  0
   -0.0347   -0.5329    1.2773 H   0  0  0  0  0  0  0  0  0  0  0  0
    0.3745   -1.0216   -0.7719 C   0  0  0  0  0  0  0  0  0  0  0  0
   -0.1270   -0.9442   -1.7382 H   0  0  0  0  0  0  0  0  0  0  0  0
    1.3159   -0.4730   -0.8375 H   0  0  0  0  0  0  0  0  0  0  0  0
    0.6841   -2.4723   -0.5074 C   0  0  0  0  0  0  0  0  0  0  0  0
    1.5752   -2.9595    0.4246 N   0  0  0  0  0  0  0  0  0  0  0  0
    2.1946   -2.4089    1.0001 H   0  0  0  0  0  0  0  0  0  0  0  0
    1.4796   -4.2998    0.4299 C   0  0  0  0  0  0  0  0  0  0  0  0
    2.0607   -4.9663    1.0554 H   0  0  0  0  0  0  0  0  0  0  0  0
    0.5536   -4.7029   -0.4523 N   0  0  0  0  0  0  0  0  0  0  0  0
    0.0440   -3.5509   -1.0572 C   0  0  0  0  0  0  0  0  0  0  0  0
   -0.7419   -3.5137   -1.8005 H   0  0  0  0  0  0  0  0  0  0  0  0
   -0.6595    1.1442    0.1029 C   0  0  0  0  0  0  0  0  0  0  0  0
    0.3363    1.8673    0.0852 O   0  0  0  0  0  0  0  0  0  0  0  0
   -1.9003    1.6279   -0.0347 N   0  0  0  0  0  0  0  0  0  0  0  0
   -2.6683    0.9777    0.0456 H   0  0  0  0  0  0  0  0  0  0  0  0
   -2.2179    3.0381   -0.2429 C   0  0  0  0  0  0  0  0  0  0  0  0
   -1.7426    3.3923   -1.1604 H   0  0  0  0  0  0  0  0  0  0  0  0
   -3.2971    3.1714   -0.3235 H   0  0  0  0  0  0  0  0  0  0  0  0
   -1.8435    3.6301    0.5937 H   0  0  0  0  0  0  0  0  0  0  0  0
  5  6  2  0  0  0  0
  5  7  1  0  0  0  0
  2  3  1  0  0  0  0
  2  4  1  0  0  0  0
  2  5  1  0  0  0  0
  1  2  1  0  0  0  0
 22 23  2  0  0  0  0
 22 24  1  0  0  0  0
 20 21  1  0  0  0  0
 19 20  1  0  0  0  0
 17 18  1  0  0  0  0
 17 19  2  0  0  0  0
 15 16  1  0  0  0  0
 15 17  1  0  0  0  0
 14 15  1  0  0  0  0
 14 20  2  0  0  0  0
 11 12  1  0  0  0  0
 11 13  1  0  0  0  0
 11 14  1  0  0  0  0
  9 10  1  0  0  0  0
  9 11  1  0  0  0  0
  9 22  1  0  0  0  0
  7  8  1  0  0  0  0
  7  9  1  0  0  0  0
 26 27  1  0  0  0  0
 26 28  1  0  0  0  0
 26 29  1  0  0  0  0
 24 25  1  0  0  0  0
 24 26  1  0  0  0  0
M  END
$$$$
default_name
  -OEChem-01062215323D

 29 29  0     1  0  0  0  0  0999 V2000
   -3.6042   -3.5728    1.4576 H   0  0  0  0  0  0  0  0  0  0  0  0
   -3.5202   -2.6488    0.8866 C   0  0  0  0  0  0  0  0  0  0  0  0
   -4.2052   -1.9048    1.2896 H   0  0  0  0  0  0  0  0  0  0  0  0
   -3.7552   -2.8428   -0.1584 H   0  0  0  0  0  0  0  0  0  0  0  0
   -2.1052   -2.1358    0.9946 C   0  0  0  0  0  0  0  0  0  0  0  0
   -1.2852   -2.7288    1.6826 O   0  0  0  0  0  0  0  0  0  0  0  0
   -1.8202   -1.0288    0.3146 N   0  0  0  0  0  0  0  0  0  0  0  0
   -2.5542   -0.5788   -0.2104 H   0  0  0  0  0  0  0  0  0  0  0  0
   -0.5102   -0.3728    0.3086 C   0  0  1  0  0  0  0  0  0  0  0  0
   -0.0347   -0.5329    1.2773 H   0  0  0  0  0  0  0  0  0  0  0  0
    0.3745   -1.0216   -0.7719 C   0  0  0  0  0  0  0  0  0  0  0  0
   -0.1270   -0.9442   -1.7382 H   0  0  0  0  0  0  0  0  0  0  0  0
    1.3159   -0.4730   -0.8375 H   0  0  0  0  0  0  0  0  0  0  0  0
    0.6841   -2.4723   -0.5074 C   0  0  0  0  0  0  0  0  0  0  0  0
    1.5752   -2.9595    0.4246 N   0  0  0  0  0  0  0  0  0  0  0  0
    2.1946   -2.4089    1.0001 H   0  0  0  0  0  0  0  0  0  0  0  0
    1.4796   -4.2998    0.4299 C   0  0  0  0  0  0  0  0  0  0  0  0
    2.0607   -4.9663    1.0554 H   0  0  0  0  0  0  0  0  0  0  0  0
    0.5536   -4.7029   -0.4523 N   0  0  0  0  0  0  0  0  0  0  0  0
    0.0440   -3.5509   -1.0572 C   0  0  0  0  0  0  0  0  0  0  0  0
   -0.7419   -3.5137   -1.8005 H   0  0  0  0  0  0  0  0  0  0  0  0
   -0.6595    1.1442    0.1029 C   0  0  0  0  0  0  0  0  0  0  0  0
    0.3208    1.8286   -0.1893 O   0  0  0  0  0  0  0  0  0  0  0  0
   -1.8784    1.6716    0.2718 N   0  0  0  0  0  0  0  0  0  0  0  0
   -2.6204    1.0528    0.5643 H   0  0  0  0  0  0  0  0  0  0  0  0
   -2.1944    3.0883    0.1098 C   0  0  0  0  0  0  0  0  0  0  0  0
   -1.9586    3.4052   -0.9086 H   0  0  0  0  0  0  0  0  0  0  0  0
   -3.2536    3.2606    0.3029 H   0  0  0  0  0  0  0  0  0  0  0  0
   -1.6001    3.6828    0.8054 H   0  0  0  0  0  0  0  0  0  0  0  0
  5  6  2  0  0  0  0
  5  7  1  0  0  0  0
  2  3  1  0  0  0  0
  2  4  1  0  0  0  0
  2  5  1  0  0  0  0
  1  2  1  0  0  0  0
 22 23  2  0  0  0  0
 22 24  1  0  0  0  0
 20 21  1  0  0  0  0
 19 20  1  0  0  0  0
 17 18  1  0  0  0  0
 17 19  2  0  0  0  0
 15 16  1  0  0  0  0
 15 17  1  0  0  0  0
 14 15  1  0  0  0  0
 14 20  2  0  0  0  0
 11 12  1  0  0  0  0
 11 13  1  0  0  0  0
 11 14  1  0  0  0  0
  9 10  1  0  0  0  0
  9 11  1  0  0  0  0
  9 22  1  0  0  0  0
  7  8  1  0  0  0  0
  7  9  1  0  0  0  0
 26 27  1  0  0  0  0
 26 28  1  0  0  0  0
 26 29  1  0  0  0  0
 24 25  1  0  0  0  0
 24 26  1  0  0  0  0
M  END
$$$$
default_name
  -OEChem-01062215323D

 29 29  0     1  0  0  0  0  0999 V2000
   -3.6042   -3.5728    1.4576 H   0  0  0  0  0  0  0  0  0  0  0  0
   -3.5202   -2.6488    0.8866 C   0  0  0  0  0  0  0  0  0  0  0  0
   -4.2052   -1.9048    1.2896 H   0  0  0  0  0  0  0  0  0  0  0  0
   -3.7552   -2.8428   -0.1584 H   0  0  0  0  0  0  0  0  0  0  0  0
   -2.1052   -2.1358    0.9946 C   0  0  0  0  0  0  0  0  0  0  0  0
   -1.2852   -2.7288    1.6826 O   0  0  0  0  0  0  0  0  0  0  0  0
   -1.8202   -1.0288    0.3146 N   0  0  0  0  0  0  0  0  0  0  0  0
   -2.5542   -0.5788   -0.2104 H   0  0  0  0  0  0  0  0  0  0  0  0
   -0.5102   -0.3728    0.3086 C   0  0  1  0  0  0  0  0  0  0  0  0
   -0.0347   -0.5329    1.2773 H   0  0  0  0  0  0  0  0  0  0  0  0
    0.3745   -1.0216   -0.7719 C   0  0  0  0  0  0  0  0  0  0  0  0
   -0.1270   -0.9442   -1.7382 H   0  0  0  0  0  0  0  0  0  0  0  0
    1.3159   -0.4730   -0.8375 H   0  0  0  0  0  0  0  0  0  0  0  0
    0.6841   -2.4723   -0.5074 C   0  0  0  0  0  0  0  0  0  0  0  0
    1.5752   -2.9595    0.4246 N   0  0  0  0  0  0  0  0  0  0  0  0
    2.1946   -2.4089    1.0001 H   0  0  0  0  0  0  0  0  0  0  0  0
    1.4796   -4.2998    0.4299 C   0  0  0  0  0  0  0  0  0  0  0  0
    2.0607   -4.9663    1.0554 H   0  0  0  0  0  0  0  0  0  0  0  0
    0.5536   -4.7029   -0.4523 N   0  0  0  0  0  0  0  0  0  0  0  0
    0.0440   -3.5509   -1.0572 C   0  0  0  0  0  0  0  0  0  0  0  0
   -0.7419   -3.5137   -1.8005 H   0  0  0  0  0  0  0  0  0  0  0  0
   -0.6595    1.1442    0.1029 C   0  0  0  0  0  0  0  0  0  0  0  0
    0.2345    1.7848   -0.4496 O   0  0  0  0  0  0  0  0  0  0  0  0
   -1.7776    1.7207    0.5612 N   0  0  0  0  0  0  0  0  0  0  0  0
   -2.4391    1.1366    1.0513 H   0  0  0  0  0  0  0  0  0  0  0  0
   -2.0799    3.1447    0.4431 C   0  0  0  0  0  0  0  0  0  0  0  0
   -2.1025    3.4315   -0.6107 H   0  0  0  0  0  0  0  0  0  0  0  0
   -3.0486    3.3610    0.8946 H   0  0  0  0  0  0  0  0  0  0  0  0
   -1.3091    3.7305    0.9465 H   0  0  0  0  0  0  0  0  0  0  0  0
  5  6  2  0  0  0  0
  5  7  1  0  0  0  0
  2  3  1  0  0  0  0
  2  4  1  0  0  0  0
  2  5  1  0  0  0  0
  1  2  1  0  0  0  0
 22 23  2  0  0  0  0
 22 24  1  0  0  0  0
 20 21  1  0  0  0  0
 19 20  1  0  0  0  0
 17 18  1  0  0  0  0
 17 19  2  0  0  0  0
 15 16  1  0  0  0  0
 15 17  1  0  0  0  0
 14 15  1  0  0  0  0
 14 20  2  0  0  0  0
 11 12  1  0  0  0  0
 11 13  1  0  0  0  0
 11 14  1  0  0  0  0
  9 10  1  0  0  0  0
  9 11  1  0  0  0  0
  9 22  1  0  0  0  0
  7  8  1  0  0  0  0
  7  9  1  0  0  0  0
 26 27  1  0  0  0  0
 26 28  1  0  0  0  0
 26 29  1  0  0  0  0
 24 25  1  0  0  0  0
 24 26  1  0  0  0  0
M  END
$$$$
default_name
  -OEChem-01062215323D

 29 29  0     1  0  0  0  0  0999 V2000
   -3.6042   -3.5728    1.4576 H   0  0  0  0  0  0  0  0  0  0  0  0
   -3.5202   -2.6488    0.8866 C   0  0  0  0  0  0  0  0  0  0  0  0
   -4.2052   -1.9048    1.2896 H   0  0  0  0  0  0  0  0  0  0  0  0
   -3.7552   -2.8428   -0.1584 H   0  0  0  0  0  0  0  0  0  0  0  0
   -2.1052   -2.1358    0.9946 C   0  0  0  0  0  0  0  0  0  0  0  0
   -1.2852   -2.7288    1.6826 O   0  0  0  0  0  0  0  0  0  0  0  0
   -1.8202   -1.0288    0.3146 N   0  0  0  0  0  0  0  0  0  0  0  0
   -2.5542   -0.5788   -0.2104 H   0  0  0  0  0  0  0  0  0  0  0  0
   -0.5102   -0.3728    0.3086 C   0  0  1  0  0  0  0  0  0  0  0  0
   -0.0347   -0.5329    1.2773 H   0  0  0  0  0  0  0  0  0  0  0  0
    0.3745   -1.0216   -0.7719 C   0  0  0  0  0  0  0  0  0  0  0  0
   -0.1270   -0.9442   -1.7382 H   0  0  0  0  0  0  0  0  0  0  0  0
    1.3159   -0.4730   -0.8375 H   0  0  0  0  0  0  0  0  0  0  0  0
    0.6841   -2.4723   -0.5074 C   0  0  0  0  0  0  0  0  0  0  0  0
    1.5752   -2.9595    0.4246 N   0  0  0  0  0  0  0  0  0  0  0  0
    2.1946   -2.4089    1.0001 H   0  0  0  0  0  0  0  0  0  0  0  0
    1.4796   -4.2998    0.4299 C   0  0  0  0  0  0  0  0  0  0  0  0
    2.0607   -4.9663    1.0554 H   0  0  0  0  0  0  0  0  0  0  0  0
    0.5536   -4.7029   -0.4523 N   0  0  0  0  0  0  0  0  0  0  0  0
    0.0440   -3.5509   -1.0572 C   0  0  0  0  0  0  0  0  0  0  0  0
   -0.7419   -3.5137   -1.8005 H   0  0  0  0  0  0  0  0  0  0  0  0
   -0.6595    1.1442    0.1029 C   0  0  0  0  0  0  0  0  0  0  0  0
    0.0831    1.7390   -0.6779 O   0  0  0  0  0  0  0  0  0  0  0  0
   -1.6046    1.7720    0.8137 N   0  0  0  0  0  0  0  0  0  0  0  0
   -2.1367    1.2236    1.4733 H   0  0  0  0  0  0  0  0  0  0  0  0
   -1.8822    3.2037    0.7344 C   0  0  0  0  0  0  0  0  0  0  0  0
   -2.1646    3.4693   -0.2868 H   0  0  0  0  0  0  0  0  0  0  0  0
   -2.6960    3.4657    1.4112 H   0  0  0  0  0  0  0  0  0  0  0  0
   -0.9904    3.7701    1.0072 H   0  0  0  0  0  0  0  0  0  0  0  0
  5  6  2  0  0  0  0
  5  7  1  0  0  0  0
  2  3  1  0  0  0  0
  2  4  1  0  0  0  0
  2  5  1  0  0  0  0
  1  2  1  0  0  0  0
 22 23  2  0  0  0  0
 22 24  1  0  0  0  0
 20 21  1  0  0  0  0
 19 20  1  0  0  0  0
 17 18  1  0  0  0  0
 17 19  2  0  0  0  0
 15 16  1  0  0  0  0
 15 17  1  0  0  0  0
 14 15  1  0  0  0  0
 14 20  2  0  0  0  0
 11 12  1  0  0  0  0
 11 13  1  0  0  0  0
 11 14  1  0  0  0  0
  9 10  1  0  0  0  0
  9 11  1  0  0  0  0
  9 22  1  0  0  0  0
  7  8  1  0  0  0  0
  7  9  1  0  0  0  0
 26 27  1  0  0  0  0
 26 28  1  0  0  0  0
 26 29  1  0  0  0  0
 24 25  1  0  0  0  0
 24 26  1  0  0  0  0
M  END
$$$$
default_name
  -OEChem-01062215323D

 29 29  0     1  0  0  0  0  0999 V2000
   -3.6042   -3.5728    1.4576 H   0  0  0  0  0  0  0  0  0  0  0  0
   -3.5202   -2.6488    0.8866 C   0  0  0  0  0  0  0  0  0  0  0  0
   -4.2052   -1.9048    1.2896 H   0  0  0  0  0  0  0  0  0  0  0  0
   -3.7552   -2.8428   -0.1584 H   0  0  0  0  0  0  0  0  0  0  0  0
   -2.1052   -2.1358    0.9946 C   0  0  0  0  0  0  0  0  0  0  0  0
   -1.2852   -2.7288    1.6826 O   0  0  0  0  0  0  0  0  0  0  0  0
   -1.8202   -1.0288    0.3146 N   0  0  0  0  0  0  0  0  0  0  0  0
   -2.5542   -0.5788   -0.2104 H   0  0  0  0  0  0  0  0  0  0  0  0
   -0.5102   -0.3728    0.3086 C   0  0  1  0  0  0  0  0  0  0  0  0
   -0.0347   -0.5329    1.2773 H   0  0  0  0  0  0  0  0  0  0  0  0
    0.3745   -1.0216   -0.7719 C   0  0  0  0  0  0  0  0  0  0  0  0
   -0.1270   -0.9442   -1.7382 H   0  0  0  0  0  0  0  0  0  0  0  0
    1.3159   -0.4730   -0.8375 H   0  0  0  0  0  0  0  0  0  0  0  0
    0.6841   -2.4723   -0.5074 C   0  0  0  0  0  0  0  0  0  0  0  0
    1.5752   -2.9595    0.4246 N   0  0  0  0  0  0  0  0  0  0  0  0
    2.1946   -2.4089    1.0001 H   0  0  0  0  0  0  0  0  0  0  0  0
    1.4796   -4.2998    0.4299 C   0  0  0  0  0  0  0  0  0  0  0  0
    2.0607   -4.9663    1.0554 H   0  0  0  0  0  0  0  0  0  0  0  0
    0.5536   -4.7029   -0.4523 N   0  0  0  0  0  0  0  0  0  0  0  0
    0.0440   -3.5509   -1.0572 C   0  0  0  0  0  0  0  0  0  0  0  0
   -0.7419   -3.5137   -1.8005 H   0  0  0  0  0  0  0  0  0  0  0  0
   -0.6595    1.1442    0.1029 C   0  0  0  0  0  0  0  0  0  0  0  0
   -0.1230    1.6942   -0.8586 O   0  0  0  0  0  0  0  0  0  0  0  0
   -1.3713    1.8218    1.0121 N   0  0  0  0  0  0  0  0  0  0  0  0
   -1.7340    1.3077    1.8015 H   0  0  0  0  0  0  0  0  0  0  0  0
   -1.6149    3.2611    0.9639 C   0  0  0  0  0  0  0  0  0  0  0  0
   -2.1405    3.5161    0.0410 H   0  0  0  0  0  0  0  0  0  0  0  0
   -2.2199    3.5677    1.8177 H   0  0  0  0  0  0  0  0  0  0  0  0
   -0.6657    3.7988    0.9836 H   0  0  0  0  0  0  0  0  0  0  0  0
  5  6  2  0  0  0  0
  5  7  1  0  0  0  0
  2  3  1  0  0  0  0
  2  4  1  0  0  0  0
  2  5  1  0  0  0  0
  1  2  1  0  0  0  0
 22 23  2  0  0  0  0
 22 24  1  0  0  0  0
 20 21  1  0  0  0  0
 19 20  1  0  0  0  0
 17 18  1  0  0  0  0
 17 19  2  0  0  0  0
 15 16  1  0  0  0  0
 15 17  1  0  0  0  0
 14 15  1  0  0  0  0
 14 20  2  0  0  0  0
 11 12  1  0  0  0  0
 11 13  1  0  0  0  0
 11 14  1  0  0  0  0
  9 10  1  0  0  0  0
  9 11  1  0  0  0  0
  9 22  1  0  0  0  0
  7  8  1  0  0  0  0
  7  9  1  0  0  0  0
 26 27  1  0  0  0  0
 26 28  1  0  0  0  0
 26 29  1  0  0  0  0
 24 25  1  0  0  0  0
 24 26  1  0  0  0  0
M  END
$$$$
default_name
  -OEChem-01062215323D

 29 29  0     1  0  0  0  0  0999 V2000
   -3.6042   -3.5728    1.4576 H   0  0  0  0  0  0  0  0  0  0  0  0
   -3.5202   -2.6488    0.8866 C   0  0  0  0  0  0  0  0  0  0  0  0
   -4.2052   -1.9048    1.2896 H   0  0  0  0  0  0  0  0  0  0  0  0
   -3.7552   -2.8428   -0.1584 H   0  0  0  0  0  0  0  0  0  0  0  0
   -2.1052   -2.1358    0.9946 C   0  0  0  0  0  0  0  0  0  0  0  0
   -1.2852   -2.7288    1.6826 O   0  0  0  0  0  0  0  0  0  0  0  0
   -1.8202   -1.0288    0.3146 N   0  0  0  0  0  0  0  0  0  0  0  0
   -2.5542   -0.5788   -0.2104 H   0  0  0  0  0  0  0  0  0  0  0  0
   -0.5102   -0.3728    0.3086 C   0  0  1  0  0  0  0  0  0  0  0  0
   -0.0347   -0.5329    1.2773 H   0  0  0  0  0  0  0  0  0  0  0  0
    0.3745   -1.0216   -0.7719 C   0  0  0  0  0  0  0  0  0  0  0  0
   -0.1270   -0.9442   -1.7382 H   0  0  0  0  0  0  0  0  0  0  0  0
    1.3159   -0.4730   -0.8375 H   0  0  0  0  0  0  0  0  0  0  0  0
    0.6841   -2.4723   -0.5074 C   0  0  0  0  0  0  0  0  0  0  0  0
    1.5752   -2.9595    0.4246 N   0  0  0  0  0  0  0  0  0  0  0  0
    2.1946   -2.4089    1.0001 H   0  0  0  0  0  0  0  0  0  0  0  0
    1.4796   -4.2998    0.4299 C   0  0  0  0  0  0  0  0  0  0  0  0
    2.0607   -4.9663    1.0554 H   0  0  0  0  0  0  0  0  0  0  0  0
    0.5536   -4.7029   -0.4523 N   0  0  0  0  0  0  0  0  0  0  0  0
    0.0440   -3.5509   -1.0572 C   0  0  0  0  0  0  0  0  0  0  0  0
   -0.7419   -3.5137   -1.8005 H   0  0  0  0  0  0  0  0  0  0  0  0
   -0.6595    1.1442    0.1029 C   0  0  0  0  0  0  0  0  0  0  0  0
   -0.3697    1.6535   -0.9794 O   0  0  0  0  0  0  0  0  0  0  0  0
   -1.0935    1.8669    1.1430 N   0  0  0  0  0  0  0  0  0  0  0  0
   -1.2583    1.3833    2.0136 H   0  0  0  0  0  0  0  0  0  0  0  0
   -1.2961    3.3131    1.1159 C   0  0  0  0  0  0  0  0  0  0  0  0
   -2.0320    3.5687    0.3502 H   0  0  0  0  0  0  0  0  0  0  0  0
   -1.6528    3.6599    2.0862 H   0  0  0  0  0  0  0  0  0  0  0  0
   -0.3571    3.8148    0.8771 H   0  0  0  0  0  0  0  0  0  0  0  0
  5  6  2  0  0  0  0
  5  7  1  0  0  0  0
  2  3  1  0  0  0  0
  2  4  1  0  0  0  0
  2  5  1  0  0  0  0
  1  2  1  0  0  0  0
 22 23  2  0  0  0  0
 22 24  1  0  0  0  0
 20 21  1  0  0  0  0
 19 20  1  0  0  0  0
 17 18  1  0  0  0  0
 17 19  2  0  0  0  0
 15 16  1  0  0  0  0
 15 17  1  0  0  0  0
 14 15  1  0  0  0  0
 14 20  2  0  0  0  0
 11 12  1  0  0  0  0
 11 13  1  0  0  0  0
 11 14  1  0  0  0  0
  9 10  1  0  0  0  0
  9 11  1  0  0  0  0
  9 22  1  0  0  0  0
  7  8  1  0  0  0  0
  7  9  1  0  0  0  0
 26 27  1  0  0  0  0
 26 28  1  0  0  0  0
 26 29  1  0  0  0  0
 24 25  1  0  0  0  0
 24 26  1  0  0  0  0
M  END
$$$$
default_name
  -OEChem-01062215323D

 29 29  0     1  0  0  0  0  0999 V2000
   -3.6042   -3.5728    1.4576 H   0  0  0  0  0  0  0  0  0  0  0  0
   -3.5202   -2.6488    0.8866 C   0  0  0  0  0  0  0  0  0  0  0  0
   -4.2052   -1.9048    1.2896 H   0  0  0  0  0  0  0  0  0  0  0  0
   -3.7552   -2.8428   -0.1584 H   0  0  0  0  0  0  0  0  0  0  0  0
   -2.1052   -2.1358    0.9946 C   0  0  0  0  0  0  0  0  0  0  0  0
   -1.2852   -2.7288    1.6826 O   0  0  0  0  0  0  0  0  0  0  0  0
   -1.8202   -1.0288    0.3146 N   0  0  0  0  0  0  0  0  0  0  0  0
   -2.5542   -0.5788   -0.2104 H   0  0  0  0  0  0  0  0  0  0  0  0
   -0.5102   -0.3728    0.3086 C   0  0  1  0  0  0  0  0  0  0  0  0
   -0.0347   -0.5329    1.2773 H   0  0  0  0  0  0  0  0  0  0  0  0
    0.3745   -1.0216   -0.7719 C   0  0  0  0  0  0  0  0  0  0  0  0
   -0.1270   -0.9442   -1.7382 H   0  0  0  0  0  0  0  0  0  0  0  0
    1.3159   -0.4730   -0.8375 H   0  0  0  0  0  0  0  0  0  0  0  0
    0.6841   -2.4723   -0.5074 C   0  0  0  0  0  0  0  0  0  0  0  0
    1.5752   -2.9595    0.4246 N   0  0  0  0  0  0  0  0  0  0  0  0
    2.1946   -2.4089    1.0001 H   0  0  0  0  0  0  0  0  0  0  0  0
    1.4796   -4.2998    0.4299 C   0  0  0  0  0  0  0  0  0  0  0  0
    2.0607   -4.9663    1.0554 H   0  0  0  0  0  0  0  0  0  0  0  0
    0.5536   -4.7029   -0.4523 N   0  0  0  0  0  0  0  0  0  0  0  0
    0.0440   -3.5509   -1.0572 C   0  0  0  0  0  0  0  0  0  0  0  0
   -0.7419   -3.5137   -1.8005 H   0  0  0  0  0  0  0  0  0  0  0  0
   -0.6595    1.1442    0.1029 C   0  0  0  0  0  0  0  0  0  0  0  0
   -0.6403    1.6198   -1.0321 O   0  0  0  0  0  0  0  0  0  0  0  0
   -0.7902    1.9041    1.1974 N   0  0  0  0  0  0  0  0  0  0  0  0
   -0.7420    1.4451    2.0952 H   0  0  0  0  0  0  0  0  0  0  0  0
   -0.9476    3.3560    1.1800 C   0  0  0  0  0  0  0  0  0  0  0  0
   -1.8465    3.6235    0.6199 H   0  0  0  0  0  0  0  0  0  0  0  0
   -1.0333    3.7360    2.1985 H   0  0  0  0  0  0  0  0  0  0  0  0
   -0.0856    3.8168    0.6951 H   0  0  0  0  0  0  0  0  0  0  0  0
  5  6  2  0  0  0  0
  5  7  1  0  0  0  0
  2  3  1  0  0  0  0
  2  4  1  0  0  0  0
  2  5  1  0  0  0  0
  1  2  1  0  0  0  0
 22 23  2  0  0  0  0
 22 24  1  0  0  0  0
 20 21  1  0  0  0  0
 19 20  1  0  0  0  0
 17 18  1  0  0  0  0
 17 19  2  0  0  0  0
 15 16  1  0  0  0  0
 15 17  1  0  0  0  0
 14 15  1  0  0  0  0
 14 20  2  0  0  0  0
 11 12  1  0  0  0  0
 11 13  1  0  0  0  0
 11 14  1  0  0  0  0
  9 10  1  0  0  0  0
  9 11  1  0  0  0  0
  9 22  1  0  0  0  0
  7  8  1  0  0  0  0
  7  9  1  0  0  0  0
 26 27  1  0  0  0  0
 26 28  1  0  0  0  0
 26 29  1  0  0  0  0
 24 25  1  0  0  0  0
 24 26  1  0  0  0  0
M  END
$$$$
default_name
  -OEChem-01062215323D

 29 29  0     1  0  0  0  0  0999 V2000
   -3.6042   -3.5728    1.4576 H   0  0  0  0  0  0  0  0  0  0  0  0
   -3.5202   -2.6488    0.8866 C   0  0  0  0  0  0  0  0  0  0  0  0
   -4.2052   -1.9048    1.2896 H   0  0  0  0  0  0  0  0  0  0  0  0
   -3.7552   -2.8428   -0.1584 H   0  0  0  0  0  0  0  0  0  0  0  0
   -2.1052   -2.1358    0.9946 C   0  0  0  0  0  0  0  0  0  0  0  0
   -1.2852   -2.7288    1.6826 O   0  0  0  0  0  0  0  0  0  0  0  0
   -1.8202   -1.0288    0.3146 N   0  0  0  0  0  0  0  0  0  0  0  0
   -2.5542   -0.5788   -0.2104 H   0  0  0  0  0  0  0  0  0  0  0  0
   -0.5102   -0.3728    0.3086 C   0  0  1  0  0  0  0  0  0  0  0  0
   -0.0347   -0.5329    1.2773 H   0  0  0  0  0  0  0  0  0  0  0  0
    0.3745   -1.0216   -0.7719 C   0  0  0  0  0  0  0  0  0  0  0  0
   -0.1270   -0.9442   -1.7382 H   0  0  0  0  0  0  0  0  0  0  0  0
    1.3159   -0.4730   -0.8375 H   0  0  0  0  0  0  0  0  0  0  0  0
    0.6841   -2.4723   -0.5074 C   0  0  0  0  0  0  0  0  0  0  0  0
    1.5752   -2.9595    0.4246 N   0  0  0  0  0  0  0  0  0  0  0  0
    2.1946   -2.4089    1.0001 H   0  0  0  0  0  0  0  0  0  0  0  0
    1.4796   -4.2998    0.4299 C   0  0  0  0  0  0  0  0  0  0  0  0
    2.0607   -4.9663    1.0554 H   0  0  0  0  0  0  0  0  0  0  0  0
    0.5536   -4.7029   -0.4523 N   0  0  0  0  0  0  0  0  0  0  0  0
    0.0440   -3.5509   -1.0572 C   0  0  0  0  0  0  0  0  0  0  0  0
   -0.7419   -3.5137   -1.8005 H   0  0  0  0  0  0  0  0  0  0  0  0
   -0.6595    1.1442    0.1029 C   0  0  0  0  0  0  0  0  0  0  0  0
   -0.9162    1.5952   -1.0131 O   0  0  0  0  0  0  0  0  0  0  0  0
   -0.4821    1.9309    1.1716 N   0  0  0  0  0  0  0  0  0  0  0  0
   -0.2203    1.4890    2.0406 H   0  0  0  0  0  0  0  0  0  0  0  0
   -0.5931    3.3871    1.1519 C   0  0  0  0  0  0  0  0  0  0  0  0
   -1.5965    3.6768    0.8317 H   0  0  0  0  0  0  0  0  0  0  0  0
   -0.4036    3.7910    2.1469 H   0  0  0  0  0  0  0  0  0  0  0  0
    0.1302    3.8048    0.4499 H   0  0  0  0  0  0  0  0  0  0  0  0
  5  6  2  0  0  0  0
  5  7  1  0  0  0  0
  2  3  1  0  0  0  0
  2  4  1  0  0  0  0
  2  5  1  0  0  0  0
  1  2  1  0  0  0  0
 22 23  2  0  0  0  0
 22 24  1  0  0  0  0
 20 21  1  0  0  0  0
 19 20  1  0  0  0  0
 17 18  1  0  0  0  0
 17 19  2  0  0  0  0
 15 16  1  0  0  0  0
 15 17  1  0  0  0  0
 14 15  1  0  0  0  0
 14 20  2  0  0  0  0
 11 12  1  0  0  0  0
 11 13  1  0  0  0  0
 11 14  1  0  0  0  0
  9 10  1  0  0  0  0
  9 11  1  0  0  0  0
  9 22  1  0  0  0  0
  7  8  1  0  0  0  0
  7  9  1  0  0  0  0
 26 27  1  0  0  0  0
 26 28  1  0  0  0  0
 26 29  1  0  0  0  0
 24 25  1  0  0  0  0
 24 26  1  0  0  0  0
M  END
$$$$
default_name
  -OEChem-01062215323D

 29 29  0     1  0  0  0  0  0999 V2000
   -3.6042   -3.5728    1.4576 H   0  0  0  0  0  0  0  0  0  0  0  0
   -3.5202   -2.6488    0.8866 C   0  0  0  0  0  0  0  0  0  0  0  0
   -4.2052   -1.9048    1.2896 H   0  0  0  0  0  0  0  0  0  0  0  0
   -3.7552   -2.8428   -0.1584 H   0  0  0  0  0  0  0  0  0  0  0  0
   -2.1052   -2.1358    0.9946 C   0  0  0  0  0  0  0  0  0  0  0  0
   -1.2852   -2.7288    1.6826 O   0  0  0  0  0  0  0  0  0  0  0  0
   -1.8202   -1.0288    0.3146 N   0  0  0  0  0  0  0  0  0  0  0  0
   -2.5542   -0.5788   -0.2104 H   0  0  0  0  0  0  0  0  0  0  0  0
   -0.5102   -0.3728    0.3086 C   0  0  1  0  0  0  0  0  0  0  0  0
   -0.0347   -0.5329    1.2773 H   0  0  0  0  0  0  0  0  0  0  0  0
    0.3745   -1.0216   -0.7719 C   0  0  0  0  0  0  0  0  0  0  0  0
   -0.1270   -0.9442   -1.7382 H   0  0  0  0  0  0  0  0  0  0  0  0
    1.3159   -0.4730   -0.8375 H   0  0  0  0  0  0  0  0  0  0  0  0
    0.6841   -2.4723   -0.5074 C   0  0  0  0  0  0  0  0  0  0  0  0
    1.5752   -2.9595    0.4246 N   0  0  0  0  0  0  0  0  0  0  0  0
    2.1946   -2.4089    1.0001 H   0  0  0  0  0  0  0  0  0  0  0  0
    1.4796   -4.2998    0.4299 C   0  0  0  0  0  0  0  0  0  0  0  0
    2.0607   -4.9663    1.0554 H   0  0  0  0  0  0  0  0  0  0  0  0
    0.5536   -4.7029   -0.4523 N   0  0  0  0  0  0  0  0  0  0  0  0
    0.0440   -3.5509   -1.0572 C   0  0  0  0  0  0  0  0  0  0  0  0
   -0.7419   -3.5137   -1.8005 H   0  0  0  0  0  0  0  0  0  0  0  0
   -0.6595    1.1442    0.1029 C   0  0  0  0  0  0  0  0  0  0  0  0
   -1.1788    1.5815   -0.9237 O   0  0  0  0  0  0  0  0  0  0  0  0
   -0.1902    1.9455    1.0674 N   0  0  0  0  0  0  0  0  0  0  0  0
    0.2711    1.5120    1.8537 H   0  0  0  0  0  0  0  0  0  0  0  0
   -0.2568    3.4041    1.0335 C   0  0  0  0  0  0  0  0  0  0  0  0
   -1.2991    3.7250    0.9711 H   0  0  0  0  0  0  0  0  0  0  0  0
    0.1934    3.8210    1.9349 H   0  0  0  0  0  0  0  0  0  0  0  0
    0.2757    3.7796    0.1583 H   0  0  0  0  0  0  0  0  0  0  0  0
  5  6  2  0  0  0  0
  5  7  1  0  0  0  0
  2  3  1  0  0  0  0
  2  4  1  0  0  0  0
  2  5  1  0  0  0  0
  1  2  1  0  0  0  0
 22 23  2  0  0  0  0
 22 24  1  0  0  0  0
 20 21  1  0  0  0  0
 19 20  1  0  0  0  0
 17 18  1  0  0  0  0
 17 19  2  0  0  0  0
 15 16  1  0  0  0  0
 15 17  1  0  0  0  0
 14 15  1  0  0  0  0
 14 20  2  0  0  0  0
 11 12  1  0  0  0  0
 11 13  1  0  0  0  0
 11 14  1  0  0  0  0
  9 10  1  0  0  0  0
  9 11  1  0  0  0  0
  9 22  1  0  0  0  0
  7  8  1  0  0  0  0
  7  9  1  0  0  0  0
 26 27  1  0  0  0  0
 26 28  1  0  0  0  0
 26 29  1  0  0  0  0
 24 25  1  0  0  0  0
 24 26  1  0  0  0  0
M  END
$$$$
default_name
  -OEChem-01062215323D

 29 29  0     1  0  0  0  0  0999 V2000
   -3.6042   -3.5728    1.4576 H   0  0  0  0  0  0  0  0  0  0  0  0
   -3.5202   -2.6488    0.8866 C   0  0  0  0  0  0  0  0  0  0  0  0
   -4.2052   -1.9048    1.2896 H   0  0  0  0  0  0  0  0  0  0  0  0
   -3.7552   -2.8428   -0.1584 H   0  0  0  0  0  0  0  0  0  0  0  0
   -2.1052   -2.1358    0.9946 C   0  0  0  0  0  0  0  0  0  0  0  0
   -1.2852   -2.7288    1.6826 O   0  0  0  0  0  0  0  0  0  0  0  0
   -1.8202   -1.0288    0.3146 N   0  0  0  0  0  0  0  0  0  0  0  0
   -2.5542   -0.5788   -0.2104 H   0  0  0  0  0  0  0  0  0  0  0  0
   -0.5102   -0.3728    0.3086 C   0  0  1  0  0  0  0  0  0  0  0  0
   -0.0347   -0.5329    1.2773 H   0  0  0  0  0  0  0  0  0  0  0  0
    0.3745   -1.0216   -0.7719 C   0  0  0  0  0  0  0  0  0  0  0  0
   -0.1270   -0.9442   -1.7382 H   0  0  0  0  0  0  0  0  0  0  0  0
    1.3159   -0.4730   -0.8375 H   0  0  0  0  0  0  0  0  0  0  0  0
    0.6841   -2.4723   -0.5074 C   0  0  0  0  0  0  0  0  0  0  0  0
    1.5752   -2.9595    0.4246 N   0  0  0  0  0  0  0  0  0  0  0  0
    2.1946   -2.4089    1.0001 H   0  0  0  0  0  0  0  0  0  0  0  0
    1.4796   -4.2998    0.4299 C   0  0  0  0  0  0  0  0  0  0  0  0
    2.0607   -4.9663    1.0554 H   0  0  0  0  0  0  0  0  0  0  0  0
    0.5536   -4.7029   -0.4523 N   0  0  0  0  0  0  0  0  0  0  0  0
    0.0440   -3.5509   -1.0572 C   0  0  0  0  0  0  0  0  0  0  0  0
   -0.7419   -3.5137   -1.8005 H   0  0  0  0  0  0  0  0  0  0  0  0
   -0.6595    1.1442    0.1029 C   0  0  0  0  0  0  0  0  0  0  0  0
   -1.4101    1.5796   -0.7699 O   0  0  0  0  0  0  0  0  0  0  0  0
    0.0657    1.9469    0.8918 N   0  0  0  0  0  0  0  0  0  0  0  0
    0.6989    1.5125    1.5470 H   0  0  0  0  0  0  0  0  0  0  0  0
    0.0384    3.4060    0.8328 C   0  0  0  0  0  0  0  0  0  0  0  0
   -0.9746    3.7647    1.0286 H   0  0  0  0  0  0  0  0  0  0  0  0
    0.7170    3.8240    1.5770 H   0  0  0  0  0  0  0  0  0  0  0  0
    0.3409    3.7428   -0.1599 H   0  0  0  0  0  0  0  0  0  0  0  0
  5  6  2  0  0  0  0
  5  7  1  0  0  0  0
  2  3  1  0  0  0  0
  2  4  1  0  0  0  0
  2  5  1  0  0  0  0
  1  2  1  0  0  0  0
 22 23  2  0  0  0  0
 22 24  1  0  0  0  0
 20 21  1  0  0  0  0
 19 20  1  0  0  0  0
 17 18  1  0  0  0  0
 17 19  2  0  0  0  0
 15 16  1  0  0  0  0
 15 17  1  0  0  0  0
 14 15  1  0  0  0  0
 14 20  2  0  0  0  0
 11 12  1  0  0  0  0
 11 13  1  0  0  0  0
 11 14  1  0  0  0  0
  9 10  1  0  0  0  0
  9 11  1  0  0  0  0
  9 22  1  0  0  0  0
  7  8  1  0  0  0  0
  7  9  1  0  0  0  0
 26 27  1  0  0  0  0
 26 28  1  0  0  0  0
 26 29  1  0  0  0  0
 24 25  1  0  0  0  0
 24 26  1  0  0  0  0
M  END
$$$$
default_name
  -OEChem-01062215323D

 29 29  0     1  0  0  0  0  0999 V2000
   -3.6042   -3.5728    1.4576 H   0  0  0  0  0  0  0  0  0  0  0  0
   -3.5202   -2.6488    0.8866 C   0  0  0  0  0  0  0  0  0  0  0  0
   -4.2052   -1.9048    1.2896 H   0  0  0  0  0  0  0  0  0  0  0  0
   -3.7552   -2.8428   -0.1584 H   0  0  0  0  0  0  0  0  0  0  0  0
   -2.1052   -2.1358    0.9946 C   0  0  0  0  0  0  0  0  0  0  0  0
   -1.2852   -2.7288    1.6826 O   0  0  0  0  0  0  0  0  0  0  0  0
   -1.8202   -1.0288    0.3146 N   0  0  0  0  0  0  0  0  0  0  0  0
   -2.5542   -0.5788   -0.2104 H   0  0  0  0  0  0  0  0  0  0  0  0
   -0.5102   -0.3728    0.3086 C   0  0  1  0  0  0  0  0  0  0  0  0
   -0.0347   -0.5329    1.2773 H   0  0  0  0  0  0  0  0  0  0  0  0
    0.3745   -1.0216   -0.7719 C   0  0  0  0  0  0  0  0  0  0  0  0
   -0.1270   -0.9442   -1.7382 H   0  0  0  0  0  0  0  0  0  0  0  0
    1.3159   -0.4730   -0.8375 H   0  0  0  0  0  0  0  0  0  0  0  0
    0.6841   -2.4723   -0.5074 C   0  0  0  0  0  0  0  0  0  0  0  0
    1.5752   -2.9595    0.4246 N   0  0  0  0  0  0  0  0  0  0  0  0
    2.1946   -2.4089    1.0001 H   0  0  0  0  0  0  0  0  0  0  0  0
    1.4796   -4.2998    0.4299 C   0  0  0  0  0  0  0  0  0  0  0  0
    2.0607   -4.9663    1.0554 H   0  0  0  0  0  0  0  0  0  0  0  0
    0.5536   -4.7029   -0.4523 N   0  0  0  0  0  0  0  0  0  0  0  0
    0.0440   -3.5509   -1.0572 C   0  0  0  0  0  0  0  0  0  0  0  0
   -0.7419   -3.5137   -1.8005 H   0  0  0  0  0  0  0  0  0  0  0  0
   -0.6595    1.1442    0.1029 C   0  0  0  0  0  0  0  0  0  0  0  0
   -1.5943    1.5896   -0.5624 O   0  0  0  0  0  0  0  0  0  0  0  0
    0.2681    1.9349    0.6568 N   0  0  0  0  0  0  0  0  0  0  0  0
    1.0339    1.4905    1.1417 H   0  0  0  0  0  0  0  0  0  0  0  0
    0.2724    3.3925    0.5636 C   0  0  0  0  0  0  0  0  0  0  0  0
   -0.6451    3.7933    1.0004 H   0  0  0  0  0  0  0  0  0  0  0  0
    1.1315    3.7997    1.0976 H   0  0  0  0  0  0  0  0  0  0  0  0
    0.3214    3.6971   -0.4830 H   0  0  0  0  0  0  0  0  0  0  0  0
  5  6  2  0  0  0  0
  5  7  1  0  0  0  0
  2  3  1  0  0  0  0
  2  4  1  0  0  0  0
  2  5  1  0  0  0  0
  1  2  1  0  0  0  0
 22 23  2  0  0  0  0
 22 24  1  0  0  0  0
 20 21  1  0  0  0  0
 19 20  1  0  0  0  0
 17 18  1  0  0  0  0
 17 19  2  0  0  0  0
 15 16  1  0  0  0  0
 15 17  1  0  0  0  0
 14 15  1  0  0  0  0
 14 20  2  0  0  0  0
 11 12  1  0  0  0  0
 11 13  1  0  0  0  0
 11 14  1  0  0  0  0
  9 10  1  0  0  0  0
  9 11  1  0  0  0  0
  9 22  1  0  0  0  0
  7  8  1  0  0  0  0
  7  9  1  0  0  0  0
 26 27  1  0  0  0  0
 26 28  1  0  0  0  0
 26 29  1  0  0  0  0
 24 25  1  0  0  0  0
 24 26  1  0  0  0  0
M  END
$$$$
default_name
  -OEChem-01062215323D

 29 29  0     1  0  0  0  0  0999 V2000
   -3.6042   -3.5728    1.4576 H   0  0  0  0  0  0  0  0  0  0  0  0
   -3.5202   -2.6488    0.8866 C   0  0  0  0  0  0  0  0  0  0  0  0
   -4.2052   -1.9048    1.2896 H   0  0  0  0  0  0  0  0  0  0  0  0
   -3.7552   -2.8428   -0.1584 H   0  0  0  0  0  0  0  0  0  0  0  0
   -2.1052   -2.1358    0.9946 C   0  0  0  0  0  0  0  0  0  0  0  0
   -1.2852   -2.7288    1.6826 O   0  0  0  0  0  0  0  0  0  0  0  0
   -1.8202   -1.0288    0.3146 N   0  0  0  0  0  0  0  0  0  0  0  0
   -2.5542   -0.5788   -0.2104 H   0  0  0  0  0  0  0  0  0  0  0  0
   -0.5102   -0.3728    0.3086 C   0  0  1  0  0  0  0  0  0  0  0  0
   -0.0347   -0.5329    1.2773 H   0  0  0  0  0  0  0  0  0  0  0  0
    0.3745   -1.0216   -0.7719 C   0  0  0  0  0  0  0  0  0  0  0  0
   -0.1270   -0.9442   -1.7382 H   0  0  0  0  0  0  0  0  0  0  0  0
    1.3159   -0.4730   -0.8375 H   0  0  0  0  0  0  0  0  0  0  0  0
    0.6841   -2.4723   -0.5074 C   0  0  0  0  0  0  0  0  0  0  0  0
    1.5752   -2.9595    0.4246 N   0  0  0  0  0  0  0  0  0  0  0  0
    2.1946   -2.4089    1.0001 H   0  0  0  0  0  0  0  0  0  0  0  0
    1.4796   -4.2998    0.4299 C   0  0  0  0  0  0  0  0  0  0  0  0
    2.0607   -4.9663    1.0554 H   0  0  0  0  0  0  0  0  0  0  0  0
    0.5536   -4.7029   -0.4523 N   0  0  0  0  0  0  0  0  0  0  0  0
    0.0440   -3.5509   -1.0572 C   0  0  0  0  0  0  0  0  0  0  0  0
   -0.7419   -3.5137   -1.8005 H   0  0  0  0  0  0  0  0  0  0  0  0
   -0.6595    1.1442    0.1029 C   0  0  0  0  0  0  0  0  0  0  0  0
   -1.7189    1.6109   -0.3151 O   0  0  0  0  0  0  0  0  0  0  0  0
    0.4033    1.9105    0.3785 N   0  0  0  0  0  0  0  0  0  0  0  0
    1.2532    1.4475    0.6651 H   0  0  0  0  0  0  0  0  0  0  0  0
    0.4293    3.3646    0.2442 C   0  0  0  0  0  0  0  0  0  0  0  0
   -0.3330    3.8088    0.8882 H   0  0  0  0  0  0  0  0  0  0  0  0
    1.4086    3.7499    0.5293 H   0  0  0  0  0  0  0  0  0  0  0  0
    0.2186    3.6455   -0.7889 H   0  0  0  0  0  0  0  0  0  0  0  0
  5  6  2  0  0  0  0
  5  7  1  0  0  0  0
  2  3  1  0  0  0  0
  2  4  1  0  0  0  0
  2  5  1  0  0  0  0
  1  2  1  0  0  0  0
 22 23  2  0  0  0  0
 22 24  1  0  0  0  0
 20 21  1  0  0  0  0
 19 20  1  0  0  0  0
 17 18  1  0  0  0  0
 17 19  2  0  0  0  0
 15 16  1  0  0  0  0
 15 17  1  0  0  0  0
 14 15  1  0  0  0  0
 14 20  2  0  0  0  0
 11 12  1  0  0  0  0
 11 13  1  0  0  0  0
 11 14  1  0  0  0  0
  9 10  1  0  0  0  0
  9 11  1  0  0  0  0
  9 22  1  0  0  0  0
  7  8  1  0  0  0  0
  7  9  1  0  0  0  0
 26 27  1  0  0  0  0
 26 28  1  0  0  0  0
 26 29  1  0  0  0  0
 24 25  1  0  0  0  0
 24 26  1  0  0  0  0
M  END
$$$$
default_name
  -OEChem-01062215323D

 29 29  0     1  0  0  0  0  0999 V2000
   -3.6042   -3.5728    1.4576 H   0  0  0  0  0  0  0  0  0  0  0  0
   -3.5202   -2.6488    0.8866 C   0  0  0  0  0  0  0  0  0  0  0  0
   -4.2052   -1.9048    1.2896 H   0  0  0  0  0  0  0  0  0  0  0  0
   -3.7552   -2.8428   -0.1584 H   0  0  0  0  0  0  0  0  0  0  0  0
   -2.1052   -2.1358    0.9946 C   0  0  0  0  0  0  0  0  0  0  0  0
   -1.2852   -2.7288    1.6826 O   0  0  0  0  0  0  0  0  0  0  0  0
   -1.8202   -1.0288    0.3146 N   0  0  0  0  0  0  0  0  0  0  0  0
   -2.5542   -0.5788   -0.2104 H   0  0  0  0  0  0  0  0  0  0  0  0
   -0.5102   -0.3728    0.3086 C   0  0  1  0  0  0  0  0  0  0  0  0
    0.0719   -0.7468    1.1521 H   0  0  0  0  0  0  0  0  0  0  0  0
    0.2338   -0.7427   -0.9878 C   0  0  0  0  0  0  0  0  0  0  0  0
   -0.3749   -0.4501   -1.8452 H   0  0  0  0  0  0  0  0  0  0  0  0
    1.1692   -0.1820   -1.0335 H   0  0  0  0  0  0  0  0  0  0  0  0
    0.5506   -2.2112   -1.1039 C   0  0  0  0  0  0  0  0  0  0  0  0
    1.5363   -2.8897   -0.4198 N   0  0  0  0  0  0  0  0  0  0  0  0
    2.2262   -2.4795    0.1917 H   0  0  0  0  0  0  0  0  0  0  0  0
    1.4223   -4.1958   -0.7137 C   0  0  0  0  0  0  0  0  0  0  0  0
    2.0621   -4.9817   -0.3311 H   0  0  0  0  0  0  0  0  0  0  0  0
    0.3946   -4.3954   -1.5516 N   0  0  0  0  0  0  0  0  0  0  0  0
   -0.1646   -3.1412   -1.8102 C   0  0  0  0  0  0  0  0  0  0  0  0
   -1.0306   -2.9428   -2.4284 H   0  0  0  0  0  0  0  0  0  0  0  0
   -0.6600    1.1486    0.4782 C   0  0  0  0  0  0  0  0  0  0  0  0
   -1.7780    1.6530    0.5800 O   0  0  0  0  0  0  0  0  0  0  0  0
    0.4614    1.8801    0.4910 N   0  0  0  0  0  0  0  0  0  0  0  0
    1.3368    1.3985    0.3475 H   0  0  0  0  0  0  0  0  0  0  0  0
    0.4980    3.3316    0.6487 C   0  0  0  0  0  0  0  0  0  0  0  0
    0.0440    3.6112    1.6020 H   0  0  0  0  0  0  0  0  0  0  0  0
    1.5291    3.6853    0.6250 H   0  0  0  0  0  0  0  0  0  0  0  0
   -0.0642    3.8065   -0.1569 H   0  0  0  0  0  0  0  0  0  0  0  0
  5  6  2  0  0  0  0
  5  7  1  0  0  0  0
  2  3  1  0  0  0  0
  2  4  1  0  0  0  0
  2  5  1  0  0  0  0
  1  2  1  0  0  0  0
 22 23  2  0  0  0  0
 22 24  1  0  0  0  0
 20 21  1  0  0  0  0
 19 20  1  0  0  0  0
 17 18  1  0  0  0  0
 17 19  2  0  0  0  0
 15 16  1  0  0  0  0
 15 17  1  0  0  0  0
 14 15  1  0  0  0  0
 14 20  2  0  0  0  0
 11 12  1  0  0  0  0
 11 13  1  0  0  0  0
 11 14  1  0  0  0  0
  9 10  1  0  0  0  0
  9 11  1  0  0  0  0
  9 22  1  0  0  0  0
  7  8  1  0  0  0  0
  7  9  1  0  0  0  0
 26 27  1  0  0  0  0
 26 28  1  0  0  0  0
 26 29  1  0  0  0  0
 24 25  1  0  0  0  0
 24 26  1  0  0  0  0
M  END
$$$$
default_name
  -OEChem-01062215323D

 29 29  0     1  0  0  0  0  0999 V2000
   -3.6042   -3.5728    1.4576 H   0  0  0  0  0  0  0  0  0  0  0  0
   -3.5202   -2.6488    0.8866 C   0  0  0  0  0  0  0  0  0  0  0  0
   -4.2052   -1.9048    1.2896 H   0  0  0  0  0  0  0  0  0  0  0  0
   -3.7552   -2.8428   -0.1584 H   0  0  0  0  0  0  0  0  0  0  0  0
   -2.1052   -2.1358    0.9946 C   0  0  0  0  0  0  0  0  0  0  0  0
   -1.2852   -2.7288    1.6826 O   0  0  0  0  0  0  0  0  0  0  0  0
   -1.8202   -1.0288    0.3146 N   0  0  0  0  0  0  0  0  0  0  0  0
   -2.5542   -0.5788   -0.2104 H   0  0  0  0  0  0  0  0  0  0  0  0
   -0.5102   -0.3728    0.3086 C   0  0  1  0  0  0  0  0  0  0  0  0
    0.0719   -0.7468    1.1521 H   0  0  0  0  0  0  0  0  0  0  0  0
    0.2338   -0.7427   -0.9878 C   0  0  0  0  0  0  0  0  0  0  0  0
   -0.3749   -0.4501   -1.8452 H   0  0  0  0  0  0  0  0  0  0  0  0
    1.1692   -0.1820   -1.0335 H   0  0  0  0  0  0  0  0  0  0  0  0
    0.5506   -2.2112   -1.1039 C   0  0  0  0  0  0  0  0  0  0  0  0
    1.5363   -2.8897   -0.4198 N   0  0  0  0  0  0  0  0  0  0  0  0
    2.2262   -2.4795    0.1917 H   0  0  0  0  0  0  0  0  0  0  0  0
    1.4223   -4.1958   -0.7137 C   0  0  0  0  0  0  0  0  0  0  0  0
    2.0621   -4.9817   -0.3311 H   0  0  0  0  0  0  0  0  0  0  0  0
    0.3946   -4.3954   -1.5516 N   0  0  0  0  0  0  0  0  0  0  0  0
   -0.1646   -3.1412   -1.8102 C   0  0  0  0  0  0  0  0  0  0  0  0
   -1.0306   -2.9428   -2.4284 H   0  0  0  0  0  0  0  0  0  0  0  0
   -0.6600    1.1486    0.4782 C   0  0  0  0  0  0  0  0  0  0  0  0
   -1.7303    1.6273    0.8524 O   0  0  0  0  0  0  0  0  0  0  0  0
    0.4035    1.9082    0.1874 N   0  0  0  0  0  0  0  0  0  0  0  0
    1.2280    1.4449   -0.1654 H   0  0  0  0  0  0  0  0  0  0  0  0
    0.4330    3.3642    0.2992 C   0  0  0  0  0  0  0  0  0  0  0  0
    0.2292    3.6597    1.3309 H   0  0  0  0  0  0  0  0  0  0  0  0
    1.4121    3.7430    0.0044 H   0  0  0  0  0  0  0  0  0  0  0  0
   -0.3313    3.8013   -0.3453 H   0  0  0  0  0  0  0  0  0  0  0  0
  5  6  2  0  0  0  0
  5  7  1  0  0  0  0
  2  3  1  0  0  0  0
  2  4  1  0  0  0  0
  2  5  1  0  0  0  0
  1  2  1  0  0  0  0
 22 23  2  0  0  0  0
 22 24  1  0  0  0  0
 20 21  1  0  0  0  0
 19 20  1  0  0  0  0
 17 18  1  0  0  0  0
 17 19  2  0  0  0  0
 15 16  1  0  0  0  0
 15 17  1  0  0  0  0
 14 15  1  0  0  0  0
 14 20  2  0  0  0  0
 11 12  1  0  0  0  0
 11 13  1  0  0  0  0
 11 14  1  0  0  0  0
  9 10  1  0  0  0  0
  9 11  1  0  0  0  0
  9 22  1  0  0  0  0
  7  8  1  0  0  0  0
  7  9  1  0  0  0  0
 26 27  1  0  0  0  0
 26 28  1  0  0  0  0
 26 29  1  0  0  0  0
 24 25  1  0  0  0  0
 24 26  1  0  0  0  0
M  END
$$$$
default_name
  -OEChem-01062215323D

 29 29  0     1  0  0  0  0  0999 V2000
   -3.6042   -3.5728    1.4576 H   0  0  0  0  0  0  0  0  0  0  0  0
   -3.5202   -2.6488    0.8866 C   0  0  0  0  0  0  0  0  0  0  0  0
   -4.2052   -1.9048    1.2896 H   0  0  0  0  0  0  0  0  0  0  0  0
   -3.7552   -2.8428   -0.1584 H   0  0  0  0  0  0  0  0  0  0  0  0
   -2.1052   -2.1358    0.9946 C   0  0  0  0  0  0  0  0  0  0  0  0
   -1.2852   -2.7288    1.6826 O   0  0  0  0  0  0  0  0  0  0  0  0
   -1.8202   -1.0288    0.3146 N   0  0  0  0  0  0  0  0  0  0  0  0
   -2.5542   -0.5788   -0.2104 H   0  0  0  0  0  0  0  0  0  0  0  0
   -0.5102   -0.3728    0.3086 C   0  0  1  0  0  0  0  0  0  0  0  0
    0.0719   -0.7468    1.1521 H   0  0  0  0  0  0  0  0  0  0  0  0
    0.2338   -0.7427   -0.9878 C   0  0  0  0  0  0  0  0  0  0  0  0
   -0.3749   -0.4501   -1.8452 H   0  0  0  0  0  0  0  0  0  0  0  0
    1.1692   -0.1820   -1.0335 H   0  0  0  0  0  0  0  0  0  0  0  0
    0.5506   -2.2112   -1.1039 C   0  0  0  0  0  0  0  0  0  0  0  0
    1.5363   -2.8897   -0.4198 N   0  0  0  0  0  0  0  0  0  0  0  0
    2.2262   -2.4795    0.1917 H   0  0  0  0  0  0  0  0  0  0  0  0
    1.4223   -4.1958   -0.7137 C   0  0  0  0  0  0  0  0  0  0  0  0
    2.0621   -4.9817   -0.3311 H   0  0  0  0  0  0  0  0  0  0  0  0
    0.3946   -4.3954   -1.5516 N   0  0  0  0  0  0  0  0  0  0  0  0
   -0.1646   -3.1412   -1.8102 C   0  0  0  0  0  0  0  0  0  0  0  0
   -1.0306   -2.9428   -2.4284 H   0  0  0  0  0  0  0  0  0  0  0  0
   -0.6600    1.1486    0.4782 C   0  0  0  0  0  0  0  0  0  0  0  0
   -1.6137    1.6108    1.1039 O   0  0  0  0  0  0  0  0  0  0  0  0
    0.2691    1.9261   -0.0917 N   0  0  0  0  0  0  0  0  0  0  0  0
    0.9904    1.4738   -0.6341 H   0  0  0  0  0  0  0  0  0  0  0  0
    0.2799    3.3850   -0.0226 C   0  0  0  0  0  0  0  0  0  0  0  0
    0.3373    3.7050    1.0203 H   0  0  0  0  0  0  0  0  0  0  0  0
    1.1384    3.7797   -0.5666 H   0  0  0  0  0  0  0  0  0  0  0  0
   -0.6373    3.7838   -0.4588 H   0  0  0  0  0  0  0  0  0  0  0  0
  5  6  2  0  0  0  0
  5  7  1  0  0  0  0
  2  3  1  0  0  0  0
  2  4  1  0  0  0  0
  2  5  1  0  0  0  0
  1  2  1  0  0  0  0
 22 23  2  0  0  0  0
 22 24  1  0  0  0  0
 20 21  1  0  0  0  0
 19 20  1  0  0  0  0
 17 18  1  0  0  0  0
 17 19  2  0  0  0  0
 15 16  1  0  0  0  0
 15 17  1  0  0  0  0
 14 15  1  0  0  0  0
 14 20  2  0  0  0  0
 11 12  1  0  0  0  0
 11 13  1  0  0  0  0
 11 14  1  0  0  0  0
  9 10  1  0  0  0  0
  9 11  1  0  0  0  0
  9 22  1  0  0  0  0
  7  8  1  0  0  0  0
  7  9  1  0  0  0  0
 26 27  1  0  0  0  0
 26 28  1  0  0  0  0
 26 29  1  0  0  0  0
 24 25  1  0  0  0  0
 24 26  1  0  0  0  0
M  END
$$$$
default_name
  -OEChem-01062215323D

 29 29  0     1  0  0  0  0  0999 V2000
   -3.6042   -3.5728    1.4576 H   0  0  0  0  0  0  0  0  0  0  0  0
   -3.5202   -2.6488    0.8866 C   0  0  0  0  0  0  0  0  0  0  0  0
   -4.2052   -1.9048    1.2896 H   0  0  0  0  0  0  0  0  0  0  0  0
   -3.7552   -2.8428   -0.1584 H   0  0  0  0  0  0  0  0  0  0  0  0
   -2.1052   -2.1358    0.9946 C   0  0  0  0  0  0  0  0  0  0  0  0
   -1.2852   -2.7288    1.6826 O   0  0  0  0  0  0  0  0  0  0  0  0
   -1.8202   -1.0288    0.3146 N   0  0  0  0  0  0  0  0  0  0  0  0
   -2.5542   -0.5788   -0.2104 H   0  0  0  0  0  0  0  0  0  0  0  0
   -0.5102   -0.3728    0.3086 C   0  0  1  0  0  0  0  0  0  0  0  0
    0.0719   -0.7468    1.1521 H   0  0  0  0  0  0  0  0  0  0  0  0
    0.2338   -0.7427   -0.9878 C   0  0  0  0  0  0  0  0  0  0  0  0
   -0.3749   -0.4501   -1.8452 H   0  0  0  0  0  0  0  0  0  0  0  0
    1.1692   -0.1820   -1.0335 H   0  0  0  0  0  0  0  0  0  0  0  0
    0.5506   -2.2112   -1.1039 C   0  0  0  0  0  0  0  0  0  0  0  0
    1.5363   -2.8897   -0.4198 N   0  0  0  0  0  0  0  0  0  0  0  0
    2.2262   -2.4795    0.1917 H   0  0  0  0  0  0  0  0  0  0  0  0
    1.4223   -4.1958   -0.7137 C   0  0  0  0  0  0  0  0  0  0  0  0
    2.0621   -4.9817   -0.3311 H   0  0  0  0  0  0  0  0  0  0  0  0
    0.3946   -4.3954   -1.5516 N   0  0  0  0  0  0  0  0  0  0  0  0
   -0.1646   -3.1412   -1.8102 C   0  0  0  0  0  0  0  0  0  0  0  0
   -1.0306   -2.9428   -2.4284 H   0  0  0  0  0  0  0  0  0  0  0  0
   -0.6600    1.1486    0.4782 C   0  0  0  0  0  0  0  0  0  0  0  0
   -1.4363    1.6044    1.3174 O   0  0  0  0  0  0  0  0  0  0  0  0
    0.0673    1.9326   -0.3274 N   0  0  0  0  0  0  0  0  0  0  0  0
    0.6400    1.4831   -1.0268 H   0  0  0  0  0  0  0  0  0  0  0  0
    0.0490    3.3926   -0.2947 C   0  0  0  0  0  0  0  0  0  0  0  0
    0.3608    3.7439    0.6915 H   0  0  0  0  0  0  0  0  0  0  0  0
    0.7269    3.7930   -1.0490 H   0  0  0  0  0  0  0  0  0  0  0  0
   -0.9614    3.7553   -0.4897 H   0  0  0  0  0  0  0  0  0  0  0  0
  5  6  2  0  0  0  0
  5  7  1  0  0  0  0
  2  3  1  0  0  0  0
  2  4  1  0  0  0  0
  2  5  1  0  0  0  0
  1  2  1  0  0  0  0
 22 23  2  0  0  0  0
 22 24  1  0  0  0  0
 20 21  1  0  0  0  0
 19 20  1  0  0  0  0
 17 18  1  0  0  0  0
 17 19  2  0  0  0  0
 15 16  1  0  0  0  0
 15 17  1  0  0  0  0
 14 15  1  0  0  0  0
 14 20  2  0  0  0  0
 11 12  1  0  0  0  0
 11 13  1  0  0  0  0
 11 14  1  0  0  0  0
  9 10  1  0  0  0  0
  9 11  1  0  0  0  0
  9 22  1  0  0  0  0
  7  8  1  0  0  0  0
  7  9  1  0  0  0  0
 26 27  1  0  0  0  0
 26 28  1  0  0  0  0
 26 29  1  0  0  0  0
 24 25  1  0  0  0  0
 24 26  1  0  0  0  0
M  END
$$$$
default_name
  -OEChem-01062215323D

 29 29  0     1  0  0  0  0  0999 V2000
   -3.6042   -3.5728    1.4576 H   0  0  0  0  0  0  0  0  0  0  0  0
   -3.5202   -2.6488    0.8866 C   0  0  0  0  0  0  0  0  0  0  0  0
   -4.2052   -1.9048    1.2896 H   0  0  0  0  0  0  0  0  0  0  0  0
   -3.7552   -2.8428   -0.1584 H   0  0  0  0  0  0  0  0  0  0  0  0
   -2.1052   -2.1358    0.9946 C   0  0  0  0  0  0  0  0  0  0  0  0
   -1.2852   -2.7288    1.6826 O   0  0  0  0  0  0  0  0  0  0  0  0
   -1.8202   -1.0288    0.3146 N   0  0  0  0  0  0  0  0  0  0  0  0
   -2.5542   -0.5788   -0.2104 H   0  0  0  0  0  0  0  0  0  0  0  0
   -0.5102   -0.3728    0.3086 C   0  0  1  0  0  0  0  0  0  0  0  0
    0.0719   -0.7468    1.1521 H   0  0  0  0  0  0  0  0  0  0  0  0
    0.2338   -0.7427   -0.9878 C   0  0  0  0  0  0  0  0  0  0  0  0
   -0.3749   -0.4501   -1.8452 H   0  0  0  0  0  0  0  0  0  0  0  0
    1.1692   -0.1820   -1.0335 H   0  0  0  0  0  0  0  0  0  0  0  0
    0.5506   -2.2112   -1.1039 C   0  0  0  0  0  0  0  0  0  0  0  0
    1.5363   -2.8897   -0.4198 N   0  0  0  0  0  0  0  0  0  0  0  0
    2.2262   -2.4795    0.1917 H   0  0  0  0  0  0  0  0  0  0  0  0
    1.4223   -4.1958   -0.7137 C   0  0  0  0  0  0  0  0  0  0  0  0
    2.0621   -4.9817   -0.3311 H   0  0  0  0  0  0  0  0  0  0  0  0
    0.3946   -4.3954   -1.5516 N   0  0  0  0  0  0  0  0  0  0  0  0
   -0.1646   -3.1412   -1.8102 C   0  0  0  0  0  0  0  0  0  0  0  0
   -1.0306   -2.9428   -2.4284 H   0  0  0  0  0  0  0  0  0  0  0  0
   -0.6600    1.1486    0.4782 C   0  0  0  0  0  0  0  0  0  0  0  0
   -1.2101    1.6087    1.4784 O   0  0  0  0  0  0  0  0  0  0  0  0
   -0.1881    1.9271   -0.5036 N   0  0  0  0  0  0  0  0  0  0  0  0
    0.2007    1.4722   -1.3165 H   0  0  0  0  0  0  0  0  0  0  0  0
   -0.2439    3.3865   -0.4986 C   0  0  0  0  0  0  0  0  0  0  0  0
    0.2983    3.7740    0.3669 H   0  0  0  0  0  0  0  0  0  0  0  0
    0.2056    3.7820   -1.4100 H   0  0  0  0  0  0  0  0  0  0  0  0
   -1.2816    3.7178   -0.4358 H   0  0  0  0  0  0  0  0  0  0  0  0
  5  6  2  0  0  0  0
  5  7  1  0  0  0  0
  2  3  1  0  0  0  0
  2  4  1  0  0  0  0
  2  5  1  0  0  0  0
  1  2  1  0  0  0  0
 22 23  2  0  0  0  0
 22 24  1  0  0  0  0
 20 21  1  0  0  0  0
 19 20  1  0  0  0  0
 17 18  1  0  0  0  0
 17 19  2  0  0  0  0
 15 16  1  0  0  0  0
 15 17  1  0  0  0  0
 14 15  1  0  0  0  0
 14 20  2  0  0  0  0
 11 12  1  0  0  0  0
 11 13  1  0  0  0  0
 11 14  1  0  0  0  0
  9 10  1  0  0  0  0
  9 11  1  0  0  0  0
  9 22  1  0  0  0  0
  7  8  1  0  0  0  0
  7  9  1  0  0  0  0
 26 27  1  0  0  0  0
 26 28  1  0  0  0  0
 26 29  1  0  0  0  0
 24 25  1  0  0  0  0
 24 26  1  0  0  0  0
M  END
$$$$
default_name
  -OEChem-01062215323D

 29 29  0     1  0  0  0  0  0999 V2000
   -3.6042   -3.5728    1.4576 H   0  0  0  0  0  0  0  0  0  0  0  0
   -3.5202   -2.6488    0.8866 C   0  0  0  0  0  0  0  0  0  0  0  0
   -4.2052   -1.9048    1.2896 H   0  0  0  0  0  0  0  0  0  0  0  0
   -3.7552   -2.8428   -0.1584 H   0  0  0  0  0  0  0  0  0  0  0  0
   -2.1052   -2.1358    0.9946 C   0  0  0  0  0  0  0  0  0  0  0  0
   -1.2852   -2.7288    1.6826 O   0  0  0  0  0  0  0  0  0  0  0  0
   -1.8202   -1.0288    0.3146 N   0  0  0  0  0  0  0  0  0  0  0  0
   -2.5542   -0.5788   -0.2104 H   0  0  0  0  0  0  0  0  0  0  0  0
   -0.5102   -0.3728    0.3086 C   0  0  1  0  0  0  0  0  0  0  0  0
    0.0719   -0.7468    1.1521 H   0  0  0  0  0  0  0  0  0  0  0  0
    0.2338   -0.7427   -0.9878 C   0  0  0  0  0  0  0  0  0  0  0  0
   -0.3749   -0.4501   -1.8452 H   0  0  0  0  0  0  0  0  0  0  0  0
    1.1692   -0.1820   -1.0335 H   0  0  0  0  0  0  0  0  0  0  0  0
    0.5506   -2.2112   -1.1039 C   0  0  0  0  0  0  0  0  0  0  0  0
    1.5363   -2.8897   -0.4198 N   0  0  0  0  0  0  0  0  0  0  0  0
    2.2262   -2.4795    0.1917 H   0  0  0  0  0  0  0  0  0  0  0  0
    1.4223   -4.1958   -0.7137 C   0  0  0  0  0  0  0  0  0  0  0  0
    2.0621   -4.9817   -0.3311 H   0  0  0  0  0  0  0  0  0  0  0  0
    0.3946   -4.3954   -1.5516 N   0  0  0  0  0  0  0  0  0  0  0  0
   -0.1646   -3.1412   -1.8102 C   0  0  0  0  0  0  0  0  0  0  0  0
   -1.0306   -2.9428   -2.4284 H   0  0  0  0  0  0  0  0  0  0  0  0
   -0.6600    1.1486    0.4782 C   0  0  0  0  0  0  0  0  0  0  0  0
   -0.9504    1.6234    1.5759 O   0  0  0  0  0  0  0  0  0  0  0  0
   -0.4798    1.9100   -0.6083 N   0  0  0  0  0  0  0  0  0  0  0  0
   -0.2974    1.4418   -1.4837 H   0  0  0  0  0  0  0  0  0  0  0  0
   -0.5789    3.3671   -0.6205 C   0  0  0  0  0  0  0  0  0  0  0  0
    0.1540    3.7930    0.0686 H   0  0  0  0  0  0  0  0  0  0  0  0
   -0.3901    3.7473   -1.6248 H   0  0  0  0  0  0  0  0  0  0  0  0
   -1.5760    3.6738   -0.3008 H   0  0  0  0  0  0  0  0  0  0  0  0
  5  6  2  0  0  0  0
  5  7  1  0  0  0  0
  2  3  1  0  0  0  0
  2  4  1  0  0  0  0
  2  5  1  0  0  0  0
  1  2  1  0  0  0  0
 22 23  2  0  0  0  0
 22 24  1  0  0  0  0
 20 21  1  0  0  0  0
 19 20  1  0  0  0  0
 17 18  1  0  0  0  0
 17 19  2  0  0  0  0
 15 16  1  0  0  0  0
 15 17  1  0  0  0  0
 14 15  1  0  0  0  0
 14 20  2  0  0  0  0
 11 12  1  0  0  0  0
 11 13  1  0  0  0  0
 11 14  1  0  0  0  0
  9 10  1  0  0  0  0
  9 11  1  0  0  0  0
  9 22  1  0  0  0  0
  7  8  1  0  0  0  0
  7  9  1  0  0  0  0
 26 27  1  0  0  0  0
 26 28  1  0  0  0  0
 26 29  1  0  0  0  0
 24 25  1  0  0  0  0
 24 26  1  0  0  0  0
M  END
$$$$
default_name
  -OEChem-01062215323D

 29 29  0     1  0  0  0  0  0999 V2000
   -3.6042   -3.5728    1.4576 H   0  0  0  0  0  0  0  0  0  0  0  0
   -3.5202   -2.6488    0.8866 C   0  0  0  0  0  0  0  0  0  0  0  0
   -4.2052   -1.9048    1.2896 H   0  0  0  0  0  0  0  0  0  0  0  0
   -3.7552   -2.8428   -0.1584 H   0  0  0  0  0  0  0  0  0  0  0  0
   -2.1052   -2.1358    0.9946 C   0  0  0  0  0  0  0  0  0  0  0  0
   -1.2852   -2.7288    1.6826 O   0  0  0  0  0  0  0  0  0  0  0  0
   -1.8202   -1.0288    0.3146 N   0  0  0  0  0  0  0  0  0  0  0  0
   -2.5542   -0.5788   -0.2104 H   0  0  0  0  0  0  0  0  0  0  0  0
   -0.5102   -0.3728    0.3086 C   0  0  1  0  0  0  0  0  0  0  0  0
    0.0719   -0.7468    1.1521 H   0  0  0  0  0  0  0  0  0  0  0  0
    0.2338   -0.7427   -0.9878 C   0  0  0  0  0  0  0  0  0  0  0  0
   -0.3749   -0.4501   -1.8452 H   0  0  0  0  0  0  0  0  0  0  0  0
    1.1692   -0.1820   -1.0335 H   0  0  0  0  0  0  0  0  0  0  0  0
    0.5506   -2.2112   -1.1039 C   0  0  0  0  0  0  0  0  0  0  0  0
    1.5363   -2.8897   -0.4198 N   0  0  0  0  0  0  0  0  0  0  0  0
    2.2262   -2.4795    0.1917 H   0  0  0  0  0  0  0  0  0  0  0  0
    1.4223   -4.1958   -0.7137 C   0  0  0  0  0  0  0  0  0  0  0  0
    2.0621   -4.9817   -0.3311 H   0  0  0  0  0  0  0  0  0  0  0  0
    0.3946   -4.3954   -1.5516 N   0  0  0  0  0  0  0  0  0  0  0  0
   -0.1646   -3.1412   -1.8102 C   0  0  0  0  0  0  0  0  0  0  0  0
   -1.0306   -2.9428   -2.4284 H   0  0  0  0  0  0  0  0  0  0  0  0
   -0.6600    1.1486    0.4782 C   0  0  0  0  0  0  0  0  0  0  0  0
   -0.6751    1.6475    1.6032 O   0  0  0  0  0  0  0  0  0  0  0  0
   -0.7878    1.8826   -0.6342 N   0  0  0  0  0  0  0  0  0  0  0  0
   -0.8205    1.3940   -1.5169 H   0  0  0  0  0  0  0  0  0  0  0  0
   -0.9331    3.3358   -0.6519 C   0  0  0  0  0  0  0  0  0  0  0  0
   -0.0624    3.7998   -0.1831 H   0  0  0  0  0  0  0  0  0  0  0  0
   -1.0195    3.6914   -1.6790 H   0  0  0  0  0  0  0  0  0  0  0  0
   -1.8246    3.6263   -0.0940 H   0  0  0  0  0  0  0  0  0  0  0  0
  5  6  2  0  0  0  0
  5  7  1  0  0  0  0
  2  3  1  0  0  0  0
  2  4  1  0  0  0  0
  2  5  1  0  0  0  0
  1  2  1  0  0  0  0
 22 23  2  0  0  0  0
 22 24  1  0  0  0  0
 20 21  1  0  0  0  0
 19 20  1  0  0  0  0
 17 18  1  0  0  0  0
 17 19  2  0  0  0  0
 15 16  1  0  0  0  0
 15 17  1  0  0  0  0
 14 15  1  0  0  0  0
 14 20  2  0  0  0  0
 11 12  1  0  0  0  0
 11 13  1  0  0  0  0
 11 14  1  0  0  0  0
  9 10  1  0  0  0  0
  9 11  1  0  0  0  0
  9 22  1  0  0  0  0
  7  8  1  0  0  0  0
  7  9  1  0  0  0  0
 26 27  1  0  0  0  0
 26 28  1  0  0  0  0
 26 29  1  0  0  0  0
 24 25  1  0  0  0  0
 24 26  1  0  0  0  0
M  END
$$$$
default_name
  -OEChem-01062215323D

 29 29  0     1  0  0  0  0  0999 V2000
   -3.6042   -3.5728    1.4576 H   0  0  0  0  0  0  0  0  0  0  0  0
   -3.5202   -2.6488    0.8866 C   0  0  0  0  0  0  0  0  0  0  0  0
   -4.2052   -1.9048    1.2896 H   0  0  0  0  0  0  0  0  0  0  0  0
   -3.7552   -2.8428   -0.1584 H   0  0  0  0  0  0  0  0  0  0  0  0
   -2.1052   -2.1358    0.9946 C   0  0  0  0  0  0  0  0  0  0  0  0
   -1.2852   -2.7288    1.6826 O   0  0  0  0  0  0  0  0  0  0  0  0
   -1.8202   -1.0288    0.3146 N   0  0  0  0  0  0  0  0  0  0  0  0
   -2.5542   -0.5788   -0.2104 H   0  0  0  0  0  0  0  0  0  0  0  0
   -0.5102   -0.3728    0.3086 C   0  0  1  0  0  0  0  0  0  0  0  0
    0.0719   -0.7468    1.1521 H   0  0  0  0  0  0  0  0  0  0  0  0
    0.2338   -0.7427   -0.9878 C   0  0  0  0  0  0  0  0  0  0  0  0
   -0.3749   -0.4501   -1.8452 H   0  0  0  0  0  0  0  0  0  0  0  0
    1.1692   -0.1820   -1.0335 H   0  0  0  0  0  0  0  0  0  0  0  0
    0.5506   -2.2112   -1.1039 C   0  0  0  0  0  0  0  0  0  0  0  0
    1.5363   -2.8897   -0.4198 N   0  0  0  0  0  0  0  0  0  0  0  0
    2.2262   -2.4795    0.1917 H   0  0  0  0  0  0  0  0  0  0  0  0
    1.4223   -4.1958   -0.7137 C   0  0  0  0  0  0  0  0  0  0  0  0
    2.0621   -4.9817   -0.3311 H   0  0  0  0  0  0  0  0  0  0  0  0
    0.3946   -4.3954   -1.5516 N   0  0  0  0  0  0  0  0  0  0  0  0
   -0.1646   -3.1412   -1.8102 C   0  0  0  0  0  0  0  0  0  0  0  0
   -1.0306   -2.9428   -2.4284 H   0  0  0  0  0  0  0  0  0  0  0  0
   -0.6600    1.1486    0.4782 C   0  0  0  0  0  0  0  0  0  0  0  0
   -0.4029    1.6792    1.5585 O   0  0  0  0  0  0  0  0  0  0  0  0
   -1.0913    1.8467   -0.5798 N   0  0  0  0  0  0  0  0  0  0  0  0
   -1.3329    1.3321   -1.4139 H   0  0  0  0  0  0  0  0  0  0  0  0
   -1.2823    3.2946   -0.5908 C   0  0  0  0  0  0  0  0  0  0  0  0
   -0.3359    3.7938   -0.3710 H   0  0  0  0  0  0  0  0  0  0  0  0
   -1.6398    3.6181   -1.5689 H   0  0  0  0  0  0  0  0  0  0  0  0
   -2.0104    3.5785    0.1707 H   0  0  0  0  0  0  0  0  0  0  0  0
  5  6  2  0  0  0  0
  5  7  1  0  0  0  0
  2  3  1  0  0  0  0
  2  4  1  0  0  0  0
  2  5  1  0  0  0  0
  1  2  1  0  0  0  0
 22 23  2  0  0  0  0
 22 24  1  0  0  0  0
 20 21  1  0  0  0  0
 19 20  1  0  0  0  0
 17 18  1  0  0  0  0
 17 19  2  0  0  0  0
 15 16  1  0  0  0  0
 15 17  1  0  0  0  0
 14 15  1  0  0  0  0
 14 20  2  0  0  0  0
 11 12  1  0  0  0  0
 11 13  1  0  0  0  0
 11 14  1  0  0  0  0
  9 10  1  0  0  0  0
  9 11  1  0  0  0  0
  9 22  1  0  0  0  0
  7  8  1  0  0  0  0
  7  9  1  0  0  0  0
 26 27  1  0  0  0  0
 26 28  1  0  0  0  0
 26 29  1  0  0  0  0
 24 25  1  0  0  0  0
 24 26  1  0  0  0  0
M  END
$$$$
default_name
  -OEChem-01062215323D

 29 29  0     1  0  0  0  0  0999 V2000
   -3.6042   -3.5728    1.4576 H   0  0  0  0  0  0  0  0  0  0  0  0
   -3.5202   -2.6488    0.8866 C   0  0  0  0  0  0  0  0  0  0  0  0
   -4.2052   -1.9048    1.2896 H   0  0  0  0  0  0  0  0  0  0  0  0
   -3.7552   -2.8428   -0.1584 H   0  0  0  0  0  0  0  0  0  0  0  0
   -2.1052   -2.1358    0.9946 C   0  0  0  0  0  0  0  0  0  0  0  0
   -1.2852   -2.7288    1.6826 O   0  0  0  0  0  0  0  0  0  0  0  0
   -1.8202   -1.0288    0.3146 N   0  0  0  0  0  0  0  0  0  0  0  0
   -2.5542   -0.5788   -0.2104 H   0  0  0  0  0  0  0  0  0  0  0  0
   -0.5102   -0.3728    0.3086 C   0  0  1  0  0  0  0  0  0  0  0  0
    0.0719   -0.7468    1.1521 H   0  0  0  0  0  0  0  0  0  0  0  0
    0.2338   -0.7427   -0.9878 C   0  0  0  0  0  0  0  0  0  0  0  0
   -0.3749   -0.4501   -1.8452 H   0  0  0  0  0  0  0  0  0  0  0  0
    1.1692   -0.1820   -1.0335 H   0  0  0  0  0  0  0  0  0  0  0  0
    0.5506   -2.2112   -1.1039 C   0  0  0  0  0  0  0  0  0  0  0  0
    1.5363   -2.8897   -0.4198 N   0  0  0  0  0  0  0  0  0  0  0  0
    2.2262   -2.4795    0.1917 H   0  0  0  0  0  0  0  0  0  0  0  0
    1.4223   -4.1958   -0.7137 C   0  0  0  0  0  0  0  0  0  0  0  0
    2.0621   -4.9817   -0.3311 H   0  0  0  0  0  0  0  0  0  0  0  0
    0.3946   -4.3954   -1.5516 N   0  0  0  0  0  0  0  0  0  0  0  0
   -0.1646   -3.1412   -1.8102 C   0  0  0  0  0  0  0  0  0  0  0  0
   -1.0306   -2.9428   -2.4284 H   0  0  0  0  0  0  0  0  0  0  0  0
   -0.6600    1.1486    0.4782 C   0  0  0  0  0  0  0  0  0  0  0  0
   -0.1523    1.7166    1.4449 O   0  0  0  0  0  0  0  0  0  0  0  0
   -1.3694    1.8047   -0.4486 N   0  0  0  0  0  0  0  0  0  0  0  0
   -1.7998    1.2603   -1.1816 H   0  0  0  0  0  0  0  0  0  0  0  0
   -1.6029    3.2464   -0.4414 C   0  0  0  0  0  0  0  0  0  0  0  0
   -0.6481    3.7755   -0.4823 H   0  0  0  0  0  0  0  0  0  0  0  0
   -2.2086    3.5323   -1.3018 H   0  0  0  0  0  0  0  0  0  0  0  0
   -2.1208    3.5337    0.4750 H   0  0  0  0  0  0  0  0  0  0  0  0
  5  6  2  0  0  0  0
  5  7  1  0  0  0  0
  2  3  1  0  0  0  0
  2  4  1  0  0  0  0
  2  5  1  0  0  0  0
  1  2  1  0  0  0  0
 22 23  2  0  0  0  0
 22 24  1  0  0  0  0
 20 21  1  0  0  0  0
 19 20  1  0  0  0  0
 17 18  1  0  0  0  0
 17 19  2  0  0  0  0
 15 16  1  0  0  0  0
 15 17  1  0  0  0  0
 14 15  1  0  0  0  0
 14 20  2  0  0  0  0
 11 12  1  0  0  0  0
 11 13  1  0  0  0  0
 11 14  1  0  0  0  0
  9 10  1  0  0  0  0
  9 11  1  0  0  0  0
  9 22  1  0  0  0  0
  7  8  1  0  0  0  0
  7  9  1  0  0  0  0
 26 27  1  0  0  0  0
 26 28  1  0  0  0  0
 26 29  1  0  0  0  0
 24 25  1  0  0  0  0
 24 26  1  0  0  0  0
M  END
$$$$
default_name
  -OEChem-01062215323D

 29 29  0     1  0  0  0  0  0999 V2000
   -3.6042   -3.5728    1.4576 H   0  0  0  0  0  0  0  0  0  0  0  0
   -3.5202   -2.6488    0.8866 C   0  0  0  0  0  0  0  0  0  0  0  0
   -4.2052   -1.9048    1.2896 H   0  0  0  0  0  0  0  0  0  0  0  0
   -3.7552   -2.8428   -0.1584 H   0  0  0  0  0  0  0  0  0  0  0  0
   -2.1052   -2.1358    0.9946 C   0  0  0  0  0  0  0  0  0  0  0  0
   -1.2852   -2.7288    1.6826 O   0  0  0  0  0  0  0  0  0  0  0  0
   -1.8202   -1.0288    0.3146 N   0  0  0  0  0  0  0  0  0  0  0  0
   -2.5542   -0.5788   -0.2104 H   0  0  0  0  0  0  0  0  0  0  0  0
   -0.5102   -0.3728    0.3086 C   0  0  1  0  0  0  0  0  0  0  0  0
    0.0719   -0.7468    1.1521 H   0  0  0  0  0  0  0  0  0  0  0  0
    0.2338   -0.7427   -0.9878 C   0  0  0  0  0  0  0  0  0  0  0  0
   -0.3749   -0.4501   -1.8452 H   0  0  0  0  0  0  0  0  0  0  0  0
    1.1692   -0.1820   -1.0335 H   0  0  0  0  0  0  0  0  0  0  0  0
    0.5506   -2.2112   -1.1039 C   0  0  0  0  0  0  0  0  0  0  0  0
    1.5363   -2.8897   -0.4198 N   0  0  0  0  0  0  0  0  0  0  0  0
    2.2262   -2.4795    0.1917 H   0  0  0  0  0  0  0  0  0  0  0  0
    1.4223   -4.1958   -0.7137 C   0  0  0  0  0  0  0  0  0  0  0  0
    2.0621   -4.9817   -0.3311 H   0  0  0  0  0  0  0  0  0  0  0  0
    0.3946   -4.3954   -1.5516 N   0  0  0  0  0  0  0  0  0  0  0  0
   -0.1646   -3.1412   -1.8102 C   0  0  0  0  0  0  0  0  0  0  0  0
   -1.0306   -2.9428   -2.4284 H   0  0  0  0  0  0  0  0  0  0  0  0
   -0.6600    1.1486    0.4782 C   0  0  0  0  0  0  0  0  0  0  0  0
    0.0597    1.7569    1.2700 O   0  0  0  0  0  0  0  0  0  0  0  0
   -1.6032    1.7595   -0.2496 N   0  0  0  0  0  0  0  0  0  0  0  0
   -2.1891    1.1834   -0.8359 H   0  0  0  0  0  0  0  0  0  0  0  0
   -1.8729    3.1945   -0.2137 C   0  0  0  0  0  0  0  0  0  0  0  0
   -0.9777    3.7461   -0.5094 H   0  0  0  0  0  0  0  0  0  0  0  0
   -2.6872    3.4400   -0.8960 H   0  0  0  0  0  0  0  0  0  0  0  0
   -2.1482    3.4950    0.7984 H   0  0  0  0  0  0  0  0  0  0  0  0
  5  6  2  0  0  0  0
  5  7  1  0  0  0  0
  2  3  1  0  0  0  0
  2  4  1  0  0  0  0
  2  5  1  0  0  0  0
  1  2  1  0  0  0  0
 22 23  2  0  0  0  0
 22 24  1  0  0  0  0
 20 21  1  0  0  0  0
 19 20  1  0  0  0  0
 17 18  1  0  0  0  0
 17 19  2  0  0  0  0
 15 16  1  0  0  0  0
 15 17  1  0  0  0  0
 14 15  1  0  0  0  0
 14 20  2  0  0  0  0
 11 12  1  0  0  0  0
 11 13  1  0  0  0  0
 11 14  1  0  0  0  0
  9 10  1  0  0  0  0
  9 11  1  0  0  0  0
  9 22  1  0  0  0  0
  7  8  1  0  0  0  0
  7  9  1  0  0  0  0
 26 27  1  0  0  0  0
 26 28  1  0  0  0  0
 26 29  1  0  0  0  0
 24 25  1  0  0  0  0
 24 26  1  0  0  0  0
M  END
$$$$
default_name
  -OEChem-01062215323D

 29 29  0     1  0  0  0  0  0999 V2000
   -3.6042   -3.5728    1.4576 H   0  0  0  0  0  0  0  0  0  0  0  0
   -3.5202   -2.6488    0.8866 C   0  0  0  0  0  0  0  0  0  0  0  0
   -4.2052   -1.9048    1.2896 H   0  0  0  0  0  0  0  0  0  0  0  0
   -3.7552   -2.8428   -0.1584 H   0  0  0  0  0  0  0  0  0  0  0  0
   -2.1052   -2.1358    0.9946 C   0  0  0  0  0  0  0  0  0  0  0  0
   -1.2852   -2.7288    1.6826 O   0  0  0  0  0  0  0  0  0  0  0  0
   -1.8202   -1.0288    0.3146 N   0  0  0  0  0  0  0  0  0  0  0  0
   -2.5542   -0.5788   -0.2104 H   0  0  0  0  0  0  0  0  0  0  0  0
   -0.5102   -0.3728    0.3086 C   0  0  1  0  0  0  0  0  0  0  0  0
    0.0719   -0.7468    1.1521 H   0  0  0  0  0  0  0  0  0  0  0  0
    0.2338   -0.7427   -0.9878 C   0  0  0  0  0  0  0  0  0  0  0  0
   -0.3749   -0.4501   -1.8452 H   0  0  0  0  0  0  0  0  0  0  0  0
    1.1692   -0.1820   -1.0335 H   0  0  0  0  0  0  0  0  0  0  0  0
    0.5506   -2.2112   -1.1039 C   0  0  0  0  0  0  0  0  0  0  0  0
    1.5363   -2.8897   -0.4198 N   0  0  0  0  0  0  0  0  0  0  0  0
    2.2262   -2.4795    0.1917 H   0  0  0  0  0  0  0  0  0  0  0  0
    1.4223   -4.1958   -0.7137 C   0  0  0  0  0  0  0  0  0  0  0  0
    2.0621   -4.9817   -0.3311 H   0  0  0  0  0  0  0  0  0  0  0  0
    0.3946   -4.3954   -1.5516 N   0  0  0  0  0  0  0  0  0  0  0  0
   -0.1646   -3.1412   -1.8102 C   0  0  0  0  0  0  0  0  0  0  0  0
   -1.0306   -2.9428   -2.4284 H   0  0  0  0  0  0  0  0  0  0  0  0
   -0.6600    1.1486    0.4782 C   0  0  0  0  0  0  0  0  0  0  0  0
    0.2184    1.7975    1.0458 O   0  0  0  0  0  0  0  0  0  0  0  0
   -1.7769    1.7142    0.0036 N   0  0  0  0  0  0  0  0  0  0  0  0
   -2.4746    1.1068   -0.4004 H   0  0  0  0  0  0  0  0  0  0  0  0
   -2.0739    3.1423    0.0766 C   0  0  0  0  0  0  0  0  0  0  0  0
   -1.3021    3.7076   -0.4505 H   0  0  0  0  0  0  0  0  0  0  0  0
   -3.0430    3.3474   -0.3793 H   0  0  0  0  0  0  0  0  0  0  0  0
   -2.0907    3.4649    1.1188 H   0  0  0  0  0  0  0  0  0  0  0  0
  5  6  2  0  0  0  0
  5  7  1  0  0  0  0
  2  3  1  0  0  0  0
  2  4  1  0  0  0  0
  2  5  1  0  0  0  0
  1  2  1  0  0  0  0
 22 23  2  0  0  0  0
 22 24  1  0  0  0  0
 20 21  1  0  0  0  0
 19 20  1  0  0  0  0
 17 18  1  0  0  0  0
 17 19  2  0  0  0  0
 15 16  1  0  0  0  0
 15 17  1  0  0  0  0
 14 15  1  0  0  0  0
 14 20  2  0  0  0  0
 11 12  1  0  0  0  0
 11 13  1  0  0  0  0
 11 14  1  0  0  0  0
  9 10  1  0  0  0  0
  9 11  1  0  0  0  0
  9 22  1  0  0  0  0
  7  8  1  0  0  0  0
  7  9  1  0  0  0  0
 26 27  1  0  0  0  0
 26 28  1  0  0  0  0
 26 29  1  0  0  0  0
 24 25  1  0  0  0  0
 24 26  1  0  0  0  0
M  END
$$$$
default_name
  -OEChem-01062215323D

 29 29  0     1  0  0  0  0  0999 V2000
   -3.6042   -3.5728    1.4576 H   0  0  0  0  0  0  0  0  0  0  0  0
   -3.5202   -2.6488    0.8866 C   0  0  0  0  0  0  0  0  0  0  0  0
   -4.2052   -1.9048    1.2896 H   0  0  0  0  0  0  0  0  0  0  0  0
   -3.7552   -2.8428   -0.1584 H   0  0  0  0  0  0  0  0  0  0  0  0
   -2.1052   -2.1358    0.9946 C   0  0  0  0  0  0  0  0  0  0  0  0
   -1.2852   -2.7288    1.6826 O   0  0  0  0  0  0  0  0  0  0  0  0
   -1.8202   -1.0288    0.3146 N   0  0  0  0  0  0  0  0  0  0  0  0
   -2.5542   -0.5788   -0.2104 H   0  0  0  0  0  0  0  0  0  0  0  0
   -0.5102   -0.3728    0.3086 C   0  0  1  0  0  0  0  0  0  0  0  0
    0.0719   -0.7468    1.1521 H   0  0  0  0  0  0  0  0  0  0  0  0
    0.2338   -0.7427   -0.9878 C   0  0  0  0  0  0  0  0  0  0  0  0
   -0.3749   -0.4501   -1.8452 H   0  0  0  0  0  0  0  0  0  0  0  0
    1.1692   -0.1820   -1.0335 H   0  0  0  0  0  0  0  0  0  0  0  0
    0.5506   -2.2112   -1.1039 C   0  0  0  0  0  0  0  0  0  0  0  0
    1.5363   -2.8897   -0.4198 N   0  0  0  0  0  0  0  0  0  0  0  0
    2.2262   -2.4795    0.1917 H   0  0  0  0  0  0  0  0  0  0  0  0
    1.4223   -4.1958   -0.7137 C   0  0  0  0  0  0  0  0  0  0  0  0
    2.0621   -4.9817   -0.3311 H   0  0  0  0  0  0  0  0  0  0  0  0
    0.3946   -4.3954   -1.5516 N   0  0  0  0  0  0  0  0  0  0  0  0
   -0.1646   -3.1412   -1.8102 C   0  0  0  0  0  0  0  0  0  0  0  0
   -1.0306   -2.9428   -2.4284 H   0  0  0  0  0  0  0  0  0  0  0  0
   -0.6600    1.1486    0.4782 C   0  0  0  0  0  0  0  0  0  0  0  0
    0.3132    1.8357    0.7875 O   0  0  0  0  0  0  0  0  0  0  0  0
   -1.8785    1.6718    0.2938 N   0  0  0  0  0  0  0  0  0  0  0  0
   -2.6366    1.0356    0.0953 H   0  0  0  0  0  0  0  0  0  0  0  0
   -2.1923    3.0935    0.4098 C   0  0  0  0  0  0  0  0  0  0  0  0
   -1.5992    3.6626   -0.3096 H   0  0  0  0  0  0  0  0  0  0  0  0
   -3.2517    3.2608    0.2133 H   0  0  0  0  0  0  0  0  0  0  0  0
   -1.9524    3.4456    1.4143 H   0  0  0  0  0  0  0  0  0  0  0  0
  5  6  2  0  0  0  0
  5  7  1  0  0  0  0
  2  3  1  0  0  0  0
  2  4  1  0  0  0  0
  2  5  1  0  0  0  0
  1  2  1  0  0  0  0
 22 23  2  0  0  0  0
 22 24  1  0  0  0  0
 20 21  1  0  0  0  0
 19 20  1  0  0  0  0
 17 18  1  0  0  0  0
 17 19  2  0  0  0  0
 15 16  1  0  0  0  0
 15 17  1  0  0  0  0
 14 15  1  0  0  0  0
 14 20  2  0  0  0  0
 11 12  1  0  0  0  0
 11 13  1  0  0  0  0
 11 14  1  0  0  0  0
  9 10  1  0  0  0  0
  9 11  1  0  0  0  0
  9 22  1  0  0  0  0
  7  8  1  0  0  0  0
  7  9  1  0  0  0  0
 26 27  1  0  0  0  0
 26 28  1  0  0  0  0
 26 29  1  0  0  0  0
 24 25  1  0  0  0  0
 24 26  1  0  0  0  0
M  END
$$$$
default_name
  -OEChem-01062215323D

 29 29  0     1  0  0  0  0  0999 V2000
   -3.6042   -3.5728    1.4576 H   0  0  0  0  0  0  0  0  0  0  0  0
   -3.5202   -2.6488    0.8866 C   0  0  0  0  0  0  0  0  0  0  0  0
   -4.2052   -1.9048    1.2896 H   0  0  0  0  0  0  0  0  0  0  0  0
   -3.7552   -2.8428   -0.1584 H   0  0  0  0  0  0  0  0  0  0  0  0
   -2.1052   -2.1358    0.9946 C   0  0  0  0  0  0  0  0  0  0  0  0
   -1.2852   -2.7288    1.6826 O   0  0  0  0  0  0  0  0  0  0  0  0
   -1.8202   -1.0288    0.3146 N   0  0  0  0  0  0  0  0  0  0  0  0
   -2.5542   -0.5788   -0.2104 H   0  0  0  0  0  0  0  0  0  0  0  0
   -0.5102   -0.3728    0.3086 C   0  0  1  0  0  0  0  0  0  0  0  0
    0.0719   -0.7468    1.1521 H   0  0  0  0  0  0  0  0  0  0  0  0
    0.2338   -0.7427   -0.9878 C   0  0  0  0  0  0  0  0  0  0  0  0
   -0.3749   -0.4501   -1.8452 H   0  0  0  0  0  0  0  0  0  0  0  0
    1.1692   -0.1820   -1.0335 H   0  0  0  0  0  0  0  0  0  0  0  0
    0.5506   -2.2112   -1.1039 C   0  0  0  0  0  0  0  0  0  0  0  0
    1.5363   -2.8897   -0.4198 N   0  0  0  0  0  0  0  0  0  0  0  0
    2.2262   -2.4795    0.1917 H   0  0  0  0  0  0  0  0  0  0  0  0
    1.4223   -4.1958   -0.7137 C   0  0  0  0  0  0  0  0  0  0  0  0
    2.0621   -4.9817   -0.3311 H   0  0  0  0  0  0  0  0  0  0  0  0
    0.3946   -4.3954   -1.5516 N   0  0  0  0  0  0  0  0  0  0  0  0
   -0.1646   -3.1412   -1.8102 C   0  0  0  0  0  0  0  0  0  0  0  0
   -1.0306   -2.9428   -2.4284 H   0  0  0  0  0  0  0  0  0  0  0  0
   -0.6600    1.1486    0.4782 C   0  0  0  0  0  0  0  0  0  0  0  0
    0.3376    1.8687    0.5129 O   0  0  0  0  0  0  0  0  0  0  0  0
   -1.9011    1.6353    0.6011 N   0  0  0  0  0  0  0  0  0  0  0  0
   -2.6642    0.9747    0.6174 H   0  0  0  0  0  0  0  0  0  0  0  0
   -2.2200    3.0514    0.7632 C   0  0  0  0  0  0  0  0  0  0  0  0
   -1.8489    3.6143   -0.0963 H   0  0  0  0  0  0  0  0  0  0  0  0
   -3.2992    3.1861    0.8413 H   0  0  0  0  0  0  0  0  0  0  0  0
   -1.7425    3.4383    1.6648 H   0  0  0  0  0  0  0  0  0  0  0  0
  5  6  2  0  0  0  0
  5  7  1  0  0  0  0
  2  3  1  0  0  0  0
  2  4  1  0  0  0  0
  2  5  1  0  0  0  0
  1  2  1  0  0  0  0
 22 23  2  0  0  0  0
 22 24  1  0  0  0  0
 20 21  1  0  0  0  0
 19 20  1  0  0  0  0
 17 18  1  0  0  0  0
 17 19  2  0  0  0  0
 15 16  1  0  0  0  0
 15 17  1  0  0  0  0
 14 15  1  0  0  0  0
 14 20  2  0  0  0  0
 11 12  1  0  0  0  0
 11 13  1  0  0  0  0
 11 14  1  0  0  0  0
  9 10  1  0  0  0  0
  9 11  1  0  0  0  0
  9 22  1  0  0  0  0
  7  8  1  0  0  0  0
  7  9  1  0  0  0  0
 26 27  1  0  0  0  0
 26 28  1  0  0  0  0
 26 29  1  0  0  0  0
 24 25  1  0  0  0  0
 24 26  1  0  0  0  0
M  END
$$$$
default_name
  -OEChem-01062215323D

 29 29  0     1  0  0  0  0  0999 V2000
   -3.6042   -3.5728    1.4576 H   0  0  0  0  0  0  0  0  0  0  0  0
   -3.5202   -2.6488    0.8866 C   0  0  0  0  0  0  0  0  0  0  0  0
   -4.2052   -1.9048    1.2896 H   0  0  0  0  0  0  0  0  0  0  0  0
   -3.7552   -2.8428   -0.1584 H   0  0  0  0  0  0  0  0  0  0  0  0
   -2.1052   -2.1358    0.9946 C   0  0  0  0  0  0  0  0  0  0  0  0
   -1.2852   -2.7288    1.6826 O   0  0  0  0  0  0  0  0  0  0  0  0
   -1.8202   -1.0288    0.3146 N   0  0  0  0  0  0  0  0  0  0  0  0
   -2.5542   -0.5788   -0.2104 H   0  0  0  0  0  0  0  0  0  0  0  0
   -0.5102   -0.3728    0.3086 C   0  0  1  0  0  0  0  0  0  0  0  0
    0.0719   -0.7468    1.1521 H   0  0  0  0  0  0  0  0  0  0  0  0
    0.2338   -0.7427   -0.9878 C   0  0  0  0  0  0  0  0  0  0  0  0
   -0.3749   -0.4501   -1.8452 H   0  0  0  0  0  0  0  0  0  0  0  0
    1.1692   -0.1820   -1.0335 H   0  0  0  0  0  0  0  0  0  0  0  0
    0.5506   -2.2112   -1.1039 C   0  0  0  0  0  0  0  0  0  0  0  0
    1.5363   -2.8897   -0.4198 N   0  0  0  0  0  0  0  0  0  0  0  0
    2.2262   -2.4795    0.1917 H   0  0  0  0  0  0  0  0  0  0  0  0
    1.4223   -4.1958   -0.7137 C   0  0  0  0  0  0  0  0  0  0  0  0
    2.0621   -4.9817   -0.3311 H   0  0  0  0  0  0  0  0  0  0  0  0
    0.3946   -4.3954   -1.5516 N   0  0  0  0  0  0  0  0  0  0  0  0
   -0.1646   -3.1412   -1.8102 C   0  0  0  0  0  0  0  0  0  0  0  0
   -1.0306   -2.9428   -2.4284 H   0  0  0  0  0  0  0  0  0  0  0  0
   -0.6600    1.1486    0.4782 C   0  0  0  0  0  0  0  0  0  0  0  0
    0.2899    1.8943    0.2405 O   0  0  0  0  0  0  0  0  0  0  0  0
   -1.8433    1.6072    0.9048 N   0  0  0  0  0  0  0  0  0  0  0  0
   -2.5554    0.9282    1.1302 H   0  0  0  0  0  0  0  0  0  0  0  0
   -2.1550    3.0188    1.1127 C   0  0  0  0  0  0  0  0  0  0  0  0
   -2.0341    3.5658    0.1749 H   0  0  0  0  0  0  0  0  0  0  0  0
   -3.1821    3.1284    1.4620 H   0  0  0  0  0  0  0  0  0  0  0  0
   -1.4755    3.4436    1.8532 H   0  0  0  0  0  0  0  0  0  0  0  0
  5  6  2  0  0  0  0
  5  7  1  0  0  0  0
  2  3  1  0  0  0  0
  2  4  1  0  0  0  0
  2  5  1  0  0  0  0
  1  2  1  0  0  0  0
 22 23  2  0  0  0  0
 22 24  1  0  0  0  0
 20 21  1  0  0  0  0
 19 20  1  0  0  0  0
 17 18  1  0  0  0  0
 17 19  2  0  0  0  0
 15 16  1  0  0  0  0
 15 17  1  0  0  0  0
 14 15  1  0  0  0  0
 14 20  2  0  0  0  0
 11 12  1  0  0  0  0
 11 13  1  0  0  0  0
 11 14  1  0  0  0  0
  9 10  1  0  0  0  0
  9 11  1  0  0  0  0
  9 22  1  0  0  0  0
  7  8  1  0  0  0  0
  7  9  1  0  0  0  0
 26 27  1  0  0  0  0
 26 28  1  0  0  0  0
 26 29  1  0  0  0  0
 24 25  1  0  0  0  0
 24 26  1  0  0  0  0
M  END
$$$$
default_name
  -OEChem-01062215323D

 29 29  0     1  0  0  0  0  0999 V2000
   -3.6042   -3.5728    1.4576 H   0  0  0  0  0  0  0  0  0  0  0  0
   -3.5202   -2.6488    0.8866 C   0  0  0  0  0  0  0  0  0  0  0  0
   -4.2052   -1.9048    1.2896 H   0  0  0  0  0  0  0  0  0  0  0  0
   -3.7552   -2.8428   -0.1584 H   0  0  0  0  0  0  0  0  0  0  0  0
   -2.1052   -2.1358    0.9946 C   0  0  0  0  0  0  0  0  0  0  0  0
   -1.2852   -2.7288    1.6826 O   0  0  0  0  0  0  0  0  0  0  0  0
   -1.8202   -1.0288    0.3146 N   0  0  0  0  0  0  0  0  0  0  0  0
   -2.5542   -0.5788   -0.2104 H   0  0  0  0  0  0  0  0  0  0  0  0
   -0.5102   -0.3728    0.3086 C   0  0  1  0  0  0  0  0  0  0  0  0
    0.0719   -0.7468    1.1521 H   0  0  0  0  0  0  0  0  0  0  0  0
    0.2338   -0.7427   -0.9878 C   0  0  0  0  0  0  0  0  0  0  0  0
   -0.3749   -0.4501   -1.8452 H   0  0  0  0  0  0  0  0  0  0  0  0
    1.1692   -0.1820   -1.0335 H   0  0  0  0  0  0  0  0  0  0  0  0
    0.5506   -2.2112   -1.1039 C   0  0  0  0  0  0  0  0  0  0  0  0
    1.5363   -2.8897   -0.4198 N   0  0  0  0  0  0  0  0  0  0  0  0
    2.2262   -2.4795    0.1917 H   0  0  0  0  0  0  0  0  0  0  0  0
    1.4223   -4.1958   -0.7137 C   0  0  0  0  0  0  0  0  0  0  0  0
    2.0621   -4.9817   -0.3311 H   0  0  0  0  0  0  0  0  0  0  0  0
    0.3946   -4.3954   -1.5516 N   0  0  0  0  0  0  0  0  0  0  0  0
   -0.1646   -3.1412   -1.8102 C   0  0  0  0  0  0  0  0  0  0  0  0
   -1.0306   -2.9428   -2.4284 H   0  0  0  0  0  0  0  0  0  0  0  0
   -0.6600    1.1486    0.4782 C   0  0  0  0  0  0  0  0  0  0  0  0
    0.1733    1.9109   -0.0110 O   0  0  0  0  0  0  0  0  0  0  0  0
   -1.7089    1.5893    1.1839 N   0  0  0  0  0  0  0  0  0  0  0  0
   -2.3177    0.8993    1.5990 H   0  0  0  0  0  0  0  0  0  0  0  0
   -2.0019    2.9980    1.4344 C   0  0  0  0  0  0  0  0  0  0  0  0
   -2.1421    3.5206    0.4855 H   0  0  0  0  0  0  0  0  0  0  0  0
   -2.9085    3.0917    2.0329 H   0  0  0  0  0  0  0  0  0  0  0  0
   -1.1695    3.4610    1.9668 H   0  0  0  0  0  0  0  0  0  0  0  0
  5  6  2  0  0  0  0
  5  7  1  0  0  0  0
  2  3  1  0  0  0  0
  2  4  1  0  0  0  0
  2  5  1  0  0  0  0
  1  2  1  0  0  0  0
 22 23  2  0  0  0  0
 22 24  1  0  0  0  0
 20 21  1  0  0  0  0
 19 20  1  0  0  0  0
 17 18  1  0  0  0  0
 17 19  2  0  0  0  0
 15 16  1  0  0  0  0
 15 17  1  0  0  0  0
 14 15  1  0  0  0  0
 14 20  2  0  0  0  0
 11 12  1  0  0  0  0
 11 13  1  0  0  0  0
 11 14  1  0  0  0  0
  9 10  1  0  0  0  0
  9 11  1  0  0  0  0
  9 22  1  0  0  0  0
  7  8  1  0  0  0  0
  7  9  1  0  0  0  0
 26 27  1  0  0  0  0
 26 28  1  0  0  0  0
 26 29  1  0  0  0  0
 24 25  1  0  0  0  0
 24 26  1  0  0  0  0
M  END
$$$$
default_name
  -OEChem-01062215323D

 29 29  0     1  0  0  0  0  0999 V2000
   -3.6042   -3.5728    1.4576 H   0  0  0  0  0  0  0  0  0  0  0  0
   -3.5202   -2.6488    0.8866 C   0  0  0  0  0  0  0  0  0  0  0  0
   -4.2052   -1.9048    1.2896 H   0  0  0  0  0  0  0  0  0  0  0  0
   -3.7552   -2.8428   -0.1584 H   0  0  0  0  0  0  0  0  0  0  0  0
   -2.1052   -2.1358    0.9946 C   0  0  0  0  0  0  0  0  0  0  0  0
   -1.2852   -2.7288    1.6826 O   0  0  0  0  0  0  0  0  0  0  0  0
   -1.8202   -1.0288    0.3146 N   0  0  0  0  0  0  0  0  0  0  0  0
   -2.5542   -0.5788   -0.2104 H   0  0  0  0  0  0  0  0  0  0  0  0
   -0.5102   -0.3728    0.3086 C   0  0  1  0  0  0  0  0  0  0  0  0
    0.0719   -0.7468    1.1521 H   0  0  0  0  0  0  0  0  0  0  0  0
    0.2338   -0.7427   -0.9878 C   0  0  0  0  0  0  0  0  0  0  0  0
   -0.3749   -0.4501   -1.8452 H   0  0  0  0  0  0  0  0  0  0  0  0
    1.1692   -0.1820   -1.0335 H   0  0  0  0  0  0  0  0  0  0  0  0
    0.5506   -2.2112   -1.1039 C   0  0  0  0  0  0  0  0  0  0  0  0
    1.5363   -2.8897   -0.4198 N   0  0  0  0  0  0  0  0  0  0  0  0
    2.2262   -2.4795    0.1917 H   0  0  0  0  0  0  0  0  0  0  0  0
    1.4223   -4.1958   -0.7137 C   0  0  0  0  0  0  0  0  0  0  0  0
    2.0621   -4.9817   -0.3311 H   0  0  0  0  0  0  0  0  0  0  0  0
    0.3946   -4.3954   -1.5516 N   0  0  0  0  0  0  0  0  0  0  0  0
   -0.1646   -3.1412   -1.8102 C   0  0  0  0  0  0  0  0  0  0  0  0
   -1.0306   -2.9428   -2.4284 H   0  0  0  0  0  0  0  0  0  0  0  0
   -0.6600    1.1486    0.4782 C   0  0  0  0  0  0  0  0  0  0  0  0
   -0.0041    1.9173   -0.2246 O   0  0  0  0  0  0  0  0  0  0  0  0
   -1.5071    1.5829    1.4196 N   0  0  0  0  0  0  0  0  0  0  0  0
   -1.9673    0.8900    1.9916 H   0  0  0  0  0  0  0  0  0  0  0  0
   -1.7710    2.9904    1.7065 C   0  0  0  0  0  0  0  0  0  0  0  0
   -2.1657    3.4816    0.8143 H   0  0  0  0  0  0  0  0  0  0  0  0
   -2.4970    3.0784    2.5153 H   0  0  0  0  0  0  0  0  0  0  0  0
   -0.8454    3.4895    1.9976 H   0  0  0  0  0  0  0  0  0  0  0  0
  5  6  2  0  0  0  0
  5  7  1  0  0  0  0
  2  3  1  0  0  0  0
  2  4  1  0  0  0  0
  2  5  1  0  0  0  0
  1  2  1  0  0  0  0
 22 23  2  0  0  0  0
 22 24  1  0  0  0  0
 20 21  1  0  0  0  0
 19 20  1  0  0  0  0
 17 18  1  0  0  0  0
 17 19  2  0  0  0  0
 15 16  1  0  0  0  0
 15 17  1  0  0  0  0
 14 15  1  0  0  0  0
 14 20  2  0  0  0  0
 11 12  1  0  0  0  0
 11 13  1  0  0  0  0
 11 14  1  0  0  0  0
  9 10  1  0  0  0  0
  9 11  1  0  0  0  0
  9 22  1  0  0  0  0
  7  8  1  0  0  0  0
  7  9  1  0  0  0  0
 26 27  1  0  0  0  0
 26 28  1  0  0  0  0
 26 29  1  0  0  0  0
 24 25  1  0  0  0  0
 24 26  1  0  0  0  0
M  END
$$$$
default_name
  -OEChem-01062215323D

 29 29  0     1  0  0  0  0  0999 V2000
   -3.6042   -3.5728    1.4576 H   0  0  0  0  0  0  0  0  0  0  0  0
   -3.5202   -2.6488    0.8866 C   0  0  0  0  0  0  0  0  0  0  0  0
   -4.2052   -1.9048    1.2896 H   0  0  0  0  0  0  0  0  0  0  0  0
   -3.7552   -2.8428   -0.1584 H   0  0  0  0  0  0  0  0  0  0  0  0
   -2.1052   -2.1358    0.9946 C   0  0  0  0  0  0  0  0  0  0  0  0
   -1.2852   -2.7288    1.6826 O   0  0  0  0  0  0  0  0  0  0  0  0
   -1.8202   -1.0288    0.3146 N   0  0  0  0  0  0  0  0  0  0  0  0
   -2.5542   -0.5788   -0.2104 H   0  0  0  0  0  0  0  0  0  0  0  0
   -0.5102   -0.3728    0.3086 C   0  0  1  0  0  0  0  0  0  0  0  0
    0.0719   -0.7468    1.1521 H   0  0  0  0  0  0  0  0  0  0  0  0
    0.2338   -0.7427   -0.9878 C   0  0  0  0  0  0  0  0  0  0  0  0
   -0.3749   -0.4501   -1.8452 H   0  0  0  0  0  0  0  0  0  0  0  0
    1.1692   -0.1820   -1.0335 H   0  0  0  0  0  0  0  0  0  0  0  0
    0.5506   -2.2112   -1.1039 C   0  0  0  0  0  0  0  0  0  0  0  0
    1.5363   -2.8897   -0.4198 N   0  0  0  0  0  0  0  0  0  0  0  0
    2.2262   -2.4795    0.1917 H   0  0  0  0  0  0  0  0  0  0  0  0
    1.4223   -4.1958   -0.7137 C   0  0  0  0  0  0  0  0  0  0  0  0
    2.0621   -4.9817   -0.3311 H   0  0  0  0  0  0  0  0  0  0  0  0
    0.3946   -4.3954   -1.5516 N   0  0  0  0  0  0  0  0  0  0  0  0
   -0.1646   -3.1412   -1.8102 C   0  0  0  0  0  0  0  0  0  0  0  0
   -1.0306   -2.9428   -2.4284 H   0  0  0  0  0  0  0  0  0  0  0  0
   -0.6600    1.1486    0.4782 C   0  0  0  0  0  0  0  0  0  0  0  0
   -0.2303    1.9129   -0.3855 O   0  0  0  0  0  0  0  0  0  0  0  0
   -1.2517    1.5884    1.5958 N   0  0  0  0  0  0  0  0  0  0  0  0
   -1.5281    0.9009    2.2814 H   0  0  0  0  0  0  0  0  0  0  0  0
   -1.4781    2.9965    1.9105 C   0  0  0  0  0  0  0  0  0  0  0  0
   -2.1032    3.4516    1.1389 H   0  0  0  0  0  0  0  0  0  0  0  0
   -1.9756    3.0895    2.8763 H   0  0  0  0  0  0  0  0  0  0  0  0
   -0.5252    3.5270    1.9437 H   0  0  0  0  0  0  0  0  0  0  0  0
  5  6  2  0  0  0  0
  5  7  1  0  0  0  0
  2  3  1  0  0  0  0
  2  4  1  0  0  0  0
  2  5  1  0  0  0  0
  1  2  1  0  0  0  0
 22 23  2  0  0  0  0
 22 24  1  0  0  0  0
 20 21  1  0  0  0  0
 19 20  1  0  0  0  0
 17 18  1  0  0  0  0
 17 19  2  0  0  0  0
 15 16  1  0  0  0  0
 15 17  1  0  0  0  0
 14 15  1  0  0  0  0
 14 20  2  0  0  0  0
 11 12  1  0  0  0  0
 11 13  1  0  0  0  0
 11 14  1  0  0  0  0
  9 10  1  0  0  0  0
  9 11  1  0  0  0  0
  9 22  1  0  0  0  0
  7  8  1  0  0  0  0
  7  9  1  0  0  0  0
 26 27  1  0  0  0  0
 26 28  1  0  0  0  0
 26 29  1  0  0  0  0
 24 25  1  0  0  0  0
 24 26  1  0  0  0  0
M  END
$$$$
default_name
  -OEChem-01062215323D

 29 29  0     1  0  0  0  0  0999 V2000
   -3.6042   -3.5728    1.4576 H   0  0  0  0  0  0  0  0  0  0  0  0
   -3.5202   -2.6488    0.8866 C   0  0  0  0  0  0  0  0  0  0  0  0
   -4.2052   -1.9048    1.2896 H   0  0  0  0  0  0  0  0  0  0  0  0
   -3.7552   -2.8428   -0.1584 H   0  0  0  0  0  0  0  0  0  0  0  0
   -2.1052   -2.1358    0.9946 C   0  0  0  0  0  0  0  0  0  0  0  0
   -1.2852   -2.7288    1.6826 O   0  0  0  0  0  0  0  0  0  0  0  0
   -1.8202   -1.0288    0.3146 N   0  0  0  0  0  0  0  0  0  0  0  0
   -2.5542   -0.5788   -0.2104 H   0  0  0  0  0  0  0  0  0  0  0  0
   -0.5102   -0.3728    0.3086 C   0  0  1  0  0  0  0  0  0  0  0  0
    0.0719   -0.7468    1.1521 H   0  0  0  0  0  0  0  0  0  0  0  0
    0.2338   -0.7427   -0.9878 C   0  0  0  0  0  0  0  0  0  0  0  0
   -0.3749   -0.4501   -1.8452 H   0  0  0  0  0  0  0  0  0  0  0  0
    1.1692   -0.1820   -1.0335 H   0  0  0  0  0  0  0  0  0  0  0  0
    0.5506   -2.2112   -1.1039 C   0  0  0  0  0  0  0  0  0  0  0  0
    1.5363   -2.8897   -0.4198 N   0  0  0  0  0  0  0  0  0  0  0  0
    2.2262   -2.4795    0.1917 H   0  0  0  0  0  0  0  0  0  0  0  0
    1.4223   -4.1958   -0.7137 C   0  0  0  0  0  0  0  0  0  0  0  0
    2.0621   -4.9817   -0.3311 H   0  0  0  0  0  0  0  0  0  0  0  0
    0.3946   -4.3954   -1.5516 N   0  0  0  0  0  0  0  0  0  0  0  0
   -0.1646   -3.1412   -1.8102 C   0  0  0  0  0  0  0  0  0  0  0  0
   -1.0306   -2.9428   -2.4284 H   0  0  0  0  0  0  0  0  0  0  0  0
   -0.6600    1.1486    0.4782 C   0  0  0  0  0  0  0  0  0  0  0  0
   -0.4900    1.8983   -0.4830 O   0  0  0  0  0  0  0  0  0  0  0  0
   -0.9600    1.6054    1.7004 N   0  0  0  0  0  0  0  0  0  0  0  0
   -1.0300    0.9313    2.4486 H   0  0  0  0  0  0  0  0  0  0  0  0
   -1.1431    3.0159    2.0323 C   0  0  0  0  0  0  0  0  0  0  0  0
   -1.9589    3.4325    1.4372 H   0  0  0  0  0  0  0  0  0  0  0  0
   -1.3799    3.1242    3.0912 H   0  0  0  0  0  0  0  0  0  0  0  0
   -0.2307    3.5710    1.8088 H   0  0  0  0  0  0  0  0  0  0  0  0
  5  6  2  0  0  0  0
  5  7  1  0  0  0  0
  2  3  1  0  0  0  0
  2  4  1  0  0  0  0
  2  5  1  0  0  0  0
  1  2  1  0  0  0  0
 22 23  2  0  0  0  0
 22 24  1  0  0  0  0
 20 21  1  0  0  0  0
 19 20  1  0  0  0  0
 17 18  1  0  0  0  0
 17 19  2  0  0  0  0
 15 16  1  0  0  0  0
 15 17  1  0  0  0  0
 14 15  1  0  0  0  0
 14 20  2  0  0  0  0
 11 12  1  0  0  0  0
 11 13  1  0  0  0  0
 11 14  1  0  0  0  0
  9 10  1  0  0  0  0
  9 11  1  0  0  0  0
  9 22  1  0  0  0  0
  7  8  1  0  0  0  0
  7  9  1  0  0  0  0
 26 27  1  0  0  0  0
 26 28  1  0  0  0  0
 26 29  1  0  0  0  0
 24 25  1  0  0  0  0
 24 26  1  0  0  0  0
M  END
$$$$
default_name
  -OEChem-01062215323D

 29 29  0     1  0  0  0  0  0999 V2000
   -3.6042   -3.5728    1.4576 H   0  0  0  0  0  0  0  0  0  0  0  0
   -3.5202   -2.6488    0.8866 C   0  0  0  0  0  0  0  0  0  0  0  0
   -4.2052   -1.9048    1.2896 H   0  0  0  0  0  0  0  0  0  0  0  0
   -3.7552   -2.8428   -0.1584 H   0  0  0  0  0  0  0  0  0  0  0  0
   -2.1052   -2.1358    0.9946 C   0  0  0  0  0  0  0  0  0  0  0  0
   -1.2852   -2.7288    1.6826 O   0  0  0  0  0  0  0  0  0  0  0  0
   -1.8202   -1.0288    0.3146 N   0  0  0  0  0  0  0  0  0  0  0  0
   -2.5542   -0.5788   -0.2104 H   0  0  0  0  0  0  0  0  0  0  0  0
   -0.5102   -0.3728    0.3086 C   0  0  1  0  0  0  0  0  0  0  0  0
    0.0719   -0.7468    1.1521 H   0  0  0  0  0  0  0  0  0  0  0  0
    0.2338   -0.7427   -0.9878 C   0  0  0  0  0  0  0  0  0  0  0  0
   -0.3749   -0.4501   -1.8452 H   0  0  0  0  0  0  0  0  0  0  0  0
    1.1692   -0.1820   -1.0335 H   0  0  0  0  0  0  0  0  0  0  0  0
    0.5506   -2.2112   -1.1039 C   0  0  0  0  0  0  0  0  0  0  0  0
    1.5363   -2.8897   -0.4198 N   0  0  0  0  0  0  0  0  0  0  0  0
    2.2262   -2.4795    0.1917 H   0  0  0  0  0  0  0  0  0  0  0  0
    1.4223   -4.1958   -0.7137 C   0  0  0  0  0  0  0  0  0  0  0  0
    2.0621   -4.9817   -0.3311 H   0  0  0  0  0  0  0  0  0  0  0  0
    0.3946   -4.3954   -1.5516 N   0  0  0  0  0  0  0  0  0  0  0  0
   -0.1646   -3.1412   -1.8102 C   0  0  0  0  0  0  0  0  0  0  0  0
   -1.0306   -2.9428   -2.4284 H   0  0  0  0  0  0  0  0  0  0  0  0
   -0.6600    1.1486    0.4782 C   0  0  0  0  0  0  0  0  0  0  0  0
   -0.7653    1.8742   -0.5104 O   0  0  0  0  0  0  0  0  0  0  0  0
   -0.6519    1.6328    1.7264 N   0  0  0  0  0  0  0  0  0  0  0  0
   -0.5068    0.9791    2.4818 H   0  0  0  0  0  0  0  0  0  0  0  0
   -0.7889    3.0472    2.0638 C   0  0  0  0  0  0  0  0  0  0  0  0
   -1.7425    3.4257    1.6889 H   0  0  0  0  0  0  0  0  0  0  0  0
   -0.7505    3.1800    3.1454 H   0  0  0  0  0  0  0  0  0  0  0  0
    0.0178    3.6185    1.6019 H   0  0  0  0  0  0  0  0  0  0  0  0
  5  6  2  0  0  0  0
  5  7  1  0  0  0  0
  2  3  1  0  0  0  0
  2  4  1  0  0  0  0
  2  5  1  0  0  0  0
  1  2  1  0  0  0  0
 22 23  2  0  0  0  0
 22 24  1  0  0  0  0
 20 21  1  0  0  0  0
 19 20  1  0  0  0  0
 17 18  1  0  0  0  0
 17 19  2  0  0  0  0
 15 16  1  0  0  0  0
 15 17  1  0  0  0  0
 14 15  1  0  0  0  0
 14 20  2  0  0  0  0
 11 12  1  0  0  0  0
 11 13  1  0  0  0  0
 11 14  1  0  0  0  0
  9 10  1  0  0  0  0
  9 11  1  0  0  0  0
  9 22  1  0  0  0  0
  7  8  1  0  0  0  0
  7  9  1  0  0  0  0
 26 27  1  0  0  0  0
 26 28  1  0  0  0  0
 26 29  1  0  0  0  0
 24 25  1  0  0  0  0
 24 26  1  0  0  0  0
M  END
$$$$
default_name
  -OEChem-01062215323D

 29 29  0     1  0  0  0  0  0999 V2000
   -3.6042   -3.5728    1.4576 H   0  0  0  0  0  0  0  0  0  0  0  0
   -3.5202   -2.6488    0.8866 C   0  0  0  0  0  0  0  0  0  0  0  0
   -4.2052   -1.9048    1.2896 H   0  0  0  0  0  0  0  0  0  0  0  0
   -3.7552   -2.8428   -0.1584 H   0  0  0  0  0  0  0  0  0  0  0  0
   -2.1052   -2.1358    0.9946 C   0  0  0  0  0  0  0  0  0  0  0  0
   -1.2852   -2.7288    1.6826 O   0  0  0  0  0  0  0  0  0  0  0  0
   -1.8202   -1.0288    0.3146 N   0  0  0  0  0  0  0  0  0  0  0  0
   -2.5542   -0.5788   -0.2104 H   0  0  0  0  0  0  0  0  0  0  0  0
   -0.5102   -0.3728    0.3086 C   0  0  1  0  0  0  0  0  0  0  0  0
    0.0719   -0.7468    1.1521 H   0  0  0  0  0  0  0  0  0  0  0  0
    0.2338   -0.7427   -0.9878 C   0  0  0  0  0  0  0  0  0  0  0  0
   -0.3749   -0.4501   -1.8452 H   0  0  0  0  0  0  0  0  0  0  0  0
    1.1692   -0.1820   -1.0335 H   0  0  0  0  0  0  0  0  0  0  0  0
    0.5506   -2.2112   -1.1039 C   0  0  0  0  0  0  0  0  0  0  0  0
    1.5363   -2.8897   -0.4198 N   0  0  0  0  0  0  0  0  0  0  0  0
    2.2262   -2.4795    0.1917 H   0  0  0  0  0  0  0  0  0  0  0  0
    1.4223   -4.1958   -0.7137 C   0  0  0  0  0  0  0  0  0  0  0  0
    2.0621   -4.9817   -0.3311 H   0  0  0  0  0  0  0  0  0  0  0  0
    0.3946   -4.3954   -1.5516 N   0  0  0  0  0  0  0  0  0  0  0  0
   -0.1646   -3.1412   -1.8102 C   0  0  0  0  0  0  0  0  0  0  0  0
   -1.0306   -2.9428   -2.4284 H   0  0  0  0  0  0  0  0  0  0  0  0
   -0.6600    1.1486    0.4782 C   0  0  0  0  0  0  0  0  0  0  0  0
   -1.0375    1.8424   -0.4657 O   0  0  0  0  0  0  0  0  0  0  0  0
   -0.3485    1.6687    1.6719 N   0  0  0  0  0  0  0  0  0  0  0  0
    0.0056    1.0410    2.3787 H   0  0  0  0  0  0  0  0  0  0  0  0
   -0.4396    3.0884    2.0027 C   0  0  0  0  0  0  0  0  0  0  0  0
   -1.4689    3.4317    1.8768 H   0  0  0  0  0  0  0  0  0  0  0  0
   -0.1303    3.2534    3.0352 H   0  0  0  0  0  0  0  0  0  0  0  0
    0.2036    3.6663    1.3373 H   0  0  0  0  0  0  0  0  0  0  0  0
  5  6  2  0  0  0  0
  5  7  1  0  0  0  0
  2  3  1  0  0  0  0
  2  4  1  0  0  0  0
  2  5  1  0  0  0  0
  1  2  1  0  0  0  0
 22 23  2  0  0  0  0
 22 24  1  0  0  0  0
 20 21  1  0  0  0  0
 19 20  1  0  0  0  0
 17 18  1  0  0  0  0
 17 19  2  0  0  0  0
 15 16  1  0  0  0  0
 15 17  1  0  0  0  0
 14 15  1  0  0  0  0
 14 20  2  0  0  0  0
 11 12  1  0  0  0  0
 11 13  1  0  0  0  0
 11 14  1  0  0  0  0
  9 10  1  0  0  0  0
  9 11  1  0  0  0  0
  9 22  1  0  0  0  0
  7  8  1  0  0  0  0
  7  9  1  0  0  0  0
 26 27  1  0  0  0  0
 26 28  1  0  0  0  0
 26 29  1  0  0  0  0
 24 25  1  0  0  0  0
 24 26  1  0  0  0  0
M  END
$$$$
default_name
  -OEChem-01062215323D

 29 29  0     1  0  0  0  0  0999 V2000
   -3.6042   -3.5728    1.4576 H   0  0  0  0  0  0  0  0  0  0  0  0
   -3.5202   -2.6488    0.8866 C   0  0  0  0  0  0  0  0  0  0  0  0
   -4.2052   -1.9048    1.2896 H   0  0  0  0  0  0  0  0  0  0  0  0
   -3.7552   -2.8428   -0.1584 H   0  0  0  0  0  0  0  0  0  0  0  0
   -2.1052   -2.1358    0.9946 C   0  0  0  0  0  0  0  0  0  0  0  0
   -1.2852   -2.7288    1.6826 O   0  0  0  0  0  0  0  0  0  0  0  0
   -1.8202   -1.0288    0.3146 N   0  0  0  0  0  0  0  0  0  0  0  0
   -2.5542   -0.5788   -0.2104 H   0  0  0  0  0  0  0  0  0  0  0  0
   -0.5102   -0.3728    0.3086 C   0  0  1  0  0  0  0  0  0  0  0  0
    0.0719   -0.7468    1.1521 H   0  0  0  0  0  0  0  0  0  0  0  0
    0.2338   -0.7427   -0.9878 C   0  0  0  0  0  0  0  0  0  0  0  0
   -0.3749   -0.4501   -1.8452 H   0  0  0  0  0  0  0  0  0  0  0  0
    1.1692   -0.1820   -1.0335 H   0  0  0  0  0  0  0  0  0  0  0  0
    0.5506   -2.2112   -1.1039 C   0  0  0  0  0  0  0  0  0  0  0  0
    1.5363   -2.8897   -0.4198 N   0  0  0  0  0  0  0  0  0  0  0  0
    2.2262   -2.4795    0.1917 H   0  0  0  0  0  0  0  0  0  0  0  0
    1.4223   -4.1958   -0.7137 C   0  0  0  0  0  0  0  0  0  0  0  0
    2.0621   -4.9817   -0.3311 H   0  0  0  0  0  0  0  0  0  0  0  0
    0.3946   -4.3954   -1.5516 N   0  0  0  0  0  0  0  0  0  0  0  0
   -0.1646   -3.1412   -1.8102 C   0  0  0  0  0  0  0  0  0  0  0  0
   -1.0306   -2.9428   -2.4284 H   0  0  0  0  0  0  0  0  0  0  0  0
   -0.6600    1.1486    0.4782 C   0  0  0  0  0  0  0  0  0  0  0  0
   -1.2881    1.8051   -0.3520 O   0  0  0  0  0  0  0  0  0  0  0  0
   -0.0704    1.7107    1.5407 N   0  0  0  0  0  0  0  0  0  0  0  0
    0.4724    1.1128    2.1464 H   0  0  0  0  0  0  0  0  0  0  0  0
   -0.1191    3.1366    1.8532 C   0  0  0  0  0  0  0  0  0  0  0  0
   -1.1568    3.4500    1.9881 H   0  0  0  0  0  0  0  0  0  0  0  0
    0.4385    3.3391    2.7681 H   0  0  0  0  0  0  0  0  0  0  0  0
    0.3140    3.7111    1.0329 H   0  0  0  0  0  0  0  0  0  0  0  0
  5  6  2  0  0  0  0
  5  7  1  0  0  0  0
  2  3  1  0  0  0  0
  2  4  1  0  0  0  0
  2  5  1  0  0  0  0
  1  2  1  0  0  0  0
 22 23  2  0  0  0  0
 22 24  1  0  0  0  0
 20 21  1  0  0  0  0
 19 20  1  0  0  0  0
 17 18  1  0  0  0  0
 17 19  2  0  0  0  0
 15 16  1  0  0  0  0
 15 17  1  0  0  0  0
 14 15  1  0  0  0  0
 14 20  2  0  0  0  0
 11 12  1  0  0  0  0
 11 13  1  0  0  0  0
 11 14  1  0  0  0  0
  9 10  1  0  0  0  0
  9 11  1  0  0  0  0
  9 22  1  0  0  0  0
  7  8  1  0  0  0  0
  7  9  1  0  0  0  0
 26 27  1  0  0  0  0
 26 28  1  0  0  0  0
 26 29  1  0  0  0  0
 24 25  1  0  0  0  0
 24 26  1  0  0  0  0
M  END
$$$$
default_name
  -OEChem-01062215323D

 29 29  0     1  0  0  0  0  0999 V2000
   -3.6042   -3.5728    1.4576 H   0  0  0  0  0  0  0  0  0  0  0  0
   -3.5202   -2.6488    0.8866 C   0  0  0  0  0  0  0  0  0  0  0  0
   -4.2052   -1.9048    1.2896 H   0  0  0  0  0  0  0  0  0  0  0  0
   -3.7552   -2.8428   -0.1584 H   0  0  0  0  0  0  0  0  0  0  0  0
   -2.1052   -2.1358    0.9946 C   0  0  0  0  0  0  0  0  0  0  0  0
   -1.2852   -2.7288    1.6826 O   0  0  0  0  0  0  0  0  0  0  0  0
   -1.8202   -1.0288    0.3146 N   0  0  0  0  0  0  0  0  0  0  0  0
   -2.5542   -0.5788   -0.2104 H   0  0  0  0  0  0  0  0  0  0  0  0
   -0.5102   -0.3728    0.3086 C   0  0  1  0  0  0  0  0  0  0  0  0
    0.0719   -0.7468    1.1521 H   0  0  0  0  0  0  0  0  0  0  0  0
    0.2338   -0.7427   -0.9878 C   0  0  0  0  0  0  0  0  0  0  0  0
   -0.3749   -0.4501   -1.8452 H   0  0  0  0  0  0  0  0  0  0  0  0
    1.1692   -0.1820   -1.0335 H   0  0  0  0  0  0  0  0  0  0  0  0
    0.5506   -2.2112   -1.1039 C   0  0  0  0  0  0  0  0  0  0  0  0
    1.5363   -2.8897   -0.4198 N   0  0  0  0  0  0  0  0  0  0  0  0
    2.2262   -2.4795    0.1917 H   0  0  0  0  0  0  0  0  0  0  0  0
    1.4223   -4.1958   -0.7137 C   0  0  0  0  0  0  0  0  0  0  0  0
    2.0621   -4.9817   -0.3311 H   0  0  0  0  0  0  0  0  0  0  0  0
    0.3946   -4.3954   -1.5516 N   0  0  0  0  0  0  0  0  0  0  0  0
   -0.1646   -3.1412   -1.8102 C   0  0  0  0  0  0  0  0  0  0  0  0
   -1.0306   -2.9428   -2.4284 H   0  0  0  0  0  0  0  0  0  0  0  0
   -0.6600    1.1486    0.4782 C   0  0  0  0  0  0  0  0  0  0  0  0
   -1.5001    1.7648   -0.1771 O   0  0  0  0  0  0  0  0  0  0  0  0
    0.1634    1.7559    1.3418 N   0  0  0  0  0  0  0  0  0  0  0  0
    0.8618    1.1897    1.8008 H   0  0  0  0  0  0  0  0  0  0  0  0
    0.1509    3.1886    1.6256 C   0  0  0  0  0  0  0  0  0  0  0  0
   -0.8272    3.4794    2.0152 H   0  0  0  0  0  0  0  0  0  0  0  0
    0.9172    3.4314    2.3624 H   0  0  0  0  0  0  0  0  0  0  0  0
    0.3414    3.7499    0.7095 H   0  0  0  0  0  0  0  0  0  0  0  0
  5  6  2  0  0  0  0
  5  7  1  0  0  0  0
  2  3  1  0  0  0  0
  2  4  1  0  0  0  0
  2  5  1  0  0  0  0
  1  2  1  0  0  0  0
 22 23  2  0  0  0  0
 22 24  1  0  0  0  0
 20 21  1  0  0  0  0
 19 20  1  0  0  0  0
 17 18  1  0  0  0  0
 17 19  2  0  0  0  0
 15 16  1  0  0  0  0
 15 17  1  0  0  0  0
 14 15  1  0  0  0  0
 14 20  2  0  0  0  0
 11 12  1  0  0  0  0
 11 13  1  0  0  0  0
 11 14  1  0  0  0  0
  9 10  1  0  0  0  0
  9 11  1  0  0  0  0
  9 22  1  0  0  0  0
  7  8  1  0  0  0  0
  7  9  1  0  0  0  0
 26 27  1  0  0  0  0
 26 28  1  0  0  0  0
 26 29  1  0  0  0  0
 24 25  1  0  0  0  0
 24 26  1  0  0  0  0
M  END
$$$$
default_name
  -OEChem-01062215323D

 29 29  0     1  0  0  0  0  0999 V2000
   -3.6042   -3.5728    1.4576 H   0  0  0  0  0  0  0  0  0  0  0  0
   -3.5202   -2.6488    0.8866 C   0  0  0  0  0  0  0  0  0  0  0  0
   -4.2052   -1.9048    1.2896 H   0  0  0  0  0  0  0  0  0  0  0  0
   -3.7552   -2.8428   -0.1584 H   0  0  0  0  0  0  0  0  0  0  0  0
   -2.1052   -2.1358    0.9946 C   0  0  0  0  0  0  0  0  0  0  0  0
   -1.2852   -2.7288    1.6826 O   0  0  0  0  0  0  0  0  0  0  0  0
   -1.8202   -1.0288    0.3146 N   0  0  0  0  0  0  0  0  0  0  0  0
   -2.5542   -0.5788   -0.2104 H   0  0  0  0  0  0  0  0  0  0  0  0
   -0.5102   -0.3728    0.3086 C   0  0  1  0  0  0  0  0  0  0  0  0
    0.0719   -0.7468    1.1521 H   0  0  0  0  0  0  0  0  0  0  0  0
    0.2338   -0.7427   -0.9878 C   0  0  0  0  0  0  0  0  0  0  0  0
   -0.3749   -0.4501   -1.8452 H   0  0  0  0  0  0  0  0  0  0  0  0
    1.1692   -0.1820   -1.0335 H   0  0  0  0  0  0  0  0  0  0  0  0
    0.5506   -2.2112   -1.1039 C   0  0  0  0  0  0  0  0  0  0  0  0
    1.5363   -2.8897   -0.4198 N   0  0  0  0  0  0  0  0  0  0  0  0
    2.2262   -2.4795    0.1917 H   0  0  0  0  0  0  0  0  0  0  0  0
    1.4223   -4.1958   -0.7137 C   0  0  0  0  0  0  0  0  0  0  0  0
    2.0621   -4.9817   -0.3311 H   0  0  0  0  0  0  0  0  0  0  0  0
    0.3946   -4.3954   -1.5516 N   0  0  0  0  0  0  0  0  0  0  0  0
   -0.1646   -3.1412   -1.8102 C   0  0  0  0  0  0  0  0  0  0  0  0
   -1.0306   -2.9428   -2.4284 H   0  0  0  0  0  0  0  0  0  0  0  0
   -0.6600    1.1486    0.4782 C   0  0  0  0  0  0  0  0  0  0  0  0
   -1.6588    1.7241    0.0471 O   0  0  0  0  0  0  0  0  0  0  0  0
    0.3371    1.8012    1.0886 N   0  0  0  0  0  0  0  0  0  0  0  0
    1.1472    1.2663    1.3652 H   0  0  0  0  0  0  0  0  0  0  0  0
    0.3520    3.2407    1.3353 C   0  0  0  0  0  0  0  0  0  0  0  0
   -0.5028    3.5179    1.9563 H   0  0  0  0  0  0  0  0  0  0  0  0
    1.2730    3.5241    1.8456 H   0  0  0  0  0  0  0  0  0  0  0  0
    0.2840    3.7799    0.3891 H   0  0  0  0  0  0  0  0  0  0  0  0
  5  6  2  0  0  0  0
  5  7  1  0  0  0  0
  2  3  1  0  0  0  0
  2  4  1  0  0  0  0
  2  5  1  0  0  0  0
  1  2  1  0  0  0  0
 22 23  2  0  0  0  0
 22 24  1  0  0  0  0
 20 21  1  0  0  0  0
 19 20  1  0  0  0  0
 17 18  1  0  0  0  0
 17 19  2  0  0  0  0
 15 16  1  0  0  0  0
 15 17  1  0  0  0  0
 14 15  1  0  0  0  0
 14 20  2  0  0  0  0
 11 12  1  0  0  0  0
 11 13  1  0  0  0  0
 11 14  1  0  0  0  0
  9 10  1  0  0  0  0
  9 11  1  0  0  0  0
  9 22  1  0  0  0  0
  7  8  1  0  0  0  0
  7  9  1  0  0  0  0
 26 27  1  0  0  0  0
 26 28  1  0  0  0  0
 26 29  1  0  0  0  0
 24 25  1  0  0  0  0
 24 26  1  0  0  0  0
M  END
$$$$
default_name
  -OEChem-01062215323D

 29 29  0     1  0  0  0  0  0999 V2000
   -3.6042   -3.5728    1.4576 H   0  0  0  0  0  0  0  0  0  0  0  0
   -3.5202   -2.6488    0.8866 C   0  0  0  0  0  0  0  0  0  0  0  0
   -4.2052   -1.9048    1.2896 H   0  0  0  0  0  0  0  0  0  0  0  0
   -3.7552   -2.8428   -0.1584 H   0  0  0  0  0  0  0  0  0  0  0  0
   -2.1052   -2.1358    0.9946 C   0  0  0  0  0  0  0  0  0  0  0  0
   -1.2852   -2.7288    1.6826 O   0  0  0  0  0  0  0  0  0  0  0  0
   -1.8202   -1.0288    0.3146 N   0  0  0  0  0  0  0  0  0  0  0  0
   -2.5542   -0.5788   -0.2104 H   0  0  0  0  0  0  0  0  0  0  0  0
   -0.5102   -0.3728    0.3086 C   0  0  1  0  0  0  0  0  0  0  0  0
    0.0719   -0.7468    1.1521 H   0  0  0  0  0  0  0  0  0  0  0  0
    0.2338   -0.7427   -0.9878 C   0  0  0  0  0  0  0  0  0  0  0  0
   -0.3749   -0.4501   -1.8452 H   0  0  0  0  0  0  0  0  0  0  0  0
    1.1692   -0.1820   -1.0335 H   0  0  0  0  0  0  0  0  0  0  0  0
    0.5506   -2.2112   -1.1039 C   0  0  0  0  0  0  0  0  0  0  0  0
    1.5363   -2.8897   -0.4198 N   0  0  0  0  0  0  0  0  0  0  0  0
    2.2262   -2.4795    0.1917 H   0  0  0  0  0  0  0  0  0  0  0  0
    1.4223   -4.1958   -0.7137 C   0  0  0  0  0  0  0  0  0  0  0  0
    2.0621   -4.9817   -0.3311 H   0  0  0  0  0  0  0  0  0  0  0  0
    0.3946   -4.3954   -1.5516 N   0  0  0  0  0  0  0  0  0  0  0  0
   -0.1646   -3.1412   -1.8102 C   0  0  0  0  0  0  0  0  0  0  0  0
   -1.0306   -2.9428   -2.4284 H   0  0  0  0  0  0  0  0  0  0  0  0
   -0.6600    1.1486    0.4782 C   0  0  0  0  0  0  0  0  0  0  0  0
   -1.7536    1.6860    0.3053 O   0  0  0  0  0  0  0  0  0  0  0  0
    0.4387    1.8436    0.7984 N   0  0  0  0  0  0  0  0  0  0  0  0
    1.3092    1.3375    0.8695 H   0  0  0  0  0  0  0  0  0  0  0  0
    0.4703    3.2895    1.0021 C   0  0  0  0  0  0  0  0  0  0  0  0
   -0.2057    3.5629    1.8154 H   0  0  0  0  0  0  0  0  0  0  0  0
    1.4817    3.6107    1.2530 H   0  0  0  0  0  0  0  0  0  0  0  0
    0.1456    3.7993    0.0936 H   0  0  0  0  0  0  0  0  0  0  0  0
  5  6  2  0  0  0  0
  5  7  1  0  0  0  0
  2  3  1  0  0  0  0
  2  4  1  0  0  0  0
  2  5  1  0  0  0  0
  1  2  1  0  0  0  0
 22 23  2  0  0  0  0
 22 24  1  0  0  0  0
 20 21  1  0  0  0  0
 19 20  1  0  0  0  0
 17 18  1  0  0  0  0
 17 19  2  0  0  0  0
 15 16  1  0  0  0  0
 15 17  1  0  0  0  0
 14 15  1  0  0  0  0
 14 20  2  0  0  0  0
 11 12  1  0  0  0  0
 11 13  1  0  0  0  0
 11 14  1  0  0  0  0
  9 10  1  0  0  0  0
  9 11  1  0  0  0  0
  9 22  1  0  0  0  0
  7  8  1  0  0  0  0
  7  9  1  0  0  0  0
 26 27  1  0  0  0  0
 26 28  1  0  0  0  0
 26 29  1  0  0  0  0
 24 25  1  0  0  0  0
 24 26  1  0  0  0  0
M  END
$$$$
default_name
  -OEChem-01062215323D

 29 29  0     1  0  0  0  0  0999 V2000
   -3.6042   -3.5728    1.4576 H   0  0  0  0  0  0  0  0  0  0  0  0
   -3.5202   -2.6488    0.8866 C   0  0  0  0  0  0  0  0  0  0  0  0
   -4.2052   -1.9048    1.2896 H   0  0  0  0  0  0  0  0  0  0  0  0
   -3.7552   -2.8428   -0.1584 H   0  0  0  0  0  0  0  0  0  0  0  0
   -2.1052   -2.1358    0.9946 C   0  0  0  0  0  0  0  0  0  0  0  0
   -1.2852   -2.7288    1.6826 O   0  0  0  0  0  0  0  0  0  0  0  0
   -1.8202   -1.0288    0.3146 N   0  0  0  0  0  0  0  0  0  0  0  0
   -2.5542   -0.5788   -0.2104 H   0  0  0  0  0  0  0  0  0  0  0  0
   -0.5102   -0.3728    0.3086 C   0  0  1  0  0  0  0  0  0  0  0  0
    0.1600   -0.9246    0.9693 H   0  0  0  0  0  0  0  0  0  0  0  0
    0.0732   -0.4232   -1.1156 C   0  0  0  0  0  0  0  0  0  0  0  0
   -0.6263    0.0523   -1.8053 H   0  0  0  0  0  0  0  0  0  0  0  0
    1.0052    0.1446   -1.1385 H   0  0  0  0  0  0  0  0  0  0  0  0
    0.3528   -1.8208   -1.6042 C   0  0  0  0  0  0  0  0  0  0  0  0
    1.4010   -2.6267   -1.2147 N   0  0  0  0  0  0  0  0  0  0  0  0
    2.1630   -2.3606   -0.6092 H   0  0  0  0  0  0  0  0  0  0  0  0
    1.2346   -3.8307   -1.7875 C   0  0  0  0  0  0  0  0  0  0  0  0
    1.9027   -4.6757   -1.6740 H   0  0  0  0  0  0  0  0  0  0  0  0
    0.1139   -3.8438   -2.5239 N   0  0  0  0  0  0  0  0  0  0  0  0
   -0.4530   -2.5709   -2.4186 C   0  0  0  0  0  0  0  0  0  0  0  0
   -1.3817   -2.2458   -2.8694 H   0  0  0  0  0  0  0  0  0  0  0  0
   -0.6169    1.0661    0.8418 C   0  0  0  0  0  0  0  0  0  0  0  0
   -1.7081    1.5190    1.1865 O   0  0  0  0  0  0  0  0  0  0  0  0
    0.5090    1.7887    0.8933 N   0  0  0  0  0  0  0  0  0  0  0  0
    1.3547    1.3644    0.5417 H   0  0  0  0  0  0  0  0  0  0  0  0
    0.5849    3.1647    1.3772 C   0  0  0  0  0  0  0  0  0  0  0  0
    0.2485    3.2103    2.4154 H   0  0  0  0  0  0  0  0  0  0  0  0
    1.6115    3.5272    1.3165 H   0  0  0  0  0  0  0  0  0  0  0  0
   -0.0597    3.8060    0.7742 H   0  0  0  0  0  0  0  0  0  0  0  0
  5  6  2  0  0  0  0
  5  7  1  0  0  0  0
  2  3  1  0  0  0  0
  2  4  1  0  0  0  0
  2  5  1  0  0  0  0
  1  2  1  0  0  0  0
 22 23  2  0  0  0  0
 22 24  1  0  0  0  0
 20 21  1  0  0  0  0
 19 20  1  0  0  0  0
 17 18  1  0  0  0  0
 17 19  2  0  0  0  0
 15 16  1  0  0  0  0
 15 17  1  0  0  0  0
 14 15  1  0  0  0  0
 14 20  2  0  0  0  0
 11 12  1  0  0  0  0
 11 13  1  0  0  0  0
 11 14  1  0  0  0  0
  9 10  1  0  0  0  0
  9 11  1  0  0  0  0
  9 22  1  0  0  0  0
  7  8  1  0  0  0  0
  7  9  1  0  0  0  0
 26 27  1  0  0  0  0
 26 28  1  0  0  0  0
 26 29  1  0  0  0  0
 24 25  1  0  0  0  0
 24 26  1  0  0  0  0
M  END
$$$$
default_name
  -OEChem-01062215323D

 29 29  0     1  0  0  0  0  0999 V2000
   -3.6042   -3.5728    1.4576 H   0  0  0  0  0  0  0  0  0  0  0  0
   -3.5202   -2.6488    0.8866 C   0  0  0  0  0  0  0  0  0  0  0  0
   -4.2052   -1.9048    1.2896 H   0  0  0  0  0  0  0  0  0  0  0  0
   -3.7552   -2.8428   -0.1584 H   0  0  0  0  0  0  0  0  0  0  0  0
   -2.1052   -2.1358    0.9946 C   0  0  0  0  0  0  0  0  0  0  0  0
   -1.2852   -2.7288    1.6826 O   0  0  0  0  0  0  0  0  0  0  0  0
   -1.8202   -1.0288    0.3146 N   0  0  0  0  0  0  0  0  0  0  0  0
   -2.5542   -0.5788   -0.2104 H   0  0  0  0  0  0  0  0  0  0  0  0
   -0.5102   -0.3728    0.3086 C   0  0  1  0  0  0  0  0  0  0  0  0
    0.1600   -0.9246    0.9693 H   0  0  0  0  0  0  0  0  0  0  0  0
    0.0732   -0.4232   -1.1156 C   0  0  0  0  0  0  0  0  0  0  0  0
   -0.6263    0.0523   -1.8053 H   0  0  0  0  0  0  0  0  0  0  0  0
    1.0052    0.1446   -1.1385 H   0  0  0  0  0  0  0  0  0  0  0  0
    0.3528   -1.8208   -1.6042 C   0  0  0  0  0  0  0  0  0  0  0  0
    1.4010   -2.6267   -1.2147 N   0  0  0  0  0  0  0  0  0  0  0  0
    2.1630   -2.3606   -0.6092 H   0  0  0  0  0  0  0  0  0  0  0  0
    1.2346   -3.8307   -1.7875 C   0  0  0  0  0  0  0  0  0  0  0  0
    1.9027   -4.6757   -1.6740 H   0  0  0  0  0  0  0  0  0  0  0  0
    0.1139   -3.8438   -2.5239 N   0  0  0  0  0  0  0  0  0  0  0  0
   -0.4530   -2.5709   -2.4186 C   0  0  0  0  0  0  0  0  0  0  0  0
   -1.3817   -2.2458   -2.8694 H   0  0  0  0  0  0  0  0  0  0  0  0
   -0.6169    1.0661    0.8418 C   0  0  0  0  0  0  0  0  0  0  0  0
   -1.6296    1.4316    1.4381 O   0  0  0  0  0  0  0  0  0  0  0  0
    0.4168    1.8856    0.6133 N   0  0  0  0  0  0  0  0  0  0  0  0
    1.1880    1.5270    0.0696 H   0  0  0  0  0  0  0  0  0  0  0  0
    0.4804    3.2764    1.0547 C   0  0  0  0  0  0  0  0  0  0  0  0
    0.4018    3.3225    2.1432 H   0  0  0  0  0  0  0  0  0  0  0  0
    1.4242    3.7255    0.7439 H   0  0  0  0  0  0  0  0  0  0  0  0
   -0.3468    3.8412    0.6219 H   0  0  0  0  0  0  0  0  0  0  0  0
  5  6  2  0  0  0  0
  5  7  1  0  0  0  0
  2  3  1  0  0  0  0
  2  4  1  0  0  0  0
  2  5  1  0  0  0  0
  1  2  1  0  0  0  0
 22 23  2  0  0  0  0
 22 24  1  0  0  0  0
 20 21  1  0  0  0  0
 19 20  1  0  0  0  0
 17 18  1  0  0  0  0
 17 19  2  0  0  0  0
 15 16  1  0  0  0  0
 15 17  1  0  0  0  0
 14 15  1  0  0  0  0
 14 20  2  0  0  0  0
 11 12  1  0  0  0  0
 11 13  1  0  0  0  0
 11 14  1  0  0  0  0
  9 10  1  0  0  0  0
  9 11  1  0  0  0  0
  9 22  1  0  0  0  0
  7  8  1  0  0  0  0
  7  9  1  0  0  0  0
 26 27  1  0  0  0  0
 26 28  1  0  0  0  0
 26 29  1  0  0  0  0
 24 25  1  0  0  0  0
 24 26  1  0  0  0  0
M  END
$$$$
default_name
  -OEChem-01062215323D

 29 29  0     1  0  0  0  0  0999 V2000
   -3.6042   -3.5728    1.4576 H   0  0  0  0  0  0  0  0  0  0  0  0
   -3.5202   -2.6488    0.8866 C   0  0  0  0  0  0  0  0  0  0  0  0
   -4.2052   -1.9048    1.2896 H   0  0  0  0  0  0  0  0  0  0  0  0
   -3.7552   -2.8428   -0.1584 H   0  0  0  0  0  0  0  0  0  0  0  0
   -2.1052   -2.1358    0.9946 C   0  0  0  0  0  0  0  0  0  0  0  0
   -1.2852   -2.7288    1.6826 O   0  0  0  0  0  0  0  0  0  0  0  0
   -1.8202   -1.0288    0.3146 N   0  0  0  0  0  0  0  0  0  0  0  0
   -2.5542   -0.5788   -0.2104 H   0  0  0  0  0  0  0  0  0  0  0  0
   -0.5102   -0.3728    0.3086 C   0  0  1  0  0  0  0  0  0  0  0  0
    0.1600   -0.9246    0.9693 H   0  0  0  0  0  0  0  0  0  0  0  0
    0.0732   -0.4232   -1.1156 C   0  0  0  0  0  0  0  0  0  0  0  0
   -0.6263    0.0523   -1.8053 H   0  0  0  0  0  0  0  0  0  0  0  0
    1.0052    0.1446   -1.1385 H   0  0  0  0  0  0  0  0  0  0  0  0
    0.3528   -1.8208   -1.6042 C   0  0  0  0  0  0  0  0  0  0  0  0
    1.4010   -2.6267   -1.2147 N   0  0  0  0  0  0  0  0  0  0  0  0
    2.1630   -2.3606   -0.6092 H   0  0  0  0  0  0  0  0  0  0  0  0
    1.2346   -3.8307   -1.7875 C   0  0  0  0  0  0  0  0  0  0  0  0
    1.9027   -4.6757   -1.6740 H   0  0  0  0  0  0  0  0  0  0  0  0
    0.1139   -3.8438   -2.5239 N   0  0  0  0  0  0  0  0  0  0  0  0
   -0.4530   -2.5709   -2.4186 C   0  0  0  0  0  0  0  0  0  0  0  0
   -1.3817   -2.2458   -2.8694 H   0  0  0  0  0  0  0  0  0  0  0  0
   -0.6169    1.0661    0.8418 C   0  0  0  0  0  0  0  0  0  0  0  0
   -1.4850    1.3587    1.6637 O   0  0  0  0  0  0  0  0  0  0  0  0
    0.2513    1.9660    0.3634 N   0  0  0  0  0  0  0  0  0  0  0  0
    0.8981    1.6606   -0.3489 H   0  0  0  0  0  0  0  0  0  0  0  0
    0.2914    3.3692    0.7664 C   0  0  0  0  0  0  0  0  0  0  0  0
    0.4738    3.4398    1.8411 H   0  0  0  0  0  0  0  0  0  0  0  0
    1.0869    3.8900    0.2327 H   0  0  0  0  0  0  0  0  0  0  0  0
   -0.6641    3.8466    0.5437 H   0  0  0  0  0  0  0  0  0  0  0  0
  5  6  2  0  0  0  0
  5  7  1  0  0  0  0
  2  3  1  0  0  0  0
  2  4  1  0  0  0  0
  2  5  1  0  0  0  0
  1  2  1  0  0  0  0
 22 23  2  0  0  0  0
 22 24  1  0  0  0  0
 20 21  1  0  0  0  0
 19 20  1  0  0  0  0
 17 18  1  0  0  0  0
 17 19  2  0  0  0  0
 15 16  1  0  0  0  0
 15 17  1  0  0  0  0
 14 15  1  0  0  0  0
 14 20  2  0  0  0  0
 11 12  1  0  0  0  0
 11 13  1  0  0  0  0
 11 14  1  0  0  0  0
  9 10  1  0  0  0  0
  9 11  1  0  0  0  0
  9 22  1  0  0  0  0
  7  8  1  0  0  0  0
  7  9  1  0  0  0  0
 26 27  1  0  0  0  0
 26 28  1  0  0  0  0
 26 29  1  0  0  0  0
 24 25  1  0  0  0  0
 24 26  1  0  0  0  0
M  END
$$$$
default_name
  -OEChem-01062215323D

 29 29  0     1  0  0  0  0  0999 V2000
   -3.6042   -3.5728    1.4576 H   0  0  0  0  0  0  0  0  0  0  0  0
   -3.5202   -2.6488    0.8866 C   0  0  0  0  0  0  0  0  0  0  0  0
   -4.2052   -1.9048    1.2896 H   0  0  0  0  0  0  0  0  0  0  0  0
   -3.7552   -2.8428   -0.1584 H   0  0  0  0  0  0  0  0  0  0  0  0
   -2.1052   -2.1358    0.9946 C   0  0  0  0  0  0  0  0  0  0  0  0
   -1.2852   -2.7288    1.6826 O   0  0  0  0  0  0  0  0  0  0  0  0
   -1.8202   -1.0288    0.3146 N   0  0  0  0  0  0  0  0  0  0  0  0
   -2.5542   -0.5788   -0.2104 H   0  0  0  0  0  0  0  0  0  0  0  0
   -0.5102   -0.3728    0.3086 C   0  0  1  0  0  0  0  0  0  0  0  0
    0.1600   -0.9246    0.9693 H   0  0  0  0  0  0  0  0  0  0  0  0
    0.0732   -0.4232   -1.1156 C   0  0  0  0  0  0  0  0  0  0  0  0
   -0.6263    0.0523   -1.8053 H   0  0  0  0  0  0  0  0  0  0  0  0
    1.0052    0.1446   -1.1385 H   0  0  0  0  0  0  0  0  0  0  0  0
    0.3528   -1.8208   -1.6042 C   0  0  0  0  0  0  0  0  0  0  0  0
    1.4010   -2.6267   -1.2147 N   0  0  0  0  0  0  0  0  0  0  0  0
    2.1630   -2.3606   -0.6092 H   0  0  0  0  0  0  0  0  0  0  0  0
    1.2346   -3.8307   -1.7875 C   0  0  0  0  0  0  0  0  0  0  0  0
    1.9027   -4.6757   -1.6740 H   0  0  0  0  0  0  0  0  0  0  0  0
    0.1139   -3.8438   -2.5239 N   0  0  0  0  0  0  0  0  0  0  0  0
   -0.4530   -2.5709   -2.4186 C   0  0  0  0  0  0  0  0  0  0  0  0
   -1.3817   -2.2458   -2.8694 H   0  0  0  0  0  0  0  0  0  0  0  0
   -0.6169    1.0661    0.8418 C   0  0  0  0  0  0  0  0  0  0  0  0
   -1.2841    1.3054    1.8479 O   0  0  0  0  0  0  0  0  0  0  0  0
    0.0236    2.0242    0.1606 N   0  0  0  0  0  0  0  0  0  0  0  0
    0.5048    1.7561   -0.6853 H   0  0  0  0  0  0  0  0  0  0  0  0
    0.0307    3.4367    0.5321 C   0  0  0  0  0  0  0  0  0  0  0  0
    0.4597    3.5541    1.5298 H   0  0  0  0  0  0  0  0  0  0  0  0
    0.6226    4.0094   -0.1825 H   0  0  0  0  0  0  0  0  0  0  0  0
   -0.9901    3.8220    0.5449 H   0  0  0  0  0  0  0  0  0  0  0  0
  5  6  2  0  0  0  0
  5  7  1  0  0  0  0
  2  3  1  0  0  0  0
  2  4  1  0  0  0  0
  2  5  1  0  0  0  0
  1  2  1  0  0  0  0
 22 23  2  0  0  0  0
 22 24  1  0  0  0  0
 20 21  1  0  0  0  0
 19 20  1  0  0  0  0
 17 18  1  0  0  0  0
 17 19  2  0  0  0  0
 15 16  1  0  0  0  0
 15 17  1  0  0  0  0
 14 15  1  0  0  0  0
 14 20  2  0  0  0  0
 11 12  1  0  0  0  0
 11 13  1  0  0  0  0
 11 14  1  0  0  0  0
  9 10  1  0  0  0  0
  9 11  1  0  0  0  0
  9 22  1  0  0  0  0
  7  8  1  0  0  0  0
  7  9  1  0  0  0  0
 26 27  1  0  0  0  0
 26 28  1  0  0  0  0
 26 29  1  0  0  0  0
 24 25  1  0  0  0  0
 24 26  1  0  0  0  0
M  END
$$$$
default_name
  -OEChem-01062215323D

 29 29  0     1  0  0  0  0  0999 V2000
   -3.6042   -3.5728    1.4576 H   0  0  0  0  0  0  0  0  0  0  0  0
   -3.5202   -2.6488    0.8866 C   0  0  0  0  0  0  0  0  0  0  0  0
   -4.2052   -1.9048    1.2896 H   0  0  0  0  0  0  0  0  0  0  0  0
   -3.7552   -2.8428   -0.1584 H   0  0  0  0  0  0  0  0  0  0  0  0
   -2.1052   -2.1358    0.9946 C   0  0  0  0  0  0  0  0  0  0  0  0
   -1.2852   -2.7288    1.6826 O   0  0  0  0  0  0  0  0  0  0  0  0
   -1.8202   -1.0288    0.3146 N   0  0  0  0  0  0  0  0  0  0  0  0
   -2.5542   -0.5788   -0.2104 H   0  0  0  0  0  0  0  0  0  0  0  0
   -0.5102   -0.3728    0.3086 C   0  0  1  0  0  0  0  0  0  0  0  0
    0.1600   -0.9246    0.9693 H   0  0  0  0  0  0  0  0  0  0  0  0
    0.0732   -0.4232   -1.1156 C   0  0  0  0  0  0  0  0  0  0  0  0
   -0.6263    0.0523   -1.8053 H   0  0  0  0  0  0  0  0  0  0  0  0
    1.0052    0.1446   -1.1385 H   0  0  0  0  0  0  0  0  0  0  0  0
    0.3528   -1.8208   -1.6042 C   0  0  0  0  0  0  0  0  0  0  0  0
    1.4010   -2.6267   -1.2147 N   0  0  0  0  0  0  0  0  0  0  0  0
    2.1630   -2.3606   -0.6092 H   0  0  0  0  0  0  0  0  0  0  0  0
    1.2346   -3.8307   -1.7875 C   0  0  0  0  0  0  0  0  0  0  0  0
    1.9027   -4.6757   -1.6740 H   0  0  0  0  0  0  0  0  0  0  0  0
    0.1139   -3.8438   -2.5239 N   0  0  0  0  0  0  0  0  0  0  0  0
   -0.4530   -2.5709   -2.4186 C   0  0  0  0  0  0  0  0  0  0  0  0
   -1.3817   -2.2458   -2.8694 H   0  0  0  0  0  0  0  0  0  0  0  0
   -0.6169    1.0661    0.8418 C   0  0  0  0  0  0  0  0  0  0  0  0
   -1.0407    1.2751    1.9782 O   0  0  0  0  0  0  0  0  0  0  0  0
   -0.2505    2.0565    0.0188 N   0  0  0  0  0  0  0  0  0  0  0  0
    0.0349    1.8070   -0.9168 H   0  0  0  0  0  0  0  0  0  0  0  0
   -0.2839    3.4743    0.3677 C   0  0  0  0  0  0  0  0  0  0  0  0
    0.3605    3.6577    1.2305 H   0  0  0  0  0  0  0  0  0  0  0  0
    0.0628    4.0756   -0.4732 H   0  0  0  0  0  0  0  0  0  0  0  0
   -1.3024    3.7690    0.6255 H   0  0  0  0  0  0  0  0  0  0  0  0
  5  6  2  0  0  0  0
  5  7  1  0  0  0  0
  2  3  1  0  0  0  0
  2  4  1  0  0  0  0
  2  5  1  0  0  0  0
  1  2  1  0  0  0  0
 22 23  2  0  0  0  0
 22 24  1  0  0  0  0
 20 21  1  0  0  0  0
 19 20  1  0  0  0  0
 17 18  1  0  0  0  0
 17 19  2  0  0  0  0
 15 16  1  0  0  0  0
 15 17  1  0  0  0  0
 14 15  1  0  0  0  0
 14 20  2  0  0  0  0
 11 12  1  0  0  0  0
 11 13  1  0  0  0  0
 11 14  1  0  0  0  0
  9 10  1  0  0  0  0
  9 11  1  0  0  0  0
  9 22  1  0  0  0  0
  7  8  1  0  0  0  0
  7  9  1  0  0  0  0
 26 27  1  0  0  0  0
 26 28  1  0  0  0  0
 26 29  1  0  0  0  0
 24 25  1  0  0  0  0
 24 26  1  0  0  0  0
M  END
$$$$
default_name
  -OEChem-01062215323D

 29 29  0     1  0  0  0  0  0999 V2000
   -3.6042   -3.5728    1.4576 H   0  0  0  0  0  0  0  0  0  0  0  0
   -3.5202   -2.6488    0.8866 C   0  0  0  0  0  0  0  0  0  0  0  0
   -4.2052   -1.9048    1.2896 H   0  0  0  0  0  0  0  0  0  0  0  0
   -3.7552   -2.8428   -0.1584 H   0  0  0  0  0  0  0  0  0  0  0  0
   -2.1052   -2.1358    0.9946 C   0  0  0  0  0  0  0  0  0  0  0  0
   -1.2852   -2.7288    1.6826 O   0  0  0  0  0  0  0  0  0  0  0  0
   -1.8202   -1.0288    0.3146 N   0  0  0  0  0  0  0  0  0  0  0  0
   -2.5542   -0.5788   -0.2104 H   0  0  0  0  0  0  0  0  0  0  0  0
   -0.5102   -0.3728    0.3086 C   0  0  1  0  0  0  0  0  0  0  0  0
    0.1600   -0.9246    0.9693 H   0  0  0  0  0  0  0  0  0  0  0  0
    0.0732   -0.4232   -1.1156 C   0  0  0  0  0  0  0  0  0  0  0  0
   -0.6263    0.0523   -1.8053 H   0  0  0  0  0  0  0  0  0  0  0  0
    1.0052    0.1446   -1.1385 H   0  0  0  0  0  0  0  0  0  0  0  0
    0.3528   -1.8208   -1.6042 C   0  0  0  0  0  0  0  0  0  0  0  0
    1.4010   -2.6267   -1.2147 N   0  0  0  0  0  0  0  0  0  0  0  0
    2.1630   -2.3606   -0.6092 H   0  0  0  0  0  0  0  0  0  0  0  0
    1.2346   -3.8307   -1.7875 C   0  0  0  0  0  0  0  0  0  0  0  0
    1.9027   -4.6757   -1.6740 H   0  0  0  0  0  0  0  0  0  0  0  0
    0.1139   -3.8438   -2.5239 N   0  0  0  0  0  0  0  0  0  0  0  0
   -0.4530   -2.5709   -2.4186 C   0  0  0  0  0  0  0  0  0  0  0  0
   -1.3817   -2.2458   -2.8694 H   0  0  0  0  0  0  0  0  0  0  0  0
   -0.6169    1.0661    0.8418 C   0  0  0  0  0  0  0  0  0  0  0  0
   -0.7714    1.2701    2.0456 O   0  0  0  0  0  0  0  0  0  0  0  0
   -0.5526    2.0604   -0.0524 N   0  0  0  0  0  0  0  0  0  0  0  0
   -0.4797    1.8099   -1.0275 H   0  0  0  0  0  0  0  0  0  0  0  0
   -0.6310    3.4794    0.2844 C   0  0  0  0  0  0  0  0  0  0  0  0
    0.1829    3.7434    0.9635 H   0  0  0  0  0  0  0  0  0  0  0  0
   -0.5542    4.0841   -0.6197 H   0  0  0  0  0  0  0  0  0  0  0  0
   -1.5798    3.6912    0.7798 H   0  0  0  0  0  0  0  0  0  0  0  0
  5  6  2  0  0  0  0
  5  7  1  0  0  0  0
  2  3  1  0  0  0  0
  2  4  1  0  0  0  0
  2  5  1  0  0  0  0
  1  2  1  0  0  0  0
 22 23  2  0  0  0  0
 22 24  1  0  0  0  0
 20 21  1  0  0  0  0
 19 20  1  0  0  0  0
 17 18  1  0  0  0  0
 17 19  2  0  0  0  0
 15 16  1  0  0  0  0
 15 17  1  0  0  0  0
 14 15  1  0  0  0  0
 14 20  2  0  0  0  0
 11 12  1  0  0  0  0
 11 13  1  0  0  0  0
 11 14  1  0  0  0  0
  9 10  1  0  0  0  0
  9 11  1  0  0  0  0
  9 22  1  0  0  0  0
  7  8  1  0  0  0  0
  7  9  1  0  0  0  0
 26 27  1  0  0  0  0
 26 28  1  0  0  0  0
 26 29  1  0  0  0  0
 24 25  1  0  0  0  0
 24 26  1  0  0  0  0
M  END
$$$$
default_name
  -OEChem-01062215323D

 29 29  0     1  0  0  0  0  0999 V2000
   -3.6042   -3.5728    1.4576 H   0  0  0  0  0  0  0  0  0  0  0  0
   -3.5202   -2.6488    0.8866 C   0  0  0  0  0  0  0  0  0  0  0  0
   -4.2052   -1.9048    1.2896 H   0  0  0  0  0  0  0  0  0  0  0  0
   -3.7552   -2.8428   -0.1584 H   0  0  0  0  0  0  0  0  0  0  0  0
   -2.1052   -2.1358    0.9946 C   0  0  0  0  0  0  0  0  0  0  0  0
   -1.2852   -2.7288    1.6826 O   0  0  0  0  0  0  0  0  0  0  0  0
   -1.8202   -1.0288    0.3146 N   0  0  0  0  0  0  0  0  0  0  0  0
   -2.5542   -0.5788   -0.2104 H   0  0  0  0  0  0  0  0  0  0  0  0
   -0.5102   -0.3728    0.3086 C   0  0  1  0  0  0  0  0  0  0  0  0
    0.1600   -0.9246    0.9693 H   0  0  0  0  0  0  0  0  0  0  0  0
    0.0732   -0.4232   -1.1156 C   0  0  0  0  0  0  0  0  0  0  0  0
   -0.6263    0.0523   -1.8053 H   0  0  0  0  0  0  0  0  0  0  0  0
    1.0052    0.1446   -1.1385 H   0  0  0  0  0  0  0  0  0  0  0  0
    0.3528   -1.8208   -1.6042 C   0  0  0  0  0  0  0  0  0  0  0  0
    1.4010   -2.6267   -1.2147 N   0  0  0  0  0  0  0  0  0  0  0  0
    2.1630   -2.3606   -0.6092 H   0  0  0  0  0  0  0  0  0  0  0  0
    1.2346   -3.8307   -1.7875 C   0  0  0  0  0  0  0  0  0  0  0  0
    1.9027   -4.6757   -1.6740 H   0  0  0  0  0  0  0  0  0  0  0  0
    0.1139   -3.8438   -2.5239 N   0  0  0  0  0  0  0  0  0  0  0  0
   -0.4530   -2.5709   -2.4186 C   0  0  0  0  0  0  0  0  0  0  0  0
   -1.3817   -2.2458   -2.8694 H   0  0  0  0  0  0  0  0  0  0  0  0
   -0.6169    1.0661    0.8418 C   0  0  0  0  0  0  0  0  0  0  0  0
   -0.4944    1.2907    2.0456 O   0  0  0  0  0  0  0  0  0  0  0  0
   -0.8619    2.0359   -0.0481 N   0  0  0  0  0  0  0  0  0  0  0  0
   -1.0038    1.7646   -1.0100 H   0  0  0  0  0  0  0  0  0  0  0  0
   -0.9868    3.4518    0.2879 C   0  0  0  0  0  0  0  0  0  0  0  0
   -0.0610    3.8056    0.7470 H   0  0  0  0  0  0  0  0  0  0  0  0
   -1.1864    4.0344   -0.6120 H   0  0  0  0  0  0  0  0  0  0  0  0
   -1.8035    3.5940    0.9974 H   0  0  0  0  0  0  0  0  0  0  0  0
  5  6  2  0  0  0  0
  5  7  1  0  0  0  0
  2  3  1  0  0  0  0
  2  4  1  0  0  0  0
  2  5  1  0  0  0  0
  1  2  1  0  0  0  0
 22 23  2  0  0  0  0
 22 24  1  0  0  0  0
 20 21  1  0  0  0  0
 19 20  1  0  0  0  0
 17 18  1  0  0  0  0
 17 19  2  0  0  0  0
 15 16  1  0  0  0  0
 15 17  1  0  0  0  0
 14 15  1  0  0  0  0
 14 20  2  0  0  0  0
 11 12  1  0  0  0  0
 11 13  1  0  0  0  0
 11 14  1  0  0  0  0
  9 10  1  0  0  0  0
  9 11  1  0  0  0  0
  9 22  1  0  0  0  0
  7  8  1  0  0  0  0
  7  9  1  0  0  0  0
 26 27  1  0  0  0  0
 26 28  1  0  0  0  0
 26 29  1  0  0  0  0
 24 25  1  0  0  0  0
 24 26  1  0  0  0  0
M  END
$$$$
default_name
  -OEChem-01062215323D

 29 29  0     1  0  0  0  0  0999 V2000
   -3.6042   -3.5728    1.4576 H   0  0  0  0  0  0  0  0  0  0  0  0
   -3.5202   -2.6488    0.8866 C   0  0  0  0  0  0  0  0  0  0  0  0
   -4.2052   -1.9048    1.2896 H   0  0  0  0  0  0  0  0  0  0  0  0
   -3.7552   -2.8428   -0.1584 H   0  0  0  0  0  0  0  0  0  0  0  0
   -2.1052   -2.1358    0.9946 C   0  0  0  0  0  0  0  0  0  0  0  0
   -1.2852   -2.7288    1.6826 O   0  0  0  0  0  0  0  0  0  0  0  0
   -1.8202   -1.0288    0.3146 N   0  0  0  0  0  0  0  0  0  0  0  0
   -2.5542   -0.5788   -0.2104 H   0  0  0  0  0  0  0  0  0  0  0  0
   -0.5102   -0.3728    0.3086 C   0  0  1  0  0  0  0  0  0  0  0  0
    0.1600   -0.9246    0.9693 H   0  0  0  0  0  0  0  0  0  0  0  0
    0.0732   -0.4232   -1.1156 C   0  0  0  0  0  0  0  0  0  0  0  0
   -0.6263    0.0523   -1.8053 H   0  0  0  0  0  0  0  0  0  0  0  0
    1.0052    0.1446   -1.1385 H   0  0  0  0  0  0  0  0  0  0  0  0
    0.3528   -1.8208   -1.6042 C   0  0  0  0  0  0  0  0  0  0  0  0
    1.4010   -2.6267   -1.2147 N   0  0  0  0  0  0  0  0  0  0  0  0
    2.1630   -2.3606   -0.6092 H   0  0  0  0  0  0  0  0  0  0  0  0
    1.2346   -3.8307   -1.7875 C   0  0  0  0  0  0  0  0  0  0  0  0
    1.9027   -4.6757   -1.6740 H   0  0  0  0  0  0  0  0  0  0  0  0
    0.1139   -3.8438   -2.5239 N   0  0  0  0  0  0  0  0  0  0  0  0
   -0.4530   -2.5709   -2.4186 C   0  0  0  0  0  0  0  0  0  0  0  0
   -1.3817   -2.2458   -2.8694 H   0  0  0  0  0  0  0  0  0  0  0  0
   -0.6169    1.0661    0.8418 C   0  0  0  0  0  0  0  0  0  0  0  0
   -0.2287    1.3353    1.9782 O   0  0  0  0  0  0  0  0  0  0  0  0
   -1.1575    1.9845    0.0314 N   0  0  0  0  0  0  0  0  0  0  0  0
   -1.5017    1.6740   -0.8653 H   0  0  0  0  0  0  0  0  0  0  0  0
   -1.3273    3.3932    0.3779 C   0  0  0  0  0  0  0  0  0  0  0  0
   -0.3545    3.8398    0.5959 H   0  0  0  0  0  0  0  0  0  0  0  0
   -1.7907    3.9297   -0.4505 H   0  0  0  0  0  0  0  0  0  0  0  0
   -1.9581    3.4839    1.2636 H   0  0  0  0  0  0  0  0  0  0  0  0
  5  6  2  0  0  0  0
  5  7  1  0  0  0  0
  2  3  1  0  0  0  0
  2  4  1  0  0  0  0
  2  5  1  0  0  0  0
  1  2  1  0  0  0  0
 22 23  2  0  0  0  0
 22 24  1  0  0  0  0
 20 21  1  0  0  0  0
 19 20  1  0  0  0  0
 17 18  1  0  0  0  0
 17 19  2  0  0  0  0
 15 16  1  0  0  0  0
 15 17  1  0  0  0  0
 14 15  1  0  0  0  0
 14 20  2  0  0  0  0
 11 12  1  0  0  0  0
 11 13  1  0  0  0  0
 11 14  1  0  0  0  0
  9 10  1  0  0  0  0
  9 11  1  0  0  0  0
  9 22  1  0  0  0  0
  7  8  1  0  0  0  0
  7  9  1  0  0  0  0
 26 27  1  0  0  0  0
 26 28  1  0  0  0  0
 26 29  1  0  0  0  0
 24 25  1  0  0  0  0
 24 26  1  0  0  0  0
M  END
$$$$
default_name
  -OEChem-01062215323D

 29 29  0     1  0  0  0  0  0999 V2000
   -3.6042   -3.5728    1.4576 H   0  0  0  0  0  0  0  0  0  0  0  0
   -3.5202   -2.6488    0.8866 C   0  0  0  0  0  0  0  0  0  0  0  0
   -4.2052   -1.9048    1.2896 H   0  0  0  0  0  0  0  0  0  0  0  0
   -3.7552   -2.8428   -0.1584 H   0  0  0  0  0  0  0  0  0  0  0  0
   -2.1052   -2.1358    0.9946 C   0  0  0  0  0  0  0  0  0  0  0  0
   -1.2852   -2.7288    1.6826 O   0  0  0  0  0  0  0  0  0  0  0  0
   -1.8202   -1.0288    0.3146 N   0  0  0  0  0  0  0  0  0  0  0  0
   -2.5542   -0.5788   -0.2104 H   0  0  0  0  0  0  0  0  0  0  0  0
   -0.5102   -0.3728    0.3086 C   0  0  1  0  0  0  0  0  0  0  0  0
    0.1600   -0.9246    0.9693 H   0  0  0  0  0  0  0  0  0  0  0  0
    0.0732   -0.4232   -1.1156 C   0  0  0  0  0  0  0  0  0  0  0  0
   -0.6263    0.0523   -1.8053 H   0  0  0  0  0  0  0  0  0  0  0  0
    1.0052    0.1446   -1.1385 H   0  0  0  0  0  0  0  0  0  0  0  0
    0.3528   -1.8208   -1.6042 C   0  0  0  0  0  0  0  0  0  0  0  0
    1.4010   -2.6267   -1.2147 N   0  0  0  0  0  0  0  0  0  0  0  0
    2.1630   -2.3606   -0.6092 H   0  0  0  0  0  0  0  0  0  0  0  0
    1.2346   -3.8307   -1.7875 C   0  0  0  0  0  0  0  0  0  0  0  0
    1.9027   -4.6757   -1.6740 H   0  0  0  0  0  0  0  0  0  0  0  0
    0.1139   -3.8438   -2.5239 N   0  0  0  0  0  0  0  0  0  0  0  0
   -0.4530   -2.5709   -2.4186 C   0  0  0  0  0  0  0  0  0  0  0  0
   -1.3817   -2.2458   -2.8694 H   0  0  0  0  0  0  0  0  0  0  0  0
   -0.6169    1.0661    0.8418 C   0  0  0  0  0  0  0  0  0  0  0  0
    0.0076    1.4011    1.8480 O   0  0  0  0  0  0  0  0  0  0  0  0
   -1.4191    1.9098    0.1807 N   0  0  0  0  0  0  0  0  0  0  0  0
   -1.9394    1.5445   -0.6034 H   0  0  0  0  0  0  0  0  0  0  0  0
   -1.6290    3.3077    0.5483 C   0  0  0  0  0  0  0  0  0  0  0  0
   -0.6778    3.8438    0.5204 H   0  0  0  0  0  0  0  0  0  0  0  0
   -2.3260    3.7774   -0.1464 H   0  0  0  0  0  0  0  0  0  0  0  0
   -2.0331    3.3685    1.5600 H   0  0  0  0  0  0  0  0  0  0  0  0
  5  6  2  0  0  0  0
  5  7  1  0  0  0  0
  2  3  1  0  0  0  0
  2  4  1  0  0  0  0
  2  5  1  0  0  0  0
  1  2  1  0  0  0  0
 22 23  2  0  0  0  0
 22 24  1  0  0  0  0
 20 21  1  0  0  0  0
 19 20  1  0  0  0  0
 17 18  1  0  0  0  0
 17 19  2  0  0  0  0
 15 16  1  0  0  0  0
 15 17  1  0  0  0  0
 14 15  1  0  0  0  0
 14 20  2  0  0  0  0
 11 12  1  0  0  0  0
 11 13  1  0  0  0  0
 11 14  1  0  0  0  0
  9 10  1  0  0  0  0
  9 11  1  0  0  0  0
  9 22  1  0  0  0  0
  7  8  1  0  0  0  0
  7  9  1  0  0  0  0
 26 27  1  0  0  0  0
 26 28  1  0  0  0  0
 26 29  1  0  0  0  0
 24 25  1  0  0  0  0
 24 26  1  0  0  0  0
M  END
$$$$
default_name
  -OEChem-01062215323D

 29 29  0     1  0  0  0  0  0999 V2000
   -3.6042   -3.5728    1.4576 H   0  0  0  0  0  0  0  0  0  0  0  0
   -3.5202   -2.6488    0.8866 C   0  0  0  0  0  0  0  0  0  0  0  0
   -4.2052   -1.9048    1.2896 H   0  0  0  0  0  0  0  0  0  0  0  0
   -3.7552   -2.8428   -0.1584 H   0  0  0  0  0  0  0  0  0  0  0  0
   -2.1052   -2.1358    0.9946 C   0  0  0  0  0  0  0  0  0  0  0  0
   -1.2852   -2.7288    1.6826 O   0  0  0  0  0  0  0  0  0  0  0  0
   -1.8202   -1.0288    0.3146 N   0  0  0  0  0  0  0  0  0  0  0  0
   -2.5542   -0.5788   -0.2104 H   0  0  0  0  0  0  0  0  0  0  0  0
   -0.5102   -0.3728    0.3086 C   0  0  1  0  0  0  0  0  0  0  0  0
    0.1600   -0.9246    0.9693 H   0  0  0  0  0  0  0  0  0  0  0  0
    0.0732   -0.4232   -1.1156 C   0  0  0  0  0  0  0  0  0  0  0  0
   -0.6263    0.0523   -1.8053 H   0  0  0  0  0  0  0  0  0  0  0  0
    1.0052    0.1446   -1.1385 H   0  0  0  0  0  0  0  0  0  0  0  0
    0.3528   -1.8208   -1.6042 C   0  0  0  0  0  0  0  0  0  0  0  0
    1.4010   -2.6267   -1.2147 N   0  0  0  0  0  0  0  0  0  0  0  0
    2.1630   -2.3606   -0.6092 H   0  0  0  0  0  0  0  0  0  0  0  0
    1.2346   -3.8307   -1.7875 C   0  0  0  0  0  0  0  0  0  0  0  0
    1.9027   -4.6757   -1.6740 H   0  0  0  0  0  0  0  0  0  0  0  0
    0.1139   -3.8438   -2.5239 N   0  0  0  0  0  0  0  0  0  0  0  0
   -0.4530   -2.5709   -2.4186 C   0  0  0  0  0  0  0  0  0  0  0  0
   -1.3817   -2.2458   -2.8694 H   0  0  0  0  0  0  0  0  0  0  0  0
   -0.6169    1.0661    0.8418 C   0  0  0  0  0  0  0  0  0  0  0  0
    0.1984    1.4835    1.6638 O   0  0  0  0  0  0  0  0  0  0  0  0
   -1.6290    1.8169    0.3895 N   0  0  0  0  0  0  0  0  0  0  0  0
   -2.2873    1.3848   -0.2421 H   0  0  0  0  0  0  0  0  0  0  0  0
   -1.8716    3.2010    0.7875 C   0  0  0  0  0  0  0  0  0  0  0  0
   -1.0086    3.8173    0.5256 H   0  0  0  0  0  0  0  0  0  0  0  0
   -2.7557    3.5876    0.2797 H   0  0  0  0  0  0  0  0  0  0  0  0
   -2.0234    3.2556    1.8666 H   0  0  0  0  0  0  0  0  0  0  0  0
  5  6  2  0  0  0  0
  5  7  1  0  0  0  0
  2  3  1  0  0  0  0
  2  4  1  0  0  0  0
  2  5  1  0  0  0  0
  1  2  1  0  0  0  0
 22 23  2  0  0  0  0
 22 24  1  0  0  0  0
 20 21  1  0  0  0  0
 19 20  1  0  0  0  0
 17 18  1  0  0  0  0
 17 19  2  0  0  0  0
 15 16  1  0  0  0  0
 15 17  1  0  0  0  0
 14 15  1  0  0  0  0
 14 20  2  0  0  0  0
 11 12  1  0  0  0  0
 11 13  1  0  0  0  0
 11 14  1  0  0  0  0
  9 10  1  0  0  0  0
  9 11  1  0  0  0  0
  9 22  1  0  0  0  0
  7  8  1  0  0  0  0
  7  9  1  0  0  0  0
 26 27  1  0  0  0  0
 26 28  1  0  0  0  0
 26 29  1  0  0  0  0
 24 25  1  0  0  0  0
 24 26  1  0  0  0  0
M  END
$$$$
default_name
  -OEChem-01062215323D

 29 29  0     1  0  0  0  0  0999 V2000
   -3.6042   -3.5728    1.4576 H   0  0  0  0  0  0  0  0  0  0  0  0
   -3.5202   -2.6488    0.8866 C   0  0  0  0  0  0  0  0  0  0  0  0
   -4.2052   -1.9048    1.2896 H   0  0  0  0  0  0  0  0  0  0  0  0
   -3.7552   -2.8428   -0.1584 H   0  0  0  0  0  0  0  0  0  0  0  0
   -2.1052   -2.1358    0.9946 C   0  0  0  0  0  0  0  0  0  0  0  0
   -1.2852   -2.7288    1.6826 O   0  0  0  0  0  0  0  0  0  0  0  0
   -1.8202   -1.0288    0.3146 N   0  0  0  0  0  0  0  0  0  0  0  0
   -2.5542   -0.5788   -0.2104 H   0  0  0  0  0  0  0  0  0  0  0  0
   -0.5102   -0.3728    0.3086 C   0  0  1  0  0  0  0  0  0  0  0  0
    0.1600   -0.9246    0.9693 H   0  0  0  0  0  0  0  0  0  0  0  0
    0.0732   -0.4232   -1.1156 C   0  0  0  0  0  0  0  0  0  0  0  0
   -0.6263    0.0523   -1.8053 H   0  0  0  0  0  0  0  0  0  0  0  0
    1.0052    0.1446   -1.1385 H   0  0  0  0  0  0  0  0  0  0  0  0
    0.3528   -1.8208   -1.6042 C   0  0  0  0  0  0  0  0  0  0  0  0
    1.4010   -2.6267   -1.2147 N   0  0  0  0  0  0  0  0  0  0  0  0
    2.1630   -2.3606   -0.6092 H   0  0  0  0  0  0  0  0  0  0  0  0
    1.2346   -3.8307   -1.7875 C   0  0  0  0  0  0  0  0  0  0  0  0
    1.9027   -4.6757   -1.6740 H   0  0  0  0  0  0  0  0  0  0  0  0
    0.1139   -3.8438   -2.5239 N   0  0  0  0  0  0  0  0  0  0  0  0
   -0.4530   -2.5709   -2.4186 C   0  0  0  0  0  0  0  0  0  0  0  0
   -1.3817   -2.2458   -2.8694 H   0  0  0  0  0  0  0  0  0  0  0  0
   -0.6169    1.0661    0.8418 C   0  0  0  0  0  0  0  0  0  0  0  0
    0.3307    1.5769    1.4382 O   0  0  0  0  0  0  0  0  0  0  0  0
   -1.7728    1.7120    0.6438 N   0  0  0  0  0  0  0  0  0  0  0  0
   -2.5215    1.2059    0.1940 H   0  0  0  0  0  0  0  0  0  0  0  0
   -2.0384    3.0806    1.0792 C   0  0  0  0  0  0  0  0  0  0  0  0
   -1.3245    3.7622    0.6113 H   0  0  0  0  0  0  0  0  0  0  0  0
   -3.0506    3.3734    0.7987 H   0  0  0  0  0  0  0  0  0  0  0  0
   -1.9297    3.1529    2.1624 H   0  0  0  0  0  0  0  0  0  0  0  0
  5  6  2  0  0  0  0
  5  7  1  0  0  0  0
  2  3  1  0  0  0  0
  2  4  1  0  0  0  0
  2  5  1  0  0  0  0
  1  2  1  0  0  0  0
 22 23  2  0  0  0  0
 22 24  1  0  0  0  0
 20 21  1  0  0  0  0
 19 20  1  0  0  0  0
 17 18  1  0  0  0  0
 17 19  2  0  0  0  0
 15 16  1  0  0  0  0
 15 17  1  0  0  0  0
 14 15  1  0  0  0  0
 14 20  2  0  0  0  0
 11 12  1  0  0  0  0
 11 13  1  0  0  0  0
 11 14  1  0  0  0  0
  9 10  1  0  0  0  0
  9 11  1  0  0  0  0
  9 22  1  0  0  0  0
  7  8  1  0  0  0  0
  7  9  1  0  0  0  0
 26 27  1  0  0  0  0
 26 28  1  0  0  0  0
 26 29  1  0  0  0  0
 24 25  1  0  0  0  0
 24 26  1  0  0  0  0
M  END
$$$$
default_name
  -OEChem-01062215323D

 29 29  0     1  0  0  0  0  0999 V2000
   -3.6042   -3.5728    1.4576 H   0  0  0  0  0  0  0  0  0  0  0  0
   -3.5202   -2.6488    0.8866 C   0  0  0  0  0  0  0  0  0  0  0  0
   -4.2052   -1.9048    1.2896 H   0  0  0  0  0  0  0  0  0  0  0  0
   -3.7552   -2.8428   -0.1584 H   0  0  0  0  0  0  0  0  0  0  0  0
   -2.1052   -2.1358    0.9946 C   0  0  0  0  0  0  0  0  0  0  0  0
   -1.2852   -2.7288    1.6826 O   0  0  0  0  0  0  0  0  0  0  0  0
   -1.8202   -1.0288    0.3146 N   0  0  0  0  0  0  0  0  0  0  0  0
   -2.5542   -0.5788   -0.2104 H   0  0  0  0  0  0  0  0  0  0  0  0
   -0.5102   -0.3728    0.3086 C   0  0  1  0  0  0  0  0  0  0  0  0
    0.1600   -0.9246    0.9693 H   0  0  0  0  0  0  0  0  0  0  0  0
    0.0732   -0.4232   -1.1156 C   0  0  0  0  0  0  0  0  0  0  0  0
   -0.6263    0.0523   -1.8053 H   0  0  0  0  0  0  0  0  0  0  0  0
    1.0052    0.1446   -1.1385 H   0  0  0  0  0  0  0  0  0  0  0  0
    0.3528   -1.8208   -1.6042 C   0  0  0  0  0  0  0  0  0  0  0  0
    1.4010   -2.6267   -1.2147 N   0  0  0  0  0  0  0  0  0  0  0  0
    2.1630   -2.3606   -0.6092 H   0  0  0  0  0  0  0  0  0  0  0  0
    1.2346   -3.8307   -1.7875 C   0  0  0  0  0  0  0  0  0  0  0  0
    1.9027   -4.6757   -1.6740 H   0  0  0  0  0  0  0  0  0  0  0  0
    0.1139   -3.8438   -2.5239 N   0  0  0  0  0  0  0  0  0  0  0  0
   -0.4530   -2.5709   -2.4186 C   0  0  0  0  0  0  0  0  0  0  0  0
   -1.3817   -2.2458   -2.8694 H   0  0  0  0  0  0  0  0  0  0  0  0
   -0.6169    1.0661    0.8418 C   0  0  0  0  0  0  0  0  0  0  0  0
    0.3955    1.6750    1.1866 O   0  0  0  0  0  0  0  0  0  0  0  0
   -1.8408    1.6023    0.9260 N   0  0  0  0  0  0  0  0  0  0  0  0
   -2.6261    1.0198    0.6751 H   0  0  0  0  0  0  0  0  0  0  0  0
   -2.1181    2.9545    1.4034 C   0  0  0  0  0  0  0  0  0  0  0  0
   -1.6040    3.6821    0.7714 H   0  0  0  0  0  0  0  0  0  0  0  0
   -3.1906    3.1493    1.3753 H   0  0  0  0  0  0  0  0  0  0  0  0
   -1.7584    3.0674    2.4273 H   0  0  0  0  0  0  0  0  0  0  0  0
  5  6  2  0  0  0  0
  5  7  1  0  0  0  0
  2  3  1  0  0  0  0
  2  4  1  0  0  0  0
  2  5  1  0  0  0  0
  1  2  1  0  0  0  0
 22 23  2  0  0  0  0
 22 24  1  0  0  0  0
 20 21  1  0  0  0  0
 19 20  1  0  0  0  0
 17 18  1  0  0  0  0
 17 19  2  0  0  0  0
 15 16  1  0  0  0  0
 15 17  1  0  0  0  0
 14 15  1  0  0  0  0
 14 20  2  0  0  0  0
 11 12  1  0  0  0  0
 11 13  1  0  0  0  0
 11 14  1  0  0  0  0
  9 10  1  0  0  0  0
  9 11  1  0  0  0  0
  9 22  1  0  0  0  0
  7  8  1  0  0  0  0
  7  9  1  0  0  0  0
 26 27  1  0  0  0  0
 26 28  1  0  0  0  0
 26 29  1  0  0  0  0
 24 25  1  0  0  0  0
 24 26  1  0  0  0  0
M  END
$$$$
default_name
  -OEChem-01062215323D

 29 29  0     1  0  0  0  0  0999 V2000
   -3.6042   -3.5728    1.4576 H   0  0  0  0  0  0  0  0  0  0  0  0
   -3.5202   -2.6488    0.8866 C   0  0  0  0  0  0  0  0  0  0  0  0
   -4.2052   -1.9048    1.2896 H   0  0  0  0  0  0  0  0  0  0  0  0
   -3.7552   -2.8428   -0.1584 H   0  0  0  0  0  0  0  0  0  0  0  0
   -2.1052   -2.1358    0.9946 C   0  0  0  0  0  0  0  0  0  0  0  0
   -1.2852   -2.7288    1.6826 O   0  0  0  0  0  0  0  0  0  0  0  0
   -1.8202   -1.0288    0.3146 N   0  0  0  0  0  0  0  0  0  0  0  0
   -2.5542   -0.5788   -0.2104 H   0  0  0  0  0  0  0  0  0  0  0  0
   -0.5102   -0.3728    0.3086 C   0  0  1  0  0  0  0  0  0  0  0  0
    0.1600   -0.9246    0.9693 H   0  0  0  0  0  0  0  0  0  0  0  0
    0.0732   -0.4232   -1.1156 C   0  0  0  0  0  0  0  0  0  0  0  0
   -0.6263    0.0523   -1.8053 H   0  0  0  0  0  0  0  0  0  0  0  0
    1.0052    0.1446   -1.1385 H   0  0  0  0  0  0  0  0  0  0  0  0
    0.3528   -1.8208   -1.6042 C   0  0  0  0  0  0  0  0  0  0  0  0
    1.4010   -2.6267   -1.2147 N   0  0  0  0  0  0  0  0  0  0  0  0
    2.1630   -2.3606   -0.6092 H   0  0  0  0  0  0  0  0  0  0  0  0
    1.2346   -3.8307   -1.7875 C   0  0  0  0  0  0  0  0  0  0  0  0
    1.9027   -4.6757   -1.6740 H   0  0  0  0  0  0  0  0  0  0  0  0
    0.1139   -3.8438   -2.5239 N   0  0  0  0  0  0  0  0  0  0  0  0
   -0.4530   -2.5709   -2.4186 C   0  0  0  0  0  0  0  0  0  0  0  0
   -1.3817   -2.2458   -2.8694 H   0  0  0  0  0  0  0  0  0  0  0  0
   -0.6169    1.0661    0.8418 C   0  0  0  0  0  0  0  0  0  0  0  0
    0.3884    1.7710    0.9261 O   0  0  0  0  0  0  0  0  0  0  0  0
   -1.8282    1.4954    1.2171 N   0  0  0  0  0  0  0  0  0  0  0  0
   -2.5939    0.8394    1.1685 H   0  0  0  0  0  0  0  0  0  0  0  0
   -2.1053    2.8314    1.7383 C   0  0  0  0  0  0  0  0  0  0  0  0
   -1.8280    3.5825    0.9953 H   0  0  0  0  0  0  0  0  0  0  0  0
   -3.1661    2.9307    1.9701 H   0  0  0  0  0  0  0  0  0  0  0  0
   -1.5211    3.0050    2.6433 H   0  0  0  0  0  0  0  0  0  0  0  0
  5  6  2  0  0  0  0
  5  7  1  0  0  0  0
  2  3  1  0  0  0  0
  2  4  1  0  0  0  0
  2  5  1  0  0  0  0
  1  2  1  0  0  0  0
 22 23  2  0  0  0  0
 22 24  1  0  0  0  0
 20 21  1  0  0  0  0
 19 20  1  0  0  0  0
 17 18  1  0  0  0  0
 17 19  2  0  0  0  0
 15 16  1  0  0  0  0
 15 17  1  0  0  0  0
 14 15  1  0  0  0  0
 14 20  2  0  0  0  0
 11 12  1  0  0  0  0
 11 13  1  0  0  0  0
 11 14  1  0  0  0  0
  9 10  1  0  0  0  0
  9 11  1  0  0  0  0
  9 22  1  0  0  0  0
  7  8  1  0  0  0  0
  7  9  1  0  0  0  0
 26 27  1  0  0  0  0
 26 28  1  0  0  0  0
 26 29  1  0  0  0  0
 24 25  1  0  0  0  0
 24 26  1  0  0  0  0
M  END
$$$$
default_name
  -OEChem-01062215323D

 29 29  0     1  0  0  0  0  0999 V2000
   -3.6042   -3.5728    1.4576 H   0  0  0  0  0  0  0  0  0  0  0  0
   -3.5202   -2.6488    0.8866 C   0  0  0  0  0  0  0  0  0  0  0  0
   -4.2052   -1.9048    1.2896 H   0  0  0  0  0  0  0  0  0  0  0  0
   -3.7552   -2.8428   -0.1584 H   0  0  0  0  0  0  0  0  0  0  0  0
   -2.1052   -2.1358    0.9946 C   0  0  0  0  0  0  0  0  0  0  0  0
   -1.2852   -2.7288    1.6826 O   0  0  0  0  0  0  0  0  0  0  0  0
   -1.8202   -1.0288    0.3146 N   0  0  0  0  0  0  0  0  0  0  0  0
   -2.5542   -0.5788   -0.2104 H   0  0  0  0  0  0  0  0  0  0  0  0
   -0.5102   -0.3728    0.3086 C   0  0  1  0  0  0  0  0  0  0  0  0
    0.1600   -0.9246    0.9693 H   0  0  0  0  0  0  0  0  0  0  0  0
    0.0732   -0.4232   -1.1156 C   0  0  0  0  0  0  0  0  0  0  0  0
   -0.6263    0.0523   -1.8053 H   0  0  0  0  0  0  0  0  0  0  0  0
    1.0052    0.1446   -1.1385 H   0  0  0  0  0  0  0  0  0  0  0  0
    0.3528   -1.8208   -1.6042 C   0  0  0  0  0  0  0  0  0  0  0  0
    1.4010   -2.6267   -1.2147 N   0  0  0  0  0  0  0  0  0  0  0  0
    2.1630   -2.3606   -0.6092 H   0  0  0  0  0  0  0  0  0  0  0  0
    1.2346   -3.8307   -1.7875 C   0  0  0  0  0  0  0  0  0  0  0  0
    1.9027   -4.6757   -1.6740 H   0  0  0  0  0  0  0  0  0  0  0  0
    0.1139   -3.8438   -2.5239 N   0  0  0  0  0  0  0  0  0  0  0  0
   -0.4530   -2.5709   -2.4186 C   0  0  0  0  0  0  0  0  0  0  0  0
   -1.3817   -2.2458   -2.8694 H   0  0  0  0  0  0  0  0  0  0  0  0
   -0.6169    1.0661    0.8418 C   0  0  0  0  0  0  0  0  0  0  0  0
    0.3099    1.8584    0.6745 O   0  0  0  0  0  0  0  0  0  0  0  0
   -1.7361    1.3985    1.4972 N   0  0  0  0  0  0  0  0  0  0  0  0
   -2.4272    0.6768    1.6405 H   0  0  0  0  0  0  0  0  0  0  0  0
   -2.0008    2.7196    2.0608 C   0  0  0  0  0  0  0  0  0  0  0  0
   -1.9812    3.4703    1.2675 H   0  0  0  0  0  0  0  0  0  0  0  0
   -2.9789    2.7324    2.5427 H   0  0  0  0  0  0  0  0  0  0  0  0
   -1.2340    2.9699    2.7955 H   0  0  0  0  0  0  0  0  0  0  0  0
  5  6  2  0  0  0  0
  5  7  1  0  0  0  0
  2  3  1  0  0  0  0
  2  4  1  0  0  0  0
  2  5  1  0  0  0  0
  1  2  1  0  0  0  0
 22 23  2  0  0  0  0
 22 24  1  0  0  0  0
 20 21  1  0  0  0  0
 19 20  1  0  0  0  0
 17 18  1  0  0  0  0
 17 19  2  0  0  0  0
 15 16  1  0  0  0  0
 15 17  1  0  0  0  0
 14 15  1  0  0  0  0
 14 20  2  0  0  0  0
 11 12  1  0  0  0  0
 11 13  1  0  0  0  0
 11 14  1  0  0  0  0
  9 10  1  0  0  0  0
  9 11  1  0  0  0  0
  9 22  1  0  0  0  0
  7  8  1  0  0  0  0
  7  9  1  0  0  0  0
 26 27  1  0  0  0  0
 26 28  1  0  0  0  0
 26 29  1  0  0  0  0
 24 25  1  0  0  0  0
 24 26  1  0  0  0  0
M  END
$$$$
default_name
  -OEChem-01062215323D

 29 29  0     1  0  0  0  0  0999 V2000
   -3.6042   -3.5728    1.4576 H   0  0  0  0  0  0  0  0  0  0  0  0
   -3.5202   -2.6488    0.8866 C   0  0  0  0  0  0  0  0  0  0  0  0
   -4.2052   -1.9048    1.2896 H   0  0  0  0  0  0  0  0  0  0  0  0
   -3.7552   -2.8428   -0.1584 H   0  0  0  0  0  0  0  0  0  0  0  0
   -2.1052   -2.1358    0.9946 C   0  0  0  0  0  0  0  0  0  0  0  0
   -1.2852   -2.7288    1.6826 O   0  0  0  0  0  0  0  0  0  0  0  0
   -1.8202   -1.0288    0.3146 N   0  0  0  0  0  0  0  0  0  0  0  0
   -2.5542   -0.5788   -0.2104 H   0  0  0  0  0  0  0  0  0  0  0  0
   -0.5102   -0.3728    0.3086 C   0  0  1  0  0  0  0  0  0  0  0  0
    0.1600   -0.9246    0.9693 H   0  0  0  0  0  0  0  0  0  0  0  0
    0.0732   -0.4232   -1.1156 C   0  0  0  0  0  0  0  0  0  0  0  0
   -0.6263    0.0523   -1.8053 H   0  0  0  0  0  0  0  0  0  0  0  0
    1.0052    0.1446   -1.1385 H   0  0  0  0  0  0  0  0  0  0  0  0
    0.3528   -1.8208   -1.6042 C   0  0  0  0  0  0  0  0  0  0  0  0
    1.4010   -2.6267   -1.2147 N   0  0  0  0  0  0  0  0  0  0  0  0
    2.1630   -2.3606   -0.6092 H   0  0  0  0  0  0  0  0  0  0  0  0
    1.2346   -3.8307   -1.7875 C   0  0  0  0  0  0  0  0  0  0  0  0
    1.9027   -4.6757   -1.6740 H   0  0  0  0  0  0  0  0  0  0  0  0
    0.1139   -3.8438   -2.5239 N   0  0  0  0  0  0  0  0  0  0  0  0
   -0.4530   -2.5709   -2.4186 C   0  0  0  0  0  0  0  0  0  0  0  0
   -1.3817   -2.2458   -2.8694 H   0  0  0  0  0  0  0  0  0  0  0  0
   -0.6169    1.0661    0.8418 C   0  0  0  0  0  0  0  0  0  0  0  0
    0.1653    1.9313    0.4489 O   0  0  0  0  0  0  0  0  0  0  0  0
   -1.5705    1.3181    1.7471 N   0  0  0  0  0  0  0  0  0  0  0  0
   -2.1373    0.5432    2.0590 H   0  0  0  0  0  0  0  0  0  0  0  0
   -1.8118    2.6268    2.3490 C   0  0  0  0  0  0  0  0  0  0  0  0
   -2.0533    3.3530    1.5696 H   0  0  0  0  0  0  0  0  0  0  0  0
   -2.6416    2.5680    3.0539 H   0  0  0  0  0  0  0  0  0  0  0  0
   -0.9167    2.9644    2.8737 H   0  0  0  0  0  0  0  0  0  0  0  0
  5  6  2  0  0  0  0
  5  7  1  0  0  0  0
  2  3  1  0  0  0  0
  2  4  1  0  0  0  0
  2  5  1  0  0  0  0
  1  2  1  0  0  0  0
 22 23  2  0  0  0  0
 22 24  1  0  0  0  0
 20 21  1  0  0  0  0
 19 20  1  0  0  0  0
 17 18  1  0  0  0  0
 17 19  2  0  0  0  0
 15 16  1  0  0  0  0
 15 17  1  0  0  0  0
 14 15  1  0  0  0  0
 14 20  2  0  0  0  0
 11 12  1  0  0  0  0
 11 13  1  0  0  0  0
 11 14  1  0  0  0  0
  9 10  1  0  0  0  0
  9 11  1  0  0  0  0
  9 22  1  0  0  0  0
  7  8  1  0  0  0  0
  7  9  1  0  0  0  0
 26 27  1  0  0  0  0
 26 28  1  0  0  0  0
 26 29  1  0  0  0  0
 24 25  1  0  0  0  0
 24 26  1  0  0  0  0
M  END
$$$$
default_name
  -OEChem-01062215323D

 29 29  0     1  0  0  0  0  0999 V2000
   -3.6042   -3.5728    1.4576 H   0  0  0  0  0  0  0  0  0  0  0  0
   -3.5202   -2.6488    0.8866 C   0  0  0  0  0  0  0  0  0  0  0  0
   -4.2052   -1.9048    1.2896 H   0  0  0  0  0  0  0  0  0  0  0  0
   -3.7552   -2.8428   -0.1584 H   0  0  0  0  0  0  0  0  0  0  0  0
   -2.1052   -2.1358    0.9946 C   0  0  0  0  0  0  0  0  0  0  0  0
   -1.2852   -2.7288    1.6826 O   0  0  0  0  0  0  0  0  0  0  0  0
   -1.8202   -1.0288    0.3146 N   0  0  0  0  0  0  0  0  0  0  0  0
   -2.5542   -0.5788   -0.2104 H   0  0  0  0  0  0  0  0  0  0  0  0
   -0.5102   -0.3728    0.3086 C   0  0  1  0  0  0  0  0  0  0  0  0
    0.1600   -0.9246    0.9693 H   0  0  0  0  0  0  0  0  0  0  0  0
    0.0732   -0.4232   -1.1156 C   0  0  0  0  0  0  0  0  0  0  0  0
   -0.6263    0.0523   -1.8053 H   0  0  0  0  0  0  0  0  0  0  0  0
    1.0052    0.1446   -1.1385 H   0  0  0  0  0  0  0  0  0  0  0  0
    0.3528   -1.8208   -1.6042 C   0  0  0  0  0  0  0  0  0  0  0  0
    1.4010   -2.6267   -1.2147 N   0  0  0  0  0  0  0  0  0  0  0  0
    2.1630   -2.3606   -0.6092 H   0  0  0  0  0  0  0  0  0  0  0  0
    1.2346   -3.8307   -1.7875 C   0  0  0  0  0  0  0  0  0  0  0  0
    1.9027   -4.6757   -1.6740 H   0  0  0  0  0  0  0  0  0  0  0  0
    0.1139   -3.8438   -2.5239 N   0  0  0  0  0  0  0  0  0  0  0  0
   -0.4530   -2.5709   -2.4186 C   0  0  0  0  0  0  0  0  0  0  0  0
   -1.3817   -2.2458   -2.8694 H   0  0  0  0  0  0  0  0  0  0  0  0
   -0.6169    1.0661    0.8418 C   0  0  0  0  0  0  0  0  0  0  0  0
   -0.0356    1.9846    0.2647 O   0  0  0  0  0  0  0  0  0  0  0  0
   -1.3429    1.2599    1.9499 N   0  0  0  0  0  0  0  0  0  0  0  0
   -1.7440    0.4477    2.3954 H   0  0  0  0  0  0  0  0  0  0  0  0
   -1.5511    2.5593    2.5833 C   0  0  0  0  0  0  0  0  0  0  0  0
   -2.0392    3.2387    1.8809 H   0  0  0  0  0  0  0  0  0  0  0  0
   -2.1772    2.4486    3.4691 H   0  0  0  0  0  0  0  0  0  0  0  0
   -0.5908    2.9891    2.8725 H   0  0  0  0  0  0  0  0  0  0  0  0
  5  6  2  0  0  0  0
  5  7  1  0  0  0  0
  2  3  1  0  0  0  0
  2  4  1  0  0  0  0
  2  5  1  0  0  0  0
  1  2  1  0  0  0  0
 22 23  2  0  0  0  0
 22 24  1  0  0  0  0
 20 21  1  0  0  0  0
 19 20  1  0  0  0  0
 17 18  1  0  0  0  0
 17 19  2  0  0  0  0
 15 16  1  0  0  0  0
 15 17  1  0  0  0  0
 14 15  1  0  0  0  0
 14 20  2  0  0  0  0
 11 12  1  0  0  0  0
 11 13  1  0  0  0  0
 11 14  1  0  0  0  0
  9 10  1  0  0  0  0
  9 11  1  0  0  0  0
  9 22  1  0  0  0  0
  7  8  1  0  0  0  0
  7  9  1  0  0  0  0
 26 27  1  0  0  0  0
 26 28  1  0  0  0  0
 26 29  1  0  0  0  0
 24 25  1  0  0  0  0
 24 26  1  0  0  0  0
M  END
$$$$
default_name
  -OEChem-01062215323D

 29 29  0     1  0  0  0  0  0999 V2000
   -3.6042   -3.5728    1.4576 H   0  0  0  0  0  0  0  0  0  0  0  0
   -3.5202   -2.6488    0.8866 C   0  0  0  0  0  0  0  0  0  0  0  0
   -4.2052   -1.9048    1.2896 H   0  0  0  0  0  0  0  0  0  0  0  0
   -3.7552   -2.8428   -0.1584 H   0  0  0  0  0  0  0  0  0  0  0  0
   -2.1052   -2.1358    0.9946 C   0  0  0  0  0  0  0  0  0  0  0  0
   -1.2852   -2.7288    1.6826 O   0  0  0  0  0  0  0  0  0  0  0  0
   -1.8202   -1.0288    0.3146 N   0  0  0  0  0  0  0  0  0  0  0  0
   -2.5542   -0.5788   -0.2104 H   0  0  0  0  0  0  0  0  0  0  0  0
   -0.5102   -0.3728    0.3086 C   0  0  1  0  0  0  0  0  0  0  0  0
    0.1600   -0.9246    0.9693 H   0  0  0  0  0  0  0  0  0  0  0  0
    0.0732   -0.4232   -1.1156 C   0  0  0  0  0  0  0  0  0  0  0  0
   -0.6263    0.0523   -1.8053 H   0  0  0  0  0  0  0  0  0  0  0  0
    1.0052    0.1446   -1.1385 H   0  0  0  0  0  0  0  0  0  0  0  0
    0.3528   -1.8208   -1.6042 C   0  0  0  0  0  0  0  0  0  0  0  0
    1.4010   -2.6267   -1.2147 N   0  0  0  0  0  0  0  0  0  0  0  0
    2.1630   -2.3606   -0.6092 H   0  0  0  0  0  0  0  0  0  0  0  0
    1.2346   -3.8307   -1.7875 C   0  0  0  0  0  0  0  0  0  0  0  0
    1.9027   -4.6757   -1.6740 H   0  0  0  0  0  0  0  0  0  0  0  0
    0.1139   -3.8438   -2.5239 N   0  0  0  0  0  0  0  0  0  0  0  0
   -0.4530   -2.5709   -2.4186 C   0  0  0  0  0  0  0  0  0  0  0  0
   -1.3817   -2.2458   -2.8694 H   0  0  0  0  0  0  0  0  0  0  0  0
   -0.6169    1.0661    0.8418 C   0  0  0  0  0  0  0  0  0  0  0  0
   -0.2790    2.0149    0.1344 O   0  0  0  0  0  0  0  0  0  0  0  0
   -1.0688    1.2276    2.0917 N   0  0  0  0  0  0  0  0  0  0  0  0
   -1.2740    0.3968    2.6269 H   0  0  0  0  0  0  0  0  0  0  0  0
   -1.2365    2.5217    2.7477 C   0  0  0  0  0  0  0  0  0  0  0  0
   -1.9400    3.1351    2.1802 H   0  0  0  0  0  0  0  0  0  0  0  0
   -1.6175    2.3824    3.7598 H   0  0  0  0  0  0  0  0  0  0  0  0
   -0.2784    3.0421    2.7920 H   0  0  0  0  0  0  0  0  0  0  0  0
  5  6  2  0  0  0  0
  5  7  1  0  0  0  0
  2  3  1  0  0  0  0
  2  4  1  0  0  0  0
  2  5  1  0  0  0  0
  1  2  1  0  0  0  0
 22 23  2  0  0  0  0
 22 24  1  0  0  0  0
 20 21  1  0  0  0  0
 19 20  1  0  0  0  0
 17 18  1  0  0  0  0
 17 19  2  0  0  0  0
 15 16  1  0  0  0  0
 15 17  1  0  0  0  0
 14 15  1  0  0  0  0
 14 20  2  0  0  0  0
 11 12  1  0  0  0  0
 11 13  1  0  0  0  0
 11 14  1  0  0  0  0
  9 10  1  0  0  0  0
  9 11  1  0  0  0  0
  9 22  1  0  0  0  0
  7  8  1  0  0  0  0
  7  9  1  0  0  0  0
 26 27  1  0  0  0  0
 26 28  1  0  0  0  0
 26 29  1  0  0  0  0
 24 25  1  0  0  0  0
 24 26  1  0  0  0  0
M  END
$$$$
default_name
  -OEChem-01062215323D

 29 29  0     1  0  0  0  0  0999 V2000
   -3.6042   -3.5728    1.4576 H   0  0  0  0  0  0  0  0  0  0  0  0
   -3.5202   -2.6488    0.8866 C   0  0  0  0  0  0  0  0  0  0  0  0
   -4.2052   -1.9048    1.2896 H   0  0  0  0  0  0  0  0  0  0  0  0
   -3.7552   -2.8428   -0.1584 H   0  0  0  0  0  0  0  0  0  0  0  0
   -2.1052   -2.1358    0.9946 C   0  0  0  0  0  0  0  0  0  0  0  0
   -1.2852   -2.7288    1.6826 O   0  0  0  0  0  0  0  0  0  0  0  0
   -1.8202   -1.0288    0.3146 N   0  0  0  0  0  0  0  0  0  0  0  0
   -2.5542   -0.5788   -0.2104 H   0  0  0  0  0  0  0  0  0  0  0  0
   -0.5102   -0.3728    0.3086 C   0  0  1  0  0  0  0  0  0  0  0  0
    0.1600   -0.9246    0.9693 H   0  0  0  0  0  0  0  0  0  0  0  0
    0.0732   -0.4232   -1.1156 C   0  0  0  0  0  0  0  0  0  0  0  0
   -0.6263    0.0523   -1.8053 H   0  0  0  0  0  0  0  0  0  0  0  0
    1.0052    0.1446   -1.1385 H   0  0  0  0  0  0  0  0  0  0  0  0
    0.3528   -1.8208   -1.6042 C   0  0  0  0  0  0  0  0  0  0  0  0
    1.4010   -2.6267   -1.2147 N   0  0  0  0  0  0  0  0  0  0  0  0
    2.1630   -2.3606   -0.6092 H   0  0  0  0  0  0  0  0  0  0  0  0
    1.2346   -3.8307   -1.7875 C   0  0  0  0  0  0  0  0  0  0  0  0
    1.9027   -4.6757   -1.6740 H   0  0  0  0  0  0  0  0  0  0  0  0
    0.1139   -3.8438   -2.5239 N   0  0  0  0  0  0  0  0  0  0  0  0
   -0.4530   -2.5709   -2.4186 C   0  0  0  0  0  0  0  0  0  0  0  0
   -1.3817   -2.2458   -2.8694 H   0  0  0  0  0  0  0  0  0  0  0  0
   -0.6169    1.0661    0.8418 C   0  0  0  0  0  0  0  0  0  0  0  0
   -0.5484    2.0199    0.0670 O   0  0  0  0  0  0  0  0  0  0  0  0
   -0.7667    1.2237    2.1628 N   0  0  0  0  0  0  0  0  0  0  0  0
   -0.7595    0.3939    2.7377 H   0  0  0  0  0  0  0  0  0  0  0  0
   -0.8894    2.5166    2.8310 C   0  0  0  0  0  0  0  0  0  0  0  0
   -1.7624    3.0494    2.4472 H   0  0  0  0  0  0  0  0  0  0  0  0
   -1.0005    2.3738    3.9063 H   0  0  0  0  0  0  0  0  0  0  0  0
   -0.0010    3.1198    2.6377 H   0  0  0  0  0  0  0  0  0  0  0  0
  5  6  2  0  0  0  0
  5  7  1  0  0  0  0
  2  3  1  0  0  0  0
  2  4  1  0  0  0  0
  2  5  1  0  0  0  0
  1  2  1  0  0  0  0
 22 23  2  0  0  0  0
 22 24  1  0  0  0  0
 20 21  1  0  0  0  0
 19 20  1  0  0  0  0
 17 18  1  0  0  0  0
 17 19  2  0  0  0  0
 15 16  1  0  0  0  0
 15 17  1  0  0  0  0
 14 15  1  0  0  0  0
 14 20  2  0  0  0  0
 11 12  1  0  0  0  0
 11 13  1  0  0  0  0
 11 14  1  0  0  0  0
  9 10  1  0  0  0  0
  9 11  1  0  0  0  0
  9 22  1  0  0  0  0
  7  8  1  0  0  0  0
  7  9  1  0  0  0  0
 26 27  1  0  0  0  0
 26 28  1  0  0  0  0
 26 29  1  0  0  0  0
 24 25  1  0  0  0  0
 24 26  1  0  0  0  0
M  END
$$$$
default_name
  -OEChem-01062215323D

 29 29  0     1  0  0  0  0  0999 V2000
   -3.6042   -3.5728    1.4576 H   0  0  0  0  0  0  0  0  0  0  0  0
   -3.5202   -2.6488    0.8866 C   0  0  0  0  0  0  0  0  0  0  0  0
   -4.2052   -1.9048    1.2896 H   0  0  0  0  0  0  0  0  0  0  0  0
   -3.7552   -2.8428   -0.1584 H   0  0  0  0  0  0  0  0  0  0  0  0
   -2.1052   -2.1358    0.9946 C   0  0  0  0  0  0  0  0  0  0  0  0
   -1.2852   -2.7288    1.6826 O   0  0  0  0  0  0  0  0  0  0  0  0
   -1.8202   -1.0288    0.3146 N   0  0  0  0  0  0  0  0  0  0  0  0
   -2.5542   -0.5788   -0.2104 H   0  0  0  0  0  0  0  0  0  0  0  0
   -0.5102   -0.3728    0.3086 C   0  0  1  0  0  0  0  0  0  0  0  0
    0.1600   -0.9246    0.9693 H   0  0  0  0  0  0  0  0  0  0  0  0
    0.0732   -0.4232   -1.1156 C   0  0  0  0  0  0  0  0  0  0  0  0
   -0.6263    0.0523   -1.8053 H   0  0  0  0  0  0  0  0  0  0  0  0
    1.0052    0.1446   -1.1385 H   0  0  0  0  0  0  0  0  0  0  0  0
    0.3528   -1.8208   -1.6042 C   0  0  0  0  0  0  0  0  0  0  0  0
    1.4010   -2.6267   -1.2147 N   0  0  0  0  0  0  0  0  0  0  0  0
    2.1630   -2.3606   -0.6092 H   0  0  0  0  0  0  0  0  0  0  0  0
    1.2346   -3.8307   -1.7875 C   0  0  0  0  0  0  0  0  0  0  0  0
    1.9027   -4.6757   -1.6740 H   0  0  0  0  0  0  0  0  0  0  0  0
    0.1139   -3.8438   -2.5239 N   0  0  0  0  0  0  0  0  0  0  0  0
   -0.4530   -2.5709   -2.4186 C   0  0  0  0  0  0  0  0  0  0  0  0
   -1.3817   -2.2458   -2.8694 H   0  0  0  0  0  0  0  0  0  0  0  0
   -0.6169    1.0661    0.8418 C   0  0  0  0  0  0  0  0  0  0  0  0
   -0.8253    1.9994    0.0670 O   0  0  0  0  0  0  0  0  0  0  0  0
   -0.4574    1.2482    2.1585 N   0  0  0  0  0  0  0  0  0  0  0  0
   -0.2354    0.4393    2.7201 H   0  0  0  0  0  0  0  0  0  0  0  0
   -0.5335    2.5443    2.8275 C   0  0  0  0  0  0  0  0  0  0  0  0
   -1.5185    2.9872    2.6637 H   0  0  0  0  0  0  0  0  0  0  0  0
   -0.3682    2.4236    3.8985 H   0  0  0  0  0  0  0  0  0  0  0  0
    0.2226    3.2171    2.4200 H   0  0  0  0  0  0  0  0  0  0  0  0
  5  6  2  0  0  0  0
  5  7  1  0  0  0  0
  2  3  1  0  0  0  0
  2  4  1  0  0  0  0
  2  5  1  0  0  0  0
  1  2  1  0  0  0  0
 22 23  2  0  0  0  0
 22 24  1  0  0  0  0
 20 21  1  0  0  0  0
 19 20  1  0  0  0  0
 17 18  1  0  0  0  0
 17 19  2  0  0  0  0
 15 16  1  0  0  0  0
 15 17  1  0  0  0  0
 14 15  1  0  0  0  0
 14 20  2  0  0  0  0
 11 12  1  0  0  0  0
 11 13  1  0  0  0  0
 11 14  1  0  0  0  0
  9 10  1  0  0  0  0
  9 11  1  0  0  0  0
  9 22  1  0  0  0  0
  7  8  1  0  0  0  0
  7  9  1  0  0  0  0
 26 27  1  0  0  0  0
 26 28  1  0  0  0  0
 26 29  1  0  0  0  0
 24 25  1  0  0  0  0
 24 26  1  0  0  0  0
M  END
$$$$
default_name
  -OEChem-01062215323D

 29 29  0     1  0  0  0  0  0999 V2000
   -3.6042   -3.5728    1.4576 H   0  0  0  0  0  0  0  0  0  0  0  0
   -3.5202   -2.6488    0.8866 C   0  0  0  0  0  0  0  0  0  0  0  0
   -4.2052   -1.9048    1.2896 H   0  0  0  0  0  0  0  0  0  0  0  0
   -3.7552   -2.8428   -0.1584 H   0  0  0  0  0  0  0  0  0  0  0  0
   -2.1052   -2.1358    0.9946 C   0  0  0  0  0  0  0  0  0  0  0  0
   -1.2852   -2.7288    1.6826 O   0  0  0  0  0  0  0  0  0  0  0  0
   -1.8202   -1.0288    0.3146 N   0  0  0  0  0  0  0  0  0  0  0  0
   -2.5542   -0.5788   -0.2104 H   0  0  0  0  0  0  0  0  0  0  0  0
   -0.5102   -0.3728    0.3086 C   0  0  1  0  0  0  0  0  0  0  0  0
    0.1600   -0.9246    0.9693 H   0  0  0  0  0  0  0  0  0  0  0  0
    0.0732   -0.4232   -1.1156 C   0  0  0  0  0  0  0  0  0  0  0  0
   -0.6263    0.0523   -1.8053 H   0  0  0  0  0  0  0  0  0  0  0  0
    1.0052    0.1446   -1.1385 H   0  0  0  0  0  0  0  0  0  0  0  0
    0.3528   -1.8208   -1.6042 C   0  0  0  0  0  0  0  0  0  0  0  0
    1.4010   -2.6267   -1.2147 N   0  0  0  0  0  0  0  0  0  0  0  0
    2.1630   -2.3606   -0.6092 H   0  0  0  0  0  0  0  0  0  0  0  0
    1.2346   -3.8307   -1.7875 C   0  0  0  0  0  0  0  0  0  0  0  0
    1.9027   -4.6757   -1.6740 H   0  0  0  0  0  0  0  0  0  0  0  0
    0.1139   -3.8438   -2.5239 N   0  0  0  0  0  0  0  0  0  0  0  0
   -0.4530   -2.5709   -2.4186 C   0  0  0  0  0  0  0  0  0  0  0  0
   -1.3817   -2.2458   -2.8694 H   0  0  0  0  0  0  0  0  0  0  0  0
   -0.6169    1.0661    0.8418 C   0  0  0  0  0  0  0  0  0  0  0  0
   -1.0910    1.9547    0.1344 O   0  0  0  0  0  0  0  0  0  0  0  0
   -0.1618    1.2996    2.0790 N   0  0  0  0  0  0  0  0  0  0  0  0
    0.2625    0.5298    2.5754 H   0  0  0  0  0  0  0  0  0  0  0  0
   -0.1931    2.6029    2.7375 C   0  0  0  0  0  0  0  0  0  0  0  0
   -1.2249    2.9530    2.8148 H   0  0  0  0  0  0  0  0  0  0  0  0
    0.2361    2.5282    3.7371 H   0  0  0  0  0  0  0  0  0  0  0  0
    0.3772    3.3271    2.1539 H   0  0  0  0  0  0  0  0  0  0  0  0
  5  6  2  0  0  0  0
  5  7  1  0  0  0  0
  2  3  1  0  0  0  0
  2  4  1  0  0  0  0
  2  5  1  0  0  0  0
  1  2  1  0  0  0  0
 22 23  2  0  0  0  0
 22 24  1  0  0  0  0
 20 21  1  0  0  0  0
 19 20  1  0  0  0  0
 17 18  1  0  0  0  0
 17 19  2  0  0  0  0
 15 16  1  0  0  0  0
 15 17  1  0  0  0  0
 14 15  1  0  0  0  0
 14 20  2  0  0  0  0
 11 12  1  0  0  0  0
 11 13  1  0  0  0  0
 11 14  1  0  0  0  0
  9 10  1  0  0  0  0
  9 11  1  0  0  0  0
  9 22  1  0  0  0  0
  7  8  1  0  0  0  0
  7  9  1  0  0  0  0
 26 27  1  0  0  0  0
 26 28  1  0  0  0  0
 26 29  1  0  0  0  0
 24 25  1  0  0  0  0
 24 26  1  0  0  0  0
M  END
$$$$
default_name
  -OEChem-01062215323D

 29 29  0     1  0  0  0  0  0999 V2000
   -3.6042   -3.5728    1.4576 H   0  0  0  0  0  0  0  0  0  0  0  0
   -3.5202   -2.6488    0.8866 C   0  0  0  0  0  0  0  0  0  0  0  0
   -4.2052   -1.9048    1.2896 H   0  0  0  0  0  0  0  0  0  0  0  0
   -3.7552   -2.8428   -0.1584 H   0  0  0  0  0  0  0  0  0  0  0  0
   -2.1052   -2.1358    0.9946 C   0  0  0  0  0  0  0  0  0  0  0  0
   -1.2852   -2.7288    1.6826 O   0  0  0  0  0  0  0  0  0  0  0  0
   -1.8202   -1.0288    0.3146 N   0  0  0  0  0  0  0  0  0  0  0  0
   -2.5542   -0.5788   -0.2104 H   0  0  0  0  0  0  0  0  0  0  0  0
   -0.5102   -0.3728    0.3086 C   0  0  1  0  0  0  0  0  0  0  0  0
    0.1600   -0.9246    0.9693 H   0  0  0  0  0  0  0  0  0  0  0  0
    0.0732   -0.4232   -1.1156 C   0  0  0  0  0  0  0  0  0  0  0  0
   -0.6263    0.0523   -1.8053 H   0  0  0  0  0  0  0  0  0  0  0  0
    1.0052    0.1446   -1.1385 H   0  0  0  0  0  0  0  0  0  0  0  0
    0.3528   -1.8208   -1.6042 C   0  0  0  0  0  0  0  0  0  0  0  0
    1.4010   -2.6267   -1.2147 N   0  0  0  0  0  0  0  0  0  0  0  0
    2.1630   -2.3606   -0.6092 H   0  0  0  0  0  0  0  0  0  0  0  0
    1.2346   -3.8307   -1.7875 C   0  0  0  0  0  0  0  0  0  0  0  0
    1.9027   -4.6757   -1.6740 H   0  0  0  0  0  0  0  0  0  0  0  0
    0.1139   -3.8438   -2.5239 N   0  0  0  0  0  0  0  0  0  0  0  0
   -0.4530   -2.5709   -2.4186 C   0  0  0  0  0  0  0  0  0  0  0  0
   -1.3817   -2.2458   -2.8694 H   0  0  0  0  0  0  0  0  0  0  0  0
   -0.6169    1.0661    0.8418 C   0  0  0  0  0  0  0  0  0  0  0  0
   -1.3273    1.8889    0.2646 O   0  0  0  0  0  0  0  0  0  0  0  0
    0.0998    1.3743    1.9298 N   0  0  0  0  0  0  0  0  0  0  0  0
    0.7003    0.6593    2.3135 H   0  0  0  0  0  0  0  0  0  0  0  0
    0.1087    2.6884    2.5671 C   0  0  0  0  0  0  0  0  0  0  0  0
   -0.9017    2.9490    2.8903 H   0  0  0  0  0  0  0  0  0  0  0  0
    0.7714    2.6806    3.4330 H   0  0  0  0  0  0  0  0  0  0  0  0
    0.4523    3.4426    1.8574 H   0  0  0  0  0  0  0  0  0  0  0  0
  5  6  2  0  0  0  0
  5  7  1  0  0  0  0
  2  3  1  0  0  0  0
  2  4  1  0  0  0  0
  2  5  1  0  0  0  0
  1  2  1  0  0  0  0
 22 23  2  0  0  0  0
 22 24  1  0  0  0  0
 20 21  1  0  0  0  0
 19 20  1  0  0  0  0
 17 18  1  0  0  0  0
 17 19  2  0  0  0  0
 15 16  1  0  0  0  0
 15 17  1  0  0  0  0
 14 15  1  0  0  0  0
 14 20  2  0  0  0  0
 11 12  1  0  0  0  0
 11 13  1  0  0  0  0
 11 14  1  0  0  0  0
  9 10  1  0  0  0  0
  9 11  1  0  0  0  0
  9 22  1  0  0  0  0
  7  8  1  0  0  0  0
  7  9  1  0  0  0  0
 26 27  1  0  0  0  0
 26 28  1  0  0  0  0
 26 29  1  0  0  0  0
 24 25  1  0  0  0  0
 24 26  1  0  0  0  0
M  END
$$$$
default_name
  -OEChem-01062215323D

 29 29  0     1  0  0  0  0  0999 V2000
   -3.6042   -3.5728    1.4576 H   0  0  0  0  0  0  0  0  0  0  0  0
   -3.5202   -2.6488    0.8866 C   0  0  0  0  0  0  0  0  0  0  0  0
   -4.2052   -1.9048    1.2896 H   0  0  0  0  0  0  0  0  0  0  0  0
   -3.7552   -2.8428   -0.1584 H   0  0  0  0  0  0  0  0  0  0  0  0
   -2.1052   -2.1358    0.9946 C   0  0  0  0  0  0  0  0  0  0  0  0
   -1.2852   -2.7288    1.6826 O   0  0  0  0  0  0  0  0  0  0  0  0
   -1.8202   -1.0288    0.3146 N   0  0  0  0  0  0  0  0  0  0  0  0
   -2.5542   -0.5788   -0.2104 H   0  0  0  0  0  0  0  0  0  0  0  0
   -0.5102   -0.3728    0.3086 C   0  0  1  0  0  0  0  0  0  0  0  0
    0.1600   -0.9246    0.9693 H   0  0  0  0  0  0  0  0  0  0  0  0
    0.0732   -0.4232   -1.1156 C   0  0  0  0  0  0  0  0  0  0  0  0
   -0.6263    0.0523   -1.8053 H   0  0  0  0  0  0  0  0  0  0  0  0
    1.0052    0.1446   -1.1385 H   0  0  0  0  0  0  0  0  0  0  0  0
    0.3528   -1.8208   -1.6042 C   0  0  0  0  0  0  0  0  0  0  0  0
    1.4010   -2.6267   -1.2147 N   0  0  0  0  0  0  0  0  0  0  0  0
    2.1630   -2.3606   -0.6092 H   0  0  0  0  0  0  0  0  0  0  0  0
    1.2346   -3.8307   -1.7875 C   0  0  0  0  0  0  0  0  0  0  0  0
    1.9027   -4.6757   -1.6740 H   0  0  0  0  0  0  0  0  0  0  0  0
    0.1139   -3.8438   -2.5239 N   0  0  0  0  0  0  0  0  0  0  0  0
   -0.4530   -2.5709   -2.4186 C   0  0  0  0  0  0  0  0  0  0  0  0
   -1.3817   -2.2458   -2.8694 H   0  0  0  0  0  0  0  0  0  0  0  0
   -0.6169    1.0661    0.8418 C   0  0  0  0  0  0  0  0  0  0  0  0
   -1.5181    1.8065    0.4488 O   0  0  0  0  0  0  0  0  0  0  0  0
    0.3097    1.4672    1.7209 N   0  0  0  0  0  0  0  0  0  0  0  0
    1.0481    0.8190    1.9522 H   0  0  0  0  0  0  0  0  0  0  0  0
    0.3512    2.7950    2.3279 C   0  0  0  0  0  0  0  0  0  0  0  0
   -0.5709    2.9755    2.8851 H   0  0  0  0  0  0  0  0  0  0  0  0
    1.2011    2.8704    3.0069 H   0  0  0  0  0  0  0  0  0  0  0  0
    0.4426    3.5555    1.5508 H   0  0  0  0  0  0  0  0  0  0  0  0
  5  6  2  0  0  0  0
  5  7  1  0  0  0  0
  2  3  1  0  0  0  0
  2  4  1  0  0  0  0
  2  5  1  0  0  0  0
  1  2  1  0  0  0  0
 22 23  2  0  0  0  0
 22 24  1  0  0  0  0
 20 21  1  0  0  0  0
 19 20  1  0  0  0  0
 17 18  1  0  0  0  0
 17 19  2  0  0  0  0
 15 16  1  0  0  0  0
 15 17  1  0  0  0  0
 14 15  1  0  0  0  0
 14 20  2  0  0  0  0
 11 12  1  0  0  0  0
 11 13  1  0  0  0  0
 11 14  1  0  0  0  0
  9 10  1  0  0  0  0
  9 11  1  0  0  0  0
  9 22  1  0  0  0  0
  7  8  1  0  0  0  0
  7  9  1  0  0  0  0
 26 27  1  0  0  0  0
 26 28  1  0  0  0  0
 26 29  1  0  0  0  0
 24 25  1  0  0  0  0
 24 26  1  0  0  0  0
M  END
$$$$
default_name
  -OEChem-01062215323D

 29 29  0     1  0  0  0  0  0999 V2000
   -3.6042   -3.5728    1.4576 H   0  0  0  0  0  0  0  0  0  0  0  0
   -3.5202   -2.6488    0.8866 C   0  0  0  0  0  0  0  0  0  0  0  0
   -4.2052   -1.9048    1.2896 H   0  0  0  0  0  0  0  0  0  0  0  0
   -3.7552   -2.8428   -0.1584 H   0  0  0  0  0  0  0  0  0  0  0  0
   -2.1052   -2.1358    0.9946 C   0  0  0  0  0  0  0  0  0  0  0  0
   -1.2852   -2.7288    1.6826 O   0  0  0  0  0  0  0  0  0  0  0  0
   -1.8202   -1.0288    0.3146 N   0  0  0  0  0  0  0  0  0  0  0  0
   -2.5542   -0.5788   -0.2104 H   0  0  0  0  0  0  0  0  0  0  0  0
   -0.5102   -0.3728    0.3086 C   0  0  1  0  0  0  0  0  0  0  0  0
    0.1600   -0.9246    0.9693 H   0  0  0  0  0  0  0  0  0  0  0  0
    0.0732   -0.4232   -1.1156 C   0  0  0  0  0  0  0  0  0  0  0  0
   -0.6263    0.0523   -1.8053 H   0  0  0  0  0  0  0  0  0  0  0  0
    1.0052    0.1446   -1.1385 H   0  0  0  0  0  0  0  0  0  0  0  0
    0.3528   -1.8208   -1.6042 C   0  0  0  0  0  0  0  0  0  0  0  0
    1.4010   -2.6267   -1.2147 N   0  0  0  0  0  0  0  0  0  0  0  0
    2.1630   -2.3606   -0.6092 H   0  0  0  0  0  0  0  0  0  0  0  0
    1.2346   -3.8307   -1.7875 C   0  0  0  0  0  0  0  0  0  0  0  0
    1.9027   -4.6757   -1.6740 H   0  0  0  0  0  0  0  0  0  0  0  0
    0.1139   -3.8438   -2.5239 N   0  0  0  0  0  0  0  0  0  0  0  0
   -0.4530   -2.5709   -2.4186 C   0  0  0  0  0  0  0  0  0  0  0  0
   -1.3817   -2.2458   -2.8694 H   0  0  0  0  0  0  0  0  0  0  0  0
   -0.6169    1.0661    0.8418 C   0  0  0  0  0  0  0  0  0  0  0  0
   -1.6504    1.7131    0.6744 O   0  0  0  0  0  0  0  0  0  0  0  0
    0.4535    1.5721    1.4667 N   0  0  0  0  0  0  0  0  0  0  0  0
    1.2823    0.9979    1.5162 H   0  0  0  0  0  0  0  0  0  0  0  0
    0.5180    2.9155    2.0363 C   0  0  0  0  0  0  0  0  0  0  0  0
   -0.2549    3.0306    2.7994 H   0  0  0  0  0  0  0  0  0  0  0  0
    1.4960    3.0846    2.4879 H   0  0  0  0  0  0  0  0  0  0  0  0
    0.3489    3.6581    1.2550 H   0  0  0  0  0  0  0  0  0  0  0  0
  5  6  2  0  0  0  0
  5  7  1  0  0  0  0
  2  3  1  0  0  0  0
  2  4  1  0  0  0  0
  2  5  1  0  0  0  0
  1  2  1  0  0  0  0
 22 23  2  0  0  0  0
 22 24  1  0  0  0  0
 20 21  1  0  0  0  0
 19 20  1  0  0  0  0
 17 18  1  0  0  0  0
 17 19  2  0  0  0  0
 15 16  1  0  0  0  0
 15 17  1  0  0  0  0
 14 15  1  0  0  0  0
 14 20  2  0  0  0  0
 11 12  1  0  0  0  0
 11 13  1  0  0  0  0
 11 14  1  0  0  0  0
  9 10  1  0  0  0  0
  9 11  1  0  0  0  0
  9 22  1  0  0  0  0
  7  8  1  0  0  0  0
  7  9  1  0  0  0  0
 26 27  1  0  0  0  0
 26 28  1  0  0  0  0
 26 29  1  0  0  0  0
 24 25  1  0  0  0  0
 24 26  1  0  0  0  0
M  END
$$$$
default_name
  -OEChem-01062215323D

 29 29  0     1  0  0  0  0  0999 V2000
   -3.6042   -3.5728    1.4576 H   0  0  0  0  0  0  0  0  0  0  0  0
   -3.5202   -2.6488    0.8866 C   0  0  0  0  0  0  0  0  0  0  0  0
   -4.2052   -1.9048    1.2896 H   0  0  0  0  0  0  0  0  0  0  0  0
   -3.7552   -2.8428   -0.1584 H   0  0  0  0  0  0  0  0  0  0  0  0
   -2.1052   -2.1358    0.9946 C   0  0  0  0  0  0  0  0  0  0  0  0
   -1.2852   -2.7288    1.6826 O   0  0  0  0  0  0  0  0  0  0  0  0
   -1.8202   -1.0288    0.3146 N   0  0  0  0  0  0  0  0  0  0  0  0
   -2.5542   -0.5788   -0.2104 H   0  0  0  0  0  0  0  0  0  0  0  0
   -0.5102   -0.3728    0.3086 C   0  0  1  0  0  0  0  0  0  0  0  0
    0.1600   -0.9246    0.9693 H   0  0  0  0  0  0  0  0  0  0  0  0
    0.0732   -0.4232   -1.1156 C   0  0  0  0  0  0  0  0  0  0  0  0
   -0.6263    0.0523   -1.8053 H   0  0  0  0  0  0  0  0  0  0  0  0
    1.0052    0.1446   -1.1385 H   0  0  0  0  0  0  0  0  0  0  0  0
    0.3528   -1.8208   -1.6042 C   0  0  0  0  0  0  0  0  0  0  0  0
    1.4010   -2.6267   -1.2147 N   0  0  0  0  0  0  0  0  0  0  0  0
    2.1630   -2.3606   -0.6092 H   0  0  0  0  0  0  0  0  0  0  0  0
    1.2346   -3.8307   -1.7875 C   0  0  0  0  0  0  0  0  0  0  0  0
    1.9027   -4.6757   -1.6740 H   0  0  0  0  0  0  0  0  0  0  0  0
    0.1139   -3.8438   -2.5239 N   0  0  0  0  0  0  0  0  0  0  0  0
   -0.4530   -2.5709   -2.4186 C   0  0  0  0  0  0  0  0  0  0  0  0
   -1.3817   -2.2458   -2.8694 H   0  0  0  0  0  0  0  0  0  0  0  0
   -0.6169    1.0661    0.8418 C   0  0  0  0  0  0  0  0  0  0  0  0
   -1.7152    1.6150    0.9260 O   0  0  0  0  0  0  0  0  0  0  0  0
    0.5215    1.6818    1.1844 N   0  0  0  0  0  0  0  0  0  0  0  0
    1.3869    1.1840    1.0350 H   0  0  0  0  0  0  0  0  0  0  0  0
    0.5978    3.0415    1.7120 C   0  0  0  0  0  0  0  0  0  0  0  0
    0.0245    3.1107    2.6392 H   0  0  0  0  0  0  0  0  0  0  0  0
    1.6360    3.3086    1.9113 H   0  0  0  0  0  0  0  0  0  0  0  0
    0.1776    3.7436    0.9901 H   0  0  0  0  0  0  0  0  0  0  0  0
  5  6  2  0  0  0  0
  5  7  1  0  0  0  0
  2  3  1  0  0  0  0
  2  4  1  0  0  0  0
  2  5  1  0  0  0  0
  1  2  1  0  0  0  0
 22 23  2  0  0  0  0
 22 24  1  0  0  0  0
 20 21  1  0  0  0  0
 19 20  1  0  0  0  0
 17 18  1  0  0  0  0
 17 19  2  0  0  0  0
 15 16  1  0  0  0  0
 15 17  1  0  0  0  0
 14 15  1  0  0  0  0
 14 20  2  0  0  0  0
 11 12  1  0  0  0  0
 11 13  1  0  0  0  0
 11 14  1  0  0  0  0
  9 10  1  0  0  0  0
  9 11  1  0  0  0  0
  9 22  1  0  0  0  0
  7  8  1  0  0  0  0
  7  9  1  0  0  0  0
 26 27  1  0  0  0  0
 26 28  1  0  0  0  0
 26 29  1  0  0  0  0
 24 25  1  0  0  0  0
 24 26  1  0  0  0  0
M  END
$$$$
default_name
  -OEChem-01062215323D

 29 29  0     1  0  0  0  0  0999 V2000
   -3.6042   -3.5728    1.4576 H   0  0  0  0  0  0  0  0  0  0  0  0
   -3.5202   -2.6488    0.8866 C   0  0  0  0  0  0  0  0  0  0  0  0
   -4.2052   -1.9048    1.2896 H   0  0  0  0  0  0  0  0  0  0  0  0
   -3.7552   -2.8428   -0.1584 H   0  0  0  0  0  0  0  0  0  0  0  0
   -2.1052   -2.1358    0.9946 C   0  0  0  0  0  0  0  0  0  0  0  0
   -1.2852   -2.7288    1.6826 O   0  0  0  0  0  0  0  0  0  0  0  0
   -1.8202   -1.0288    0.3146 N   0  0  0  0  0  0  0  0  0  0  0  0
   -2.5542   -0.5788   -0.2104 H   0  0  0  0  0  0  0  0  0  0  0  0
   -0.5102   -0.3728    0.3086 C   0  0  1  0  0  0  0  0  0  0  0  0
    0.2238   -1.0541    0.7413 H   0  0  0  0  0  0  0  0  0  0  0  0
   -0.0964   -0.0848   -1.1464 C   0  0  0  0  0  0  0  0  0  0  0  0
   -0.8640    0.5286   -1.6215 H   0  0  0  0  0  0  0  0  0  0  0  0
    0.8349    0.4845   -1.1453 H   0  0  0  0  0  0  0  0  0  0  0  0
    0.1042   -1.3277   -1.9742 C   0  0  0  0  0  0  0  0  0  0  0  0
    1.1785   -2.1887   -1.9060 N   0  0  0  0  0  0  0  0  0  0  0  0
    2.0093   -2.0603   -1.3479 H   0  0  0  0  0  0  0  0  0  0  0  0
    0.9292   -3.2293   -2.7186 C   0  0  0  0  0  0  0  0  0  0  0  0
    1.5934   -4.0692   -2.8819 H   0  0  0  0  0  0  0  0  0  0  0  0
   -0.2693   -3.0857   -3.3028 N   0  0  0  0  0  0  0  0  0  0  0  0
   -0.8014   -1.8790   -2.8409 C   0  0  0  0  0  0  0  0  0  0  0  0
   -1.7712   -1.4700   -3.0934 H   0  0  0  0  0  0  0  0  0  0  0  0
   -0.5333    0.9021    1.1689 C   0  0  0  0  0  0  0  0  0  0  0  0
   -1.5705    1.2492    1.7332 O   0  0  0  0  0  0  0  0  0  0  0  0
    0.6015    1.6073    1.2552 N   0  0  0  0  0  0  0  0  0  0  0  0
    1.3945    1.2866    0.7193 H   0  0  0  0  0  0  0  0  0  0  0  0
    0.7532    2.8347    2.0321 C   0  0  0  0  0  0  0  0  0  0  0  0
    0.5399    2.6345    3.0846 H   0  0  0  0  0  0  0  0  0  0  0  0
    1.7710    3.2143    1.9383 H   0  0  0  0  0  0  0  0  0  0  0  0
    0.0525    3.5901    1.6728 H   0  0  0  0  0  0  0  0  0  0  0  0
  5  6  2  0  0  0  0
  5  7  1  0  0  0  0
  2  3  1  0  0  0  0
  2  4  1  0  0  0  0
  2  5  1  0  0  0  0
  1  2  1  0  0  0  0
 22 23  2  0  0  0  0
 22 24  1  0  0  0  0
 20 21  1  0  0  0  0
 19 20  1  0  0  0  0
 17 18  1  0  0  0  0
 17 19  2  0  0  0  0
 15 16  1  0  0  0  0
 15 17  1  0  0  0  0
 14 15  1  0  0  0  0
 14 20  2  0  0  0  0
 11 12  1  0  0  0  0
 11 13  1  0  0  0  0
 11 14  1  0  0  0  0
  9 10  1  0  0  0  0
  9 11  1  0  0  0  0
  9 22  1  0  0  0  0
  7  8  1  0  0  0  0
  7  9  1  0  0  0  0
 26 27  1  0  0  0  0
 26 28  1  0  0  0  0
 26 29  1  0  0  0  0
 24 25  1  0  0  0  0
 24 26  1  0  0  0  0
M  END
$$$$
default_name
  -OEChem-01062215323D

 29 29  0     1  0  0  0  0  0999 V2000
   -3.6042   -3.5728    1.4576 H   0  0  0  0  0  0  0  0  0  0  0  0
   -3.5202   -2.6488    0.8866 C   0  0  0  0  0  0  0  0  0  0  0  0
   -4.2052   -1.9048    1.2896 H   0  0  0  0  0  0  0  0  0  0  0  0
   -3.7552   -2.8428   -0.1584 H   0  0  0  0  0  0  0  0  0  0  0  0
   -2.1052   -2.1358    0.9946 C   0  0  0  0  0  0  0  0  0  0  0  0
   -1.2852   -2.7288    1.6826 O   0  0  0  0  0  0  0  0  0  0  0  0
   -1.8202   -1.0288    0.3146 N   0  0  0  0  0  0  0  0  0  0  0  0
   -2.5542   -0.5788   -0.2104 H   0  0  0  0  0  0  0  0  0  0  0  0
   -0.5102   -0.3728    0.3086 C   0  0  1  0  0  0  0  0  0  0  0  0
    0.2238   -1.0541    0.7413 H   0  0  0  0  0  0  0  0  0  0  0  0
   -0.0964   -0.0848   -1.1464 C   0  0  0  0  0  0  0  0  0  0  0  0
   -0.8640    0.5286   -1.6215 H   0  0  0  0  0  0  0  0  0  0  0  0
    0.8349    0.4845   -1.1453 H   0  0  0  0  0  0  0  0  0  0  0  0
    0.1042   -1.3277   -1.9742 C   0  0  0  0  0  0  0  0  0  0  0  0
    1.1785   -2.1887   -1.9060 N   0  0  0  0  0  0  0  0  0  0  0  0
    2.0093   -2.0603   -1.3479 H   0  0  0  0  0  0  0  0  0  0  0  0
    0.9292   -3.2293   -2.7186 C   0  0  0  0  0  0  0  0  0  0  0  0
    1.5934   -4.0692   -2.8819 H   0  0  0  0  0  0  0  0  0  0  0  0
   -0.2693   -3.0857   -3.3028 N   0  0  0  0  0  0  0  0  0  0  0  0
   -0.8014   -1.8790   -2.8409 C   0  0  0  0  0  0  0  0  0  0  0  0
   -1.7712   -1.4700   -3.0934 H   0  0  0  0  0  0  0  0  0  0  0  0
   -0.5333    0.9021    1.1689 C   0  0  0  0  0  0  0  0  0  0  0  0
   -1.4647    1.1069    1.9470 O   0  0  0  0  0  0  0  0  0  0  0  0
    0.4789    1.7652    1.0179 N   0  0  0  0  0  0  0  0  0  0  0  0
    1.1767    1.5519    0.3203 H   0  0  0  0  0  0  0  0  0  0  0  0
    0.6137    3.0168    1.7586 C   0  0  0  0  0  0  0  0  0  0  0  0
    0.6622    2.8086    2.8298 H   0  0  0  0  0  0  0  0  0  0  0  0
    1.5217    3.5374    1.4529 H   0  0  0  0  0  0  0  0  0  0  0  0
   -0.2497    3.6559    1.5672 H   0  0  0  0  0  0  0  0  0  0  0  0
  5  6  2  0  0  0  0
  5  7  1  0  0  0  0
  2  3  1  0  0  0  0
  2  4  1  0  0  0  0
  2  5  1  0  0  0  0
  1  2  1  0  0  0  0
 22 23  2  0  0  0  0
 22 24  1  0  0  0  0
 20 21  1  0  0  0  0
 19 20  1  0  0  0  0
 17 18  1  0  0  0  0
 17 19  2  0  0  0  0
 15 16  1  0  0  0  0
 15 17  1  0  0  0  0
 14 15  1  0  0  0  0
 14 20  2  0  0  0  0
 11 12  1  0  0  0  0
 11 13  1  0  0  0  0
 11 14  1  0  0  0  0
  9 10  1  0  0  0  0
  9 11  1  0  0  0  0
  9 22  1  0  0  0  0
  7  8  1  0  0  0  0
  7  9  1  0  0  0  0
 26 27  1  0  0  0  0
 26 28  1  0  0  0  0
 26 29  1  0  0  0  0
 24 25  1  0  0  0  0
 24 26  1  0  0  0  0
M  END
$$$$
default_name
  -OEChem-01062215323D

 29 29  0     1  0  0  0  0  0999 V2000
   -3.6042   -3.5728    1.4576 H   0  0  0  0  0  0  0  0  0  0  0  0
   -3.5202   -2.6488    0.8866 C   0  0  0  0  0  0  0  0  0  0  0  0
   -4.2052   -1.9048    1.2896 H   0  0  0  0  0  0  0  0  0  0  0  0
   -3.7552   -2.8428   -0.1584 H   0  0  0  0  0  0  0  0  0  0  0  0
   -2.1052   -2.1358    0.9946 C   0  0  0  0  0  0  0  0  0  0  0  0
   -1.2852   -2.7288    1.6826 O   0  0  0  0  0  0  0  0  0  0  0  0
   -1.8202   -1.0288    0.3146 N   0  0  0  0  0  0  0  0  0  0  0  0
   -2.5542   -0.5788   -0.2104 H   0  0  0  0  0  0  0  0  0  0  0  0
   -0.5102   -0.3728    0.3086 C   0  0  1  0  0  0  0  0  0  0  0  0
    0.2238   -1.0541    0.7413 H   0  0  0  0  0  0  0  0  0  0  0  0
   -0.0964   -0.0848   -1.1464 C   0  0  0  0  0  0  0  0  0  0  0  0
   -0.8640    0.5286   -1.6215 H   0  0  0  0  0  0  0  0  0  0  0  0
    0.8349    0.4845   -1.1453 H   0  0  0  0  0  0  0  0  0  0  0  0
    0.1042   -1.3277   -1.9742 C   0  0  0  0  0  0  0  0  0  0  0  0
    1.1785   -2.1887   -1.9060 N   0  0  0  0  0  0  0  0  0  0  0  0
    2.0093   -2.0603   -1.3479 H   0  0  0  0  0  0  0  0  0  0  0  0
    0.9292   -3.2293   -2.7186 C   0  0  0  0  0  0  0  0  0  0  0  0
    1.5934   -4.0692   -2.8819 H   0  0  0  0  0  0  0  0  0  0  0  0
   -0.2693   -3.0857   -3.3028 N   0  0  0  0  0  0  0  0  0  0  0  0
   -0.8014   -1.8790   -2.8409 C   0  0  0  0  0  0  0  0  0  0  0  0
   -1.7712   -1.4700   -3.0934 H   0  0  0  0  0  0  0  0  0  0  0  0
   -0.5333    0.9021    1.1689 C   0  0  0  0  0  0  0  0  0  0  0  0
   -1.2960    0.9856    2.1312 O   0  0  0  0  0  0  0  0  0  0  0  0
    0.2868    1.8992    0.8142 N   0  0  0  0  0  0  0  0  0  0  0  0
    0.8423    1.7751   -0.0194 H   0  0  0  0  0  0  0  0  0  0  0  0
    0.3939    3.1714    1.5236 C   0  0  0  0  0  0  0  0  0  0  0  0
    0.7005    2.9935    2.5568 H   0  0  0  0  0  0  0  0  0  0  0  0
    1.1299    3.8115    1.0362 H   0  0  0  0  0  0  0  0  0  0  0  0
   -0.5738    3.6753    1.5298 H   0  0  0  0  0  0  0  0  0  0  0  0
  5  6  2  0  0  0  0
  5  7  1  0  0  0  0
  2  3  1  0  0  0  0
  2  4  1  0  0  0  0
  2  5  1  0  0  0  0
  1  2  1  0  0  0  0
 22 23  2  0  0  0  0
 22 24  1  0  0  0  0
 20 21  1  0  0  0  0
 19 20  1  0  0  0  0
 17 18  1  0  0  0  0
 17 19  2  0  0  0  0
 15 16  1  0  0  0  0
 15 17  1  0  0  0  0
 14 15  1  0  0  0  0
 14 20  2  0  0  0  0
 11 12  1  0  0  0  0
 11 13  1  0  0  0  0
 11 14  1  0  0  0  0
  9 10  1  0  0  0  0
  9 11  1  0  0  0  0
  9 22  1  0  0  0  0
  7  8  1  0  0  0  0
  7  9  1  0  0  0  0
 26 27  1  0  0  0  0
 26 28  1  0  0  0  0
 26 29  1  0  0  0  0
 24 25  1  0  0  0  0
 24 26  1  0  0  0  0
M  END
$$$$
default_name
  -OEChem-01062215323D

 29 29  0     1  0  0  0  0  0999 V2000
   -3.6042   -3.5728    1.4576 H   0  0  0  0  0  0  0  0  0  0  0  0
   -3.5202   -2.6488    0.8866 C   0  0  0  0  0  0  0  0  0  0  0  0
   -4.2052   -1.9048    1.2896 H   0  0  0  0  0  0  0  0  0  0  0  0
   -3.7552   -2.8428   -0.1584 H   0  0  0  0  0  0  0  0  0  0  0  0
   -2.1052   -2.1358    0.9946 C   0  0  0  0  0  0  0  0  0  0  0  0
   -1.2852   -2.7288    1.6826 O   0  0  0  0  0  0  0  0  0  0  0  0
   -1.8202   -1.0288    0.3146 N   0  0  0  0  0  0  0  0  0  0  0  0
   -2.5542   -0.5788   -0.2104 H   0  0  0  0  0  0  0  0  0  0  0  0
   -0.5102   -0.3728    0.3086 C   0  0  1  0  0  0  0  0  0  0  0  0
    0.2238   -1.0541    0.7413 H   0  0  0  0  0  0  0  0  0  0  0  0
   -0.0964   -0.0848   -1.1464 C   0  0  0  0  0  0  0  0  0  0  0  0
   -0.8640    0.5286   -1.6215 H   0  0  0  0  0  0  0  0  0  0  0  0
    0.8349    0.4845   -1.1453 H   0  0  0  0  0  0  0  0  0  0  0  0
    0.1042   -1.3277   -1.9742 C   0  0  0  0  0  0  0  0  0  0  0  0
    1.1785   -2.1887   -1.9060 N   0  0  0  0  0  0  0  0  0  0  0  0
    2.0093   -2.0603   -1.3479 H   0  0  0  0  0  0  0  0  0  0  0  0
    0.9292   -3.2293   -2.7186 C   0  0  0  0  0  0  0  0  0  0  0  0
    1.5934   -4.0692   -2.8819 H   0  0  0  0  0  0  0  0  0  0  0  0
   -0.2693   -3.0857   -3.3028 N   0  0  0  0  0  0  0  0  0  0  0  0
   -0.8014   -1.8790   -2.8409 C   0  0  0  0  0  0  0  0  0  0  0  0
   -1.7712   -1.4700   -3.0934 H   0  0  0  0  0  0  0  0  0  0  0  0
   -0.5333    0.9021    1.1689 C   0  0  0  0  0  0  0  0  0  0  0  0
   -1.0760    0.8936    2.2735 O   0  0  0  0  0  0  0  0  0  0  0  0
    0.0381    1.9999    0.6583 N   0  0  0  0  0  0  0  0  0  0  0  0
    0.4141    1.9410   -0.2767 H   0  0  0  0  0  0  0  0  0  0  0  0
    0.1089    3.2880    1.3431 C   0  0  0  0  0  0  0  0  0  0  0  0
    0.6522    3.1766    2.2842 H   0  0  0  0  0  0  0  0  0  0  0  0
    0.6224    4.0179    0.7167 H   0  0  0  0  0  0  0  0  0  0  0  0
   -0.8978    3.6470    1.5630 H   0  0  0  0  0  0  0  0  0  0  0  0
  5  6  2  0  0  0  0
  5  7  1  0  0  0  0
  2  3  1  0  0  0  0
  2  4  1  0  0  0  0
  2  5  1  0  0  0  0
  1  2  1  0  0  0  0
 22 23  2  0  0  0  0
 22 24  1  0  0  0  0
 20 21  1  0  0  0  0
 19 20  1  0  0  0  0
 17 18  1  0  0  0  0
 17 19  2  0  0  0  0
 15 16  1  0  0  0  0
 15 17  1  0  0  0  0
 14 15  1  0  0  0  0
 14 20  2  0  0  0  0
 11 12  1  0  0  0  0
 11 13  1  0  0  0  0
 11 14  1  0  0  0  0
  9 10  1  0  0  0  0
  9 11  1  0  0  0  0
  9 22  1  0  0  0  0
  7  8  1  0  0  0  0
  7  9  1  0  0  0  0
 26 27  1  0  0  0  0
 26 28  1  0  0  0  0
 26 29  1  0  0  0  0
 24 25  1  0  0  0  0
 24 26  1  0  0  0  0
M  END
$$$$
default_name
  -OEChem-01062215323D

 29 29  0     1  0  0  0  0  0999 V2000
   -3.6042   -3.5728    1.4576 H   0  0  0  0  0  0  0  0  0  0  0  0
   -3.5202   -2.6488    0.8866 C   0  0  0  0  0  0  0  0  0  0  0  0
   -4.2052   -1.9048    1.2896 H   0  0  0  0  0  0  0  0  0  0  0  0
   -3.7552   -2.8428   -0.1584 H   0  0  0  0  0  0  0  0  0  0  0  0
   -2.1052   -2.1358    0.9946 C   0  0  0  0  0  0  0  0  0  0  0  0
   -1.2852   -2.7288    1.6826 O   0  0  0  0  0  0  0  0  0  0  0  0
   -1.8202   -1.0288    0.3146 N   0  0  0  0  0  0  0  0  0  0  0  0
   -2.5542   -0.5788   -0.2104 H   0  0  0  0  0  0  0  0  0  0  0  0
   -0.5102   -0.3728    0.3086 C   0  0  1  0  0  0  0  0  0  0  0  0
    0.2238   -1.0541    0.7413 H   0  0  0  0  0  0  0  0  0  0  0  0
   -0.0964   -0.0848   -1.1464 C   0  0  0  0  0  0  0  0  0  0  0  0
   -0.8640    0.5286   -1.6215 H   0  0  0  0  0  0  0  0  0  0  0  0
    0.8349    0.4845   -1.1453 H   0  0  0  0  0  0  0  0  0  0  0  0
    0.1042   -1.3277   -1.9742 C   0  0  0  0  0  0  0  0  0  0  0  0
    1.1785   -2.1887   -1.9060 N   0  0  0  0  0  0  0  0  0  0  0  0
    2.0093   -2.0603   -1.3479 H   0  0  0  0  0  0  0  0  0  0  0  0
    0.9292   -3.2293   -2.7186 C   0  0  0  0  0  0  0  0  0  0  0  0
    1.5934   -4.0692   -2.8819 H   0  0  0  0  0  0  0  0  0  0  0  0
   -0.2693   -3.0857   -3.3028 N   0  0  0  0  0  0  0  0  0  0  0  0
   -0.8014   -1.8790   -2.8409 C   0  0  0  0  0  0  0  0  0  0  0  0
   -1.7712   -1.4700   -3.0934 H   0  0  0  0  0  0  0  0  0  0  0  0
   -0.5333    0.9021    1.1689 C   0  0  0  0  0  0  0  0  0  0  0  0
   -0.8196    0.8371    2.3641 O   0  0  0  0  0  0  0  0  0  0  0  0
   -0.2501    2.0606    0.5605 N   0  0  0  0  0  0  0  0  0  0  0  0
   -0.0787    2.0382   -0.4340 H   0  0  0  0  0  0  0  0  0  0  0  0
   -0.2221    3.3587    1.2295 C   0  0  0  0  0  0  0  0  0  0  0  0
    0.5205    3.3454    2.0305 H   0  0  0  0  0  0  0  0  0  0  0  0
    0.0338    4.1426    0.5161 H   0  0  0  0  0  0  0  0  0  0  0  0
   -1.1994    3.5728    1.6648 H   0  0  0  0  0  0  0  0  0  0  0  0
  5  6  2  0  0  0  0
  5  7  1  0  0  0  0
  2  3  1  0  0  0  0
  2  4  1  0  0  0  0
  2  5  1  0  0  0  0
  1  2  1  0  0  0  0
 22 23  2  0  0  0  0
 22 24  1  0  0  0  0
 20 21  1  0  0  0  0
 19 20  1  0  0  0  0
 17 18  1  0  0  0  0
 17 19  2  0  0  0  0
 15 16  1  0  0  0  0
 15 17  1  0  0  0  0
 14 15  1  0  0  0  0
 14 20  2  0  0  0  0
 11 12  1  0  0  0  0
 11 13  1  0  0  0  0
 11 14  1  0  0  0  0
  9 10  1  0  0  0  0
  9 11  1  0  0  0  0
  9 22  1  0  0  0  0
  7  8  1  0  0  0  0
  7  9  1  0  0  0  0
 26 27  1  0  0  0  0
 26 28  1  0  0  0  0
 26 29  1  0  0  0  0
 24 25  1  0  0  0  0
 24 26  1  0  0  0  0
M  END
$$$$
default_name
  -OEChem-01062215323D

 29 29  0     1  0  0  0  0  0999 V2000
   -3.6042   -3.5728    1.4576 H   0  0  0  0  0  0  0  0  0  0  0  0
   -3.5202   -2.6488    0.8866 C   0  0  0  0  0  0  0  0  0  0  0  0
   -4.2052   -1.9048    1.2896 H   0  0  0  0  0  0  0  0  0  0  0  0
   -3.7552   -2.8428   -0.1584 H   0  0  0  0  0  0  0  0  0  0  0  0
   -2.1052   -2.1358    0.9946 C   0  0  0  0  0  0  0  0  0  0  0  0
   -1.2852   -2.7288    1.6826 O   0  0  0  0  0  0  0  0  0  0  0  0
   -1.8202   -1.0288    0.3146 N   0  0  0  0  0  0  0  0  0  0  0  0
   -2.5542   -0.5788   -0.2104 H   0  0  0  0  0  0  0  0  0  0  0  0
   -0.5102   -0.3728    0.3086 C   0  0  1  0  0  0  0  0  0  0  0  0
    0.2238   -1.0541    0.7413 H   0  0  0  0  0  0  0  0  0  0  0  0
   -0.0964   -0.0848   -1.1464 C   0  0  0  0  0  0  0  0  0  0  0  0
   -0.8640    0.5286   -1.6215 H   0  0  0  0  0  0  0  0  0  0  0  0
    0.8349    0.4845   -1.1453 H   0  0  0  0  0  0  0  0  0  0  0  0
    0.1042   -1.3277   -1.9742 C   0  0  0  0  0  0  0  0  0  0  0  0
    1.1785   -2.1887   -1.9060 N   0  0  0  0  0  0  0  0  0  0  0  0
    2.0093   -2.0603   -1.3479 H   0  0  0  0  0  0  0  0  0  0  0  0
    0.9292   -3.2293   -2.7186 C   0  0  0  0  0  0  0  0  0  0  0  0
    1.5934   -4.0692   -2.8819 H   0  0  0  0  0  0  0  0  0  0  0  0
   -0.2693   -3.0857   -3.3028 N   0  0  0  0  0  0  0  0  0  0  0  0
   -0.8014   -1.8790   -2.8409 C   0  0  0  0  0  0  0  0  0  0  0  0
   -1.7712   -1.4700   -3.0934 H   0  0  0  0  0  0  0  0  0  0  0  0
   -0.5333    0.9021    1.1689 C   0  0  0  0  0  0  0  0  0  0  0  0
   -0.5444    0.8200    2.3968 O   0  0  0  0  0  0  0  0  0  0  0  0
   -0.5583    2.0772    0.5278 N   0  0  0  0  0  0  0  0  0  0  0  0
   -0.6025    2.0601   -0.4806 H   0  0  0  0  0  0  0  0  0  0  0  0
   -0.5763    3.3786    1.1905 C   0  0  0  0  0  0  0  0  0  0  0  0
    0.3145    3.4884    1.8131 H   0  0  0  0  0  0  0  0  0  0  0  0
   -0.5958    4.1770    0.4482 H   0  0  0  0  0  0  0  0  0  0  0  0
   -1.4582    3.4580    1.8281 H   0  0  0  0  0  0  0  0  0  0  0  0
  5  6  2  0  0  0  0
  5  7  1  0  0  0  0
  2  3  1  0  0  0  0
  2  4  1  0  0  0  0
  2  5  1  0  0  0  0
  1  2  1  0  0  0  0
 22 23  2  0  0  0  0
 22 24  1  0  0  0  0
 20 21  1  0  0  0  0
 19 20  1  0  0  0  0
 17 18  1  0  0  0  0
 17 19  2  0  0  0  0
 15 16  1  0  0  0  0
 15 17  1  0  0  0  0
 14 15  1  0  0  0  0
 14 20  2  0  0  0  0
 11 12  1  0  0  0  0
 11 13  1  0  0  0  0
 11 14  1  0  0  0  0
  9 10  1  0  0  0  0
  9 11  1  0  0  0  0
  9 22  1  0  0  0  0
  7  8  1  0  0  0  0
  7  9  1  0  0  0  0
 26 27  1  0  0  0  0
 26 28  1  0  0  0  0
 26 29  1  0  0  0  0
 24 25  1  0  0  0  0
 24 26  1  0  0  0  0
M  END
$$$$
default_name
  -OEChem-01062215323D

 29 29  0     1  0  0  0  0  0999 V2000
   -3.6042   -3.5728    1.4576 H   0  0  0  0  0  0  0  0  0  0  0  0
   -3.5202   -2.6488    0.8866 C   0  0  0  0  0  0  0  0  0  0  0  0
   -4.2052   -1.9048    1.2896 H   0  0  0  0  0  0  0  0  0  0  0  0
   -3.7552   -2.8428   -0.1584 H   0  0  0  0  0  0  0  0  0  0  0  0
   -2.1052   -2.1358    0.9946 C   0  0  0  0  0  0  0  0  0  0  0  0
   -1.2852   -2.7288    1.6826 O   0  0  0  0  0  0  0  0  0  0  0  0
   -1.8202   -1.0288    0.3146 N   0  0  0  0  0  0  0  0  0  0  0  0
   -2.5542   -0.5788   -0.2104 H   0  0  0  0  0  0  0  0  0  0  0  0
   -0.5102   -0.3728    0.3086 C   0  0  1  0  0  0  0  0  0  0  0  0
    0.2238   -1.0541    0.7413 H   0  0  0  0  0  0  0  0  0  0  0  0
   -0.0964   -0.0848   -1.1464 C   0  0  0  0  0  0  0  0  0  0  0  0
   -0.8640    0.5286   -1.6215 H   0  0  0  0  0  0  0  0  0  0  0  0
    0.8349    0.4845   -1.1453 H   0  0  0  0  0  0  0  0  0  0  0  0
    0.1042   -1.3277   -1.9742 C   0  0  0  0  0  0  0  0  0  0  0  0
    1.1785   -2.1887   -1.9060 N   0  0  0  0  0  0  0  0  0  0  0  0
    2.0093   -2.0603   -1.3479 H   0  0  0  0  0  0  0  0  0  0  0  0
    0.9292   -3.2293   -2.7186 C   0  0  0  0  0  0  0  0  0  0  0  0
    1.5934   -4.0692   -2.8819 H   0  0  0  0  0  0  0  0  0  0  0  0
   -0.2693   -3.0857   -3.3028 N   0  0  0  0  0  0  0  0  0  0  0  0
   -0.8014   -1.8790   -2.8409 C   0  0  0  0  0  0  0  0  0  0  0  0
   -1.7712   -1.4700   -3.0934 H   0  0  0  0  0  0  0  0  0  0  0  0
   -0.5333    0.9021    1.1689 C   0  0  0  0  0  0  0  0  0  0  0  0
   -0.2690    0.8434    2.3695 O   0  0  0  0  0  0  0  0  0  0  0  0
   -0.8654    2.0484    0.5621 N   0  0  0  0  0  0  0  0  0  0  0  0
   -1.1216    2.0053   -0.4133 H   0  0  0  0  0  0  0  0  0  0  0  0
   -0.9298    3.3464    1.2287 C   0  0  0  0  0  0  0  0  0  0  0  0
    0.0481    3.5959    1.6467 H   0  0  0  0  0  0  0  0  0  0  0  0
   -1.2235    4.1189    0.5175 H   0  0  0  0  0  0  0  0  0  0  0  0
   -1.6566    3.3102    2.0417 H   0  0  0  0  0  0  0  0  0  0  0  0
  5  6  2  0  0  0  0
  5  7  1  0  0  0  0
  2  3  1  0  0  0  0
  2  4  1  0  0  0  0
  2  5  1  0  0  0  0
  1  2  1  0  0  0  0
 22 23  2  0  0  0  0
 22 24  1  0  0  0  0
 20 21  1  0  0  0  0
 19 20  1  0  0  0  0
 17 18  1  0  0  0  0
 17 19  2  0  0  0  0
 15 16  1  0  0  0  0
 15 17  1  0  0  0  0
 14 15  1  0  0  0  0
 14 20  2  0  0  0  0
 11 12  1  0  0  0  0
 11 13  1  0  0  0  0
 11 14  1  0  0  0  0
  9 10  1  0  0  0  0
  9 11  1  0  0  0  0
  9 22  1  0  0  0  0
  7  8  1  0  0  0  0
  7  9  1  0  0  0  0
 26 27  1  0  0  0  0
 26 28  1  0  0  0  0
 26 29  1  0  0  0  0
 24 25  1  0  0  0  0
 24 26  1  0  0  0  0
M  END
$$$$
default_name
  -OEChem-01062215323D

 29 29  0     1  0  0  0  0  0999 V2000
   -3.6042   -3.5728    1.4576 H   0  0  0  0  0  0  0  0  0  0  0  0
   -3.5202   -2.6488    0.8866 C   0  0  0  0  0  0  0  0  0  0  0  0
   -4.2052   -1.9048    1.2896 H   0  0  0  0  0  0  0  0  0  0  0  0
   -3.7552   -2.8428   -0.1584 H   0  0  0  0  0  0  0  0  0  0  0  0
   -2.1052   -2.1358    0.9946 C   0  0  0  0  0  0  0  0  0  0  0  0
   -1.2852   -2.7288    1.6826 O   0  0  0  0  0  0  0  0  0  0  0  0
   -1.8202   -1.0288    0.3146 N   0  0  0  0  0  0  0  0  0  0  0  0
   -2.5542   -0.5788   -0.2104 H   0  0  0  0  0  0  0  0  0  0  0  0
   -0.5102   -0.3728    0.3086 C   0  0  1  0  0  0  0  0  0  0  0  0
    0.2238   -1.0541    0.7413 H   0  0  0  0  0  0  0  0  0  0  0  0
   -0.0964   -0.0848   -1.1464 C   0  0  0  0  0  0  0  0  0  0  0  0
   -0.8640    0.5286   -1.6215 H   0  0  0  0  0  0  0  0  0  0  0  0
    0.8349    0.4845   -1.1453 H   0  0  0  0  0  0  0  0  0  0  0  0
    0.1042   -1.3277   -1.9742 C   0  0  0  0  0  0  0  0  0  0  0  0
    1.1785   -2.1887   -1.9060 N   0  0  0  0  0  0  0  0  0  0  0  0
    2.0093   -2.0603   -1.3479 H   0  0  0  0  0  0  0  0  0  0  0  0
    0.9292   -3.2293   -2.7186 C   0  0  0  0  0  0  0  0  0  0  0  0
    1.5934   -4.0692   -2.8819 H   0  0  0  0  0  0  0  0  0  0  0  0
   -0.2693   -3.0857   -3.3028 N   0  0  0  0  0  0  0  0  0  0  0  0
   -0.8014   -1.8790   -2.8409 C   0  0  0  0  0  0  0  0  0  0  0  0
   -1.7712   -1.4700   -3.0934 H   0  0  0  0  0  0  0  0  0  0  0  0
   -0.5333    0.9021    1.1689 C   0  0  0  0  0  0  0  0  0  0  0  0
   -0.0123    0.9058    2.2839 O   0  0  0  0  0  0  0  0  0  0  0  0
   -1.1505    1.9763    0.6613 N   0  0  0  0  0  0  0  0  0  0  0  0
   -1.6007    1.8775   -0.2368 H   0  0  0  0  0  0  0  0  0  0  0  0
   -1.2583    3.2643    1.3416 C   0  0  0  0  0  0  0  0  0  0  0  0
   -0.2604    3.6605    1.5427 H   0  0  0  0  0  0  0  0  0  0  0  0
   -1.8066    3.9721    0.7193 H   0  0  0  0  0  0  0  0  0  0  0  0
   -1.7809    3.1396    2.2913 H   0  0  0  0  0  0  0  0  0  0  0  0
  5  6  2  0  0  0  0
  5  7  1  0  0  0  0
  2  3  1  0  0  0  0
  2  4  1  0  0  0  0
  2  5  1  0  0  0  0
  1  2  1  0  0  0  0
 22 23  2  0  0  0  0
 22 24  1  0  0  0  0
 20 21  1  0  0  0  0
 19 20  1  0  0  0  0
 17 18  1  0  0  0  0
 17 19  2  0  0  0  0
 15 16  1  0  0  0  0
 15 17  1  0  0  0  0
 14 15  1  0  0  0  0
 14 20  2  0  0  0  0
 11 12  1  0  0  0  0
 11 13  1  0  0  0  0
 11 14  1  0  0  0  0
  9 10  1  0  0  0  0
  9 11  1  0  0  0  0
  9 22  1  0  0  0  0
  7  8  1  0  0  0  0
  7  9  1  0  0  0  0
 26 27  1  0  0  0  0
 26 28  1  0  0  0  0
 26 29  1  0  0  0  0
 24 25  1  0  0  0  0
 24 26  1  0  0  0  0
M  END
$$$$
default_name
  -OEChem-01062215323D

 29 29  0     1  0  0  0  0  0999 V2000
   -3.6042   -3.5728    1.4576 H   0  0  0  0  0  0  0  0  0  0  0  0
   -3.5202   -2.6488    0.8866 C   0  0  0  0  0  0  0  0  0  0  0  0
   -4.2052   -1.9048    1.2896 H   0  0  0  0  0  0  0  0  0  0  0  0
   -3.7552   -2.8428   -0.1584 H   0  0  0  0  0  0  0  0  0  0  0  0
   -2.1052   -2.1358    0.9946 C   0  0  0  0  0  0  0  0  0  0  0  0
   -1.2852   -2.7288    1.6826 O   0  0  0  0  0  0  0  0  0  0  0  0
   -1.8202   -1.0288    0.3146 N   0  0  0  0  0  0  0  0  0  0  0  0
   -2.5542   -0.5788   -0.2104 H   0  0  0  0  0  0  0  0  0  0  0  0
   -0.5102   -0.3728    0.3086 C   0  0  1  0  0  0  0  0  0  0  0  0
    0.2238   -1.0541    0.7413 H   0  0  0  0  0  0  0  0  0  0  0  0
   -0.0964   -0.0848   -1.1464 C   0  0  0  0  0  0  0  0  0  0  0  0
   -0.8640    0.5286   -1.6215 H   0  0  0  0  0  0  0  0  0  0  0  0
    0.8349    0.4845   -1.1453 H   0  0  0  0  0  0  0  0  0  0  0  0
    0.1042   -1.3277   -1.9742 C   0  0  0  0  0  0  0  0  0  0  0  0
    1.1785   -2.1887   -1.9060 N   0  0  0  0  0  0  0  0  0  0  0  0
    2.0093   -2.0603   -1.3479 H   0  0  0  0  0  0  0  0  0  0  0  0
    0.9292   -3.2293   -2.7186 C   0  0  0  0  0  0  0  0  0  0  0  0
    1.5934   -4.0692   -2.8819 H   0  0  0  0  0  0  0  0  0  0  0  0
   -0.2693   -3.0857   -3.3028 N   0  0  0  0  0  0  0  0  0  0  0  0
   -0.8014   -1.8790   -2.8409 C   0  0  0  0  0  0  0  0  0  0  0  0
   -1.7712   -1.4700   -3.0934 H   0  0  0  0  0  0  0  0  0  0  0  0
   -0.5333    0.9021    1.1689 C   0  0  0  0  0  0  0  0  0  0  0  0
    0.2083    1.0030    2.1459 O   0  0  0  0  0  0  0  0  0  0  0  0
   -1.3942    1.8658    0.8186 N   0  0  0  0  0  0  0  0  0  0  0  0
   -2.0071    1.6854    0.0371 H   0  0  0  0  0  0  0  0  0  0  0  0
   -1.5395    3.1378    1.5214 C   0  0  0  0  0  0  0  0  0  0  0  0
   -0.5901    3.6778    1.5082 H   0  0  0  0  0  0  0  0  0  0  0  0
   -2.3052    3.7468    1.0399 H   0  0  0  0  0  0  0  0  0  0  0  0
   -1.8228    2.9577    2.5596 H   0  0  0  0  0  0  0  0  0  0  0  0
  5  6  2  0  0  0  0
  5  7  1  0  0  0  0
  2  3  1  0  0  0  0
  2  4  1  0  0  0  0
  2  5  1  0  0  0  0
  1  2  1  0  0  0  0
 22 23  2  0  0  0  0
 22 24  1  0  0  0  0
 20 21  1  0  0  0  0
 19 20  1  0  0  0  0
 17 18  1  0  0  0  0
 17 19  2  0  0  0  0
 15 16  1  0  0  0  0
 15 17  1  0  0  0  0
 14 15  1  0  0  0  0
 14 20  2  0  0  0  0
 11 12  1  0  0  0  0
 11 13  1  0  0  0  0
 11 14  1  0  0  0  0
  9 10  1  0  0  0  0
  9 11  1  0  0  0  0
  9 22  1  0  0  0  0
  7  8  1  0  0  0  0
  7  9  1  0  0  0  0
 26 27  1  0  0  0  0
 26 28  1  0  0  0  0
 26 29  1  0  0  0  0
 24 25  1  0  0  0  0
 24 26  1  0  0  0  0
M  END
$$$$
default_name
  -OEChem-01062215323D

 29 29  0     1  0  0  0  0  0999 V2000
   -3.6042   -3.5728    1.4576 H   0  0  0  0  0  0  0  0  0  0  0  0
   -3.5202   -2.6488    0.8866 C   0  0  0  0  0  0  0  0  0  0  0  0
   -4.2052   -1.9048    1.2896 H   0  0  0  0  0  0  0  0  0  0  0  0
   -3.7552   -2.8428   -0.1584 H   0  0  0  0  0  0  0  0  0  0  0  0
   -2.1052   -2.1358    0.9946 C   0  0  0  0  0  0  0  0  0  0  0  0
   -1.2852   -2.7288    1.6826 O   0  0  0  0  0  0  0  0  0  0  0  0
   -1.8202   -1.0288    0.3146 N   0  0  0  0  0  0  0  0  0  0  0  0
   -2.5542   -0.5788   -0.2104 H   0  0  0  0  0  0  0  0  0  0  0  0
   -0.5102   -0.3728    0.3086 C   0  0  1  0  0  0  0  0  0  0  0  0
    0.2238   -1.0541    0.7413 H   0  0  0  0  0  0  0  0  0  0  0  0
   -0.0964   -0.0848   -1.1464 C   0  0  0  0  0  0  0  0  0  0  0  0
   -0.8640    0.5286   -1.6215 H   0  0  0  0  0  0  0  0  0  0  0  0
    0.8349    0.4845   -1.1453 H   0  0  0  0  0  0  0  0  0  0  0  0
    0.1042   -1.3277   -1.9742 C   0  0  0  0  0  0  0  0  0  0  0  0
    1.1785   -2.1887   -1.9060 N   0  0  0  0  0  0  0  0  0  0  0  0
    2.0093   -2.0603   -1.3479 H   0  0  0  0  0  0  0  0  0  0  0  0
    0.9292   -3.2293   -2.7186 C   0  0  0  0  0  0  0  0  0  0  0  0
    1.5934   -4.0692   -2.8819 H   0  0  0  0  0  0  0  0  0  0  0  0
   -0.2693   -3.0857   -3.3028 N   0  0  0  0  0  0  0  0  0  0  0  0
   -0.8014   -1.8790   -2.8409 C   0  0  0  0  0  0  0  0  0  0  0  0
   -1.7712   -1.4700   -3.0934 H   0  0  0  0  0  0  0  0  0  0  0  0
   -0.5333    0.9021    1.1689 C   0  0  0  0  0  0  0  0  0  0  0  0
    0.3777    1.1281    1.9649 O   0  0  0  0  0  0  0  0  0  0  0  0
   -1.5798    1.7244    1.0232 N   0  0  0  0  0  0  0  0  0  0  0  0
   -2.3131    1.4421    0.3894 H   0  0  0  0  0  0  0  0  0  0  0  0
   -1.7543    2.9757    1.7559 C   0  0  0  0  0  0  0  0  0  0  0  0
   -0.9185    3.6467    1.5455 H   0  0  0  0  0  0  0  0  0  0  0  0
   -2.6855    3.4581    1.4574 H   0  0  0  0  0  0  0  0  0  0  0  0
   -1.7794    2.7770    2.8285 H   0  0  0  0  0  0  0  0  0  0  0  0
  5  6  2  0  0  0  0
  5  7  1  0  0  0  0
  2  3  1  0  0  0  0
  2  4  1  0  0  0  0
  2  5  1  0  0  0  0
  1  2  1  0  0  0  0
 22 23  2  0  0  0  0
 22 24  1  0  0  0  0
 20 21  1  0  0  0  0
 19 20  1  0  0  0  0
 17 18  1  0  0  0  0
 17 19  2  0  0  0  0
 15 16  1  0  0  0  0
 15 17  1  0  0  0  0
 14 15  1  0  0  0  0
 14 20  2  0  0  0  0
 11 12  1  0  0  0  0
 11 13  1  0  0  0  0
 11 14  1  0  0  0  0
  9 10  1  0  0  0  0
  9 11  1  0  0  0  0
  9 22  1  0  0  0  0
  7  8  1  0  0  0  0
  7  9  1  0  0  0  0
 26 27  1  0  0  0  0
 26 28  1  0  0  0  0
 26 29  1  0  0  0  0
 24 25  1  0  0  0  0
 24 26  1  0  0  0  0
M  END
$$$$
default_name
  -OEChem-01062215323D

 29 29  0     1  0  0  0  0  0999 V2000
   -3.6042   -3.5728    1.4576 H   0  0  0  0  0  0  0  0  0  0  0  0
   -3.5202   -2.6488    0.8866 C   0  0  0  0  0  0  0  0  0  0  0  0
   -4.2052   -1.9048    1.2896 H   0  0  0  0  0  0  0  0  0  0  0  0
   -3.7552   -2.8428   -0.1584 H   0  0  0  0  0  0  0  0  0  0  0  0
   -2.1052   -2.1358    0.9946 C   0  0  0  0  0  0  0  0  0  0  0  0
   -1.2852   -2.7288    1.6826 O   0  0  0  0  0  0  0  0  0  0  0  0
   -1.8202   -1.0288    0.3146 N   0  0  0  0  0  0  0  0  0  0  0  0
   -2.5542   -0.5788   -0.2104 H   0  0  0  0  0  0  0  0  0  0  0  0
   -0.5102   -0.3728    0.3086 C   0  0  1  0  0  0  0  0  0  0  0  0
    0.2238   -1.0541    0.7413 H   0  0  0  0  0  0  0  0  0  0  0  0
   -0.0964   -0.0848   -1.1464 C   0  0  0  0  0  0  0  0  0  0  0  0
   -0.8640    0.5286   -1.6215 H   0  0  0  0  0  0  0  0  0  0  0  0
    0.8349    0.4845   -1.1453 H   0  0  0  0  0  0  0  0  0  0  0  0
    0.1042   -1.3277   -1.9742 C   0  0  0  0  0  0  0  0  0  0  0  0
    1.1785   -2.1887   -1.9060 N   0  0  0  0  0  0  0  0  0  0  0  0
    2.0093   -2.0603   -1.3479 H   0  0  0  0  0  0  0  0  0  0  0  0
    0.9292   -3.2293   -2.7186 C   0  0  0  0  0  0  0  0  0  0  0  0
    1.5934   -4.0692   -2.8819 H   0  0  0  0  0  0  0  0  0  0  0  0
   -0.2693   -3.0857   -3.3028 N   0  0  0  0  0  0  0  0  0  0  0  0
   -0.8014   -1.8790   -2.8409 C   0  0  0  0  0  0  0  0  0  0  0  0
   -1.7712   -1.4700   -3.0934 H   0  0  0  0  0  0  0  0  0  0  0  0
   -0.5333    0.9021    1.1689 C   0  0  0  0  0  0  0  0  0  0  0  0
    0.4844    1.2729    1.7533 O   0  0  0  0  0  0  0  0  0  0  0  0
   -1.6947    1.5617    1.2612 N   0  0  0  0  0  0  0  0  0  0  0  0
   -2.4978    1.1641    0.7964 H   0  0  0  0  0  0  0  0  0  0  0  0
   -1.8880    2.7889    2.0291 C   0  0  0  0  0  0  0  0  0  0  0  0
   -1.2231    3.5692    1.6521 H   0  0  0  0  0  0  0  0  0  0  0  0
   -2.9215    3.1259    1.9434 H   0  0  0  0  0  0  0  0  0  0  0  0
   -1.6536    2.6099    3.0796 H   0  0  0  0  0  0  0  0  0  0  0  0
  5  6  2  0  0  0  0
  5  7  1  0  0  0  0
  2  3  1  0  0  0  0
  2  4  1  0  0  0  0
  2  5  1  0  0  0  0
  1  2  1  0  0  0  0
 22 23  2  0  0  0  0
 22 24  1  0  0  0  0
 20 21  1  0  0  0  0
 19 20  1  0  0  0  0
 17 18  1  0  0  0  0
 17 19  2  0  0  0  0
 15 16  1  0  0  0  0
 15 17  1  0  0  0  0
 14 15  1  0  0  0  0
 14 20  2  0  0  0  0
 11 12  1  0  0  0  0
 11 13  1  0  0  0  0
 11 14  1  0  0  0  0
  9 10  1  0  0  0  0
  9 11  1  0  0  0  0
  9 22  1  0  0  0  0
  7  8  1  0  0  0  0
  7  9  1  0  0  0  0
 26 27  1  0  0  0  0
 26 28  1  0  0  0  0
 26 29  1  0  0  0  0
 24 25  1  0  0  0  0
 24 26  1  0  0  0  0
M  END
$$$$
default_name
  -OEChem-01062215323D

 29 29  0     1  0  0  0  0  0999 V2000
   -3.6042   -3.5728    1.4576 H   0  0  0  0  0  0  0  0  0  0  0  0
   -3.5202   -2.6488    0.8866 C   0  0  0  0  0  0  0  0  0  0  0  0
   -4.2052   -1.9048    1.2896 H   0  0  0  0  0  0  0  0  0  0  0  0
   -3.7552   -2.8428   -0.1584 H   0  0  0  0  0  0  0  0  0  0  0  0
   -2.1052   -2.1358    0.9946 C   0  0  0  0  0  0  0  0  0  0  0  0
   -1.2852   -2.7288    1.6826 O   0  0  0  0  0  0  0  0  0  0  0  0
   -1.8202   -1.0288    0.3146 N   0  0  0  0  0  0  0  0  0  0  0  0
   -2.5542   -0.5788   -0.2104 H   0  0  0  0  0  0  0  0  0  0  0  0
   -0.5102   -0.3728    0.3086 C   0  0  1  0  0  0  0  0  0  0  0  0
    0.2238   -1.0541    0.7413 H   0  0  0  0  0  0  0  0  0  0  0  0
   -0.0964   -0.0848   -1.1464 C   0  0  0  0  0  0  0  0  0  0  0  0
   -0.8640    0.5286   -1.6215 H   0  0  0  0  0  0  0  0  0  0  0  0
    0.8349    0.4845   -1.1453 H   0  0  0  0  0  0  0  0  0  0  0  0
    0.1042   -1.3277   -1.9742 C   0  0  0  0  0  0  0  0  0  0  0  0
    1.1785   -2.1887   -1.9060 N   0  0  0  0  0  0  0  0  0  0  0  0
    2.0093   -2.0603   -1.3479 H   0  0  0  0  0  0  0  0  0  0  0  0
    0.9292   -3.2293   -2.7186 C   0  0  0  0  0  0  0  0  0  0  0  0
    1.5934   -4.0692   -2.8819 H   0  0  0  0  0  0  0  0  0  0  0  0
   -0.2693   -3.0857   -3.3028 N   0  0  0  0  0  0  0  0  0  0  0  0
   -0.8014   -1.8790   -2.8409 C   0  0  0  0  0  0  0  0  0  0  0  0
   -1.7712   -1.4700   -3.0934 H   0  0  0  0  0  0  0  0  0  0  0  0
   -0.5333    0.9021    1.1689 C   0  0  0  0  0  0  0  0  0  0  0  0
    0.5211    1.4273    1.5254 O   0  0  0  0  0  0  0  0  0  0  0  0
   -1.7312    1.3889    1.5163 N   0  0  0  0  0  0  0  0  0  0  0  0
   -2.5487    0.8704    1.2302 H   0  0  0  0  0  0  0  0  0  0  0  0
   -1.9315    2.5902    2.3225 C   0  0  0  0  0  0  0  0  0  0  0  0
   -1.4833    3.4507    1.8207 H   0  0  0  0  0  0  0  0  0  0  0  0
   -2.9970    2.7728    2.4647 H   0  0  0  0  0  0  0  0  0  0  0  0
   -1.4540    2.4676    3.2959 H   0  0  0  0  0  0  0  0  0  0  0  0
  5  6  2  0  0  0  0
  5  7  1  0  0  0  0
  2  3  1  0  0  0  0
  2  4  1  0  0  0  0
  2  5  1  0  0  0  0
  1  2  1  0  0  0  0
 22 23  2  0  0  0  0
 22 24  1  0  0  0  0
 20 21  1  0  0  0  0
 19 20  1  0  0  0  0
 17 18  1  0  0  0  0
 17 19  2  0  0  0  0
 15 16  1  0  0  0  0
 15 17  1  0  0  0  0
 14 15  1  0  0  0  0
 14 20  2  0  0  0  0
 11 12  1  0  0  0  0
 11 13  1  0  0  0  0
 11 14  1  0  0  0  0
  9 10  1  0  0  0  0
  9 11  1  0  0  0  0
  9 22  1  0  0  0  0
  7  8  1  0  0  0  0
  7  9  1  0  0  0  0
 26 27  1  0  0  0  0
 26 28  1  0  0  0  0
 26 29  1  0  0  0  0
 24 25  1  0  0  0  0
 24 26  1  0  0  0  0
M  END
$$$$
default_name
  -OEChem-01062215323D

 29 29  0     1  0  0  0  0  0999 V2000
   -3.6042   -3.5728    1.4576 H   0  0  0  0  0  0  0  0  0  0  0  0
   -3.5202   -2.6488    0.8866 C   0  0  0  0  0  0  0  0  0  0  0  0
   -4.2052   -1.9048    1.2896 H   0  0  0  0  0  0  0  0  0  0  0  0
   -3.7552   -2.8428   -0.1584 H   0  0  0  0  0  0  0  0  0  0  0  0
   -2.1052   -2.1358    0.9946 C   0  0  0  0  0  0  0  0  0  0  0  0
   -1.2852   -2.7288    1.6826 O   0  0  0  0  0  0  0  0  0  0  0  0
   -1.8202   -1.0288    0.3146 N   0  0  0  0  0  0  0  0  0  0  0  0
   -2.5542   -0.5788   -0.2104 H   0  0  0  0  0  0  0  0  0  0  0  0
   -0.5102   -0.3728    0.3086 C   0  0  1  0  0  0  0  0  0  0  0  0
    0.2238   -1.0541    0.7413 H   0  0  0  0  0  0  0  0  0  0  0  0
   -0.0964   -0.0848   -1.1464 C   0  0  0  0  0  0  0  0  0  0  0  0
   -0.8640    0.5286   -1.6215 H   0  0  0  0  0  0  0  0  0  0  0  0
    0.8349    0.4845   -1.1453 H   0  0  0  0  0  0  0  0  0  0  0  0
    0.1042   -1.3277   -1.9742 C   0  0  0  0  0  0  0  0  0  0  0  0
    1.1785   -2.1887   -1.9060 N   0  0  0  0  0  0  0  0  0  0  0  0
    2.0093   -2.0603   -1.3479 H   0  0  0  0  0  0  0  0  0  0  0  0
    0.9292   -3.2293   -2.7186 C   0  0  0  0  0  0  0  0  0  0  0  0
    1.5934   -4.0692   -2.8819 H   0  0  0  0  0  0  0  0  0  0  0  0
   -0.2693   -3.0857   -3.3028 N   0  0  0  0  0  0  0  0  0  0  0  0
   -0.8014   -1.8790   -2.8409 C   0  0  0  0  0  0  0  0  0  0  0  0
   -1.7712   -1.4700   -3.0934 H   0  0  0  0  0  0  0  0  0  0  0  0
   -0.5333    0.9021    1.1689 C   0  0  0  0  0  0  0  0  0  0  0  0
    0.4853    1.5809    1.2968 O   0  0  0  0  0  0  0  0  0  0  0  0
   -1.6866    1.2176    1.7713 N   0  0  0  0  0  0  0  0  0  0  0  0
   -2.4623    0.5811    1.6613 H   0  0  0  0  0  0  0  0  0  0  0  0
   -1.8818    2.3931    2.6159 C   0  0  0  0  0  0  0  0  0  0  0  0
   -1.6814    3.2993    2.0399 H   0  0  0  0  0  0  0  0  0  0  0  0
   -2.9071    2.4227    2.9859 H   0  0  0  0  0  0  0  0  0  0  0  0
   -1.1943    2.3598    3.4625 H   0  0  0  0  0  0  0  0  0  0  0  0
  5  6  2  0  0  0  0
  5  7  1  0  0  0  0
  2  3  1  0  0  0  0
  2  4  1  0  0  0  0
  2  5  1  0  0  0  0
  1  2  1  0  0  0  0
 22 23  2  0  0  0  0
 22 24  1  0  0  0  0
 20 21  1  0  0  0  0
 19 20  1  0  0  0  0
 17 18  1  0  0  0  0
 17 19  2  0  0  0  0
 15 16  1  0  0  0  0
 15 17  1  0  0  0  0
 14 15  1  0  0  0  0
 14 20  2  0  0  0  0
 11 12  1  0  0  0  0
 11 13  1  0  0  0  0
 11 14  1  0  0  0  0
  9 10  1  0  0  0  0
  9 11  1  0  0  0  0
  9 22  1  0  0  0  0
  7  8  1  0  0  0  0
  7  9  1  0  0  0  0
 26 27  1  0  0  0  0
 26 28  1  0  0  0  0
 26 29  1  0  0  0  0
 24 25  1  0  0  0  0
 24 26  1  0  0  0  0
M  END
$$$$
default_name
  -OEChem-01062215323D

 29 29  0     1  0  0  0  0  0999 V2000
   -3.6042   -3.5728    1.4576 H   0  0  0  0  0  0  0  0  0  0  0  0
   -3.5202   -2.6488    0.8866 C   0  0  0  0  0  0  0  0  0  0  0  0
   -4.2052   -1.9048    1.2896 H   0  0  0  0  0  0  0  0  0  0  0  0
   -3.7552   -2.8428   -0.1584 H   0  0  0  0  0  0  0  0  0  0  0  0
   -2.1052   -2.1358    0.9946 C   0  0  0  0  0  0  0  0  0  0  0  0
   -1.2852   -2.7288    1.6826 O   0  0  0  0  0  0  0  0  0  0  0  0
   -1.8202   -1.0288    0.3146 N   0  0  0  0  0  0  0  0  0  0  0  0
   -2.5542   -0.5788   -0.2104 H   0  0  0  0  0  0  0  0  0  0  0  0
   -0.5102   -0.3728    0.3086 C   0  0  1  0  0  0  0  0  0  0  0  0
    0.2238   -1.0541    0.7413 H   0  0  0  0  0  0  0  0  0  0  0  0
   -0.0964   -0.0848   -1.1464 C   0  0  0  0  0  0  0  0  0  0  0  0
   -0.8640    0.5286   -1.6215 H   0  0  0  0  0  0  0  0  0  0  0  0
    0.8349    0.4845   -1.1453 H   0  0  0  0  0  0  0  0  0  0  0  0
    0.1042   -1.3277   -1.9742 C   0  0  0  0  0  0  0  0  0  0  0  0
    1.1785   -2.1887   -1.9060 N   0  0  0  0  0  0  0  0  0  0  0  0
    2.0093   -2.0603   -1.3479 H   0  0  0  0  0  0  0  0  0  0  0  0
    0.9292   -3.2293   -2.7186 C   0  0  0  0  0  0  0  0  0  0  0  0
    1.5934   -4.0692   -2.8819 H   0  0  0  0  0  0  0  0  0  0  0  0
   -0.2693   -3.0857   -3.3028 N   0  0  0  0  0  0  0  0  0  0  0  0
   -0.8014   -1.8790   -2.8409 C   0  0  0  0  0  0  0  0  0  0  0  0
   -1.7712   -1.4700   -3.0934 H   0  0  0  0  0  0  0  0  0  0  0  0
   -0.5333    0.9021    1.1689 C   0  0  0  0  0  0  0  0  0  0  0  0
    0.3794    1.7232    1.0831 O   0  0  0  0  0  0  0  0  0  0  0  0
   -1.5641    1.0596    2.0087 N   0  0  0  0  0  0  0  0  0  0  0  0
   -2.2445    0.3158    2.0603 H   0  0  0  0  0  0  0  0  0  0  0  0
   -1.7423    2.2110    2.8894 C   0  0  0  0  0  0  0  0  0  0  0  0
   -1.8037    3.1251    2.2946 H   0  0  0  0  0  0  0  0  0  0  0  0
   -2.6577    2.0996    3.4713 H   0  0  0  0  0  0  0  0  0  0  0  0
   -0.8920    2.2940    3.5681 H   0  0  0  0  0  0  0  0  0  0  0  0
  5  6  2  0  0  0  0
  5  7  1  0  0  0  0
  2  3  1  0  0  0  0
  2  4  1  0  0  0  0
  2  5  1  0  0  0  0
  1  2  1  0  0  0  0
 22 23  2  0  0  0  0
 22 24  1  0  0  0  0
 20 21  1  0  0  0  0
 19 20  1  0  0  0  0
 17 18  1  0  0  0  0
 17 19  2  0  0  0  0
 15 16  1  0  0  0  0
 15 17  1  0  0  0  0
 14 15  1  0  0  0  0
 14 20  2  0  0  0  0
 11 12  1  0  0  0  0
 11 13  1  0  0  0  0
 11 14  1  0  0  0  0
  9 10  1  0  0  0  0
  9 11  1  0  0  0  0
  9 22  1  0  0  0  0
  7  8  1  0  0  0  0
  7  9  1  0  0  0  0
 26 27  1  0  0  0  0
 26 28  1  0  0  0  0
 26 29  1  0  0  0  0
 24 25  1  0  0  0  0
 24 26  1  0  0  0  0
M  END
$$$$
default_name
  -OEChem-01062215323D

 29 29  0     1  0  0  0  0  0999 V2000
   -3.6042   -3.5728    1.4576 H   0  0  0  0  0  0  0  0  0  0  0  0
   -3.5202   -2.6488    0.8866 C   0  0  0  0  0  0  0  0  0  0  0  0
   -4.2052   -1.9048    1.2896 H   0  0  0  0  0  0  0  0  0  0  0  0
   -3.7552   -2.8428   -0.1584 H   0  0  0  0  0  0  0  0  0  0  0  0
   -2.1052   -2.1358    0.9946 C   0  0  0  0  0  0  0  0  0  0  0  0
   -1.2852   -2.7288    1.6826 O   0  0  0  0  0  0  0  0  0  0  0  0
   -1.8202   -1.0288    0.3146 N   0  0  0  0  0  0  0  0  0  0  0  0
   -2.5542   -0.5788   -0.2104 H   0  0  0  0  0  0  0  0  0  0  0  0
   -0.5102   -0.3728    0.3086 C   0  0  1  0  0  0  0  0  0  0  0  0
    0.2238   -1.0541    0.7413 H   0  0  0  0  0  0  0  0  0  0  0  0
   -0.0964   -0.0848   -1.1464 C   0  0  0  0  0  0  0  0  0  0  0  0
   -0.8640    0.5286   -1.6215 H   0  0  0  0  0  0  0  0  0  0  0  0
    0.8349    0.4845   -1.1453 H   0  0  0  0  0  0  0  0  0  0  0  0
    0.1042   -1.3277   -1.9742 C   0  0  0  0  0  0  0  0  0  0  0  0
    1.1785   -2.1887   -1.9060 N   0  0  0  0  0  0  0  0  0  0  0  0
    2.0093   -2.0603   -1.3479 H   0  0  0  0  0  0  0  0  0  0  0  0
    0.9292   -3.2293   -2.7186 C   0  0  0  0  0  0  0  0  0  0  0  0
    1.5934   -4.0692   -2.8819 H   0  0  0  0  0  0  0  0  0  0  0  0
   -0.2693   -3.0857   -3.3028 N   0  0  0  0  0  0  0  0  0  0  0  0
   -0.8014   -1.8790   -2.8409 C   0  0  0  0  0  0  0  0  0  0  0  0
   -1.7712   -1.4700   -3.0934 H   0  0  0  0  0  0  0  0  0  0  0  0
   -0.5333    0.9021    1.1689 C   0  0  0  0  0  0  0  0  0  0  0  0
    0.2108    1.8445    0.8988 O   0  0  0  0  0  0  0  0  0  0  0  0
   -1.3719    0.9257    2.2123 N   0  0  0  0  0  0  0  0  0  0  0  0
   -1.9101    0.0926    2.4000 H   0  0  0  0  0  0  0  0  0  0  0  0
   -1.5226    2.0564    3.1244 C   0  0  0  0  0  0  0  0  0  0  0  0
   -1.8420    2.9402    2.5676 H   0  0  0  0  0  0  0  0  0  0  0  0
   -2.2659    1.8256    3.8880 H   0  0  0  0  0  0  0  0  0  0  0  0
   -0.5679    2.2746    3.6056 H   0  0  0  0  0  0  0  0  0  0  0  0
  5  6  2  0  0  0  0
  5  7  1  0  0  0  0
  2  3  1  0  0  0  0
  2  4  1  0  0  0  0
  2  5  1  0  0  0  0
  1  2  1  0  0  0  0
 22 23  2  0  0  0  0
 22 24  1  0  0  0  0
 20 21  1  0  0  0  0
 19 20  1  0  0  0  0
 17 18  1  0  0  0  0
 17 19  2  0  0  0  0
 15 16  1  0  0  0  0
 15 17  1  0  0  0  0
 14 15  1  0  0  0  0
 14 20  2  0  0  0  0
 11 12  1  0  0  0  0
 11 13  1  0  0  0  0
 11 14  1  0  0  0  0
  9 10  1  0  0  0  0
  9 11  1  0  0  0  0
  9 22  1  0  0  0  0
  7  8  1  0  0  0  0
  7  9  1  0  0  0  0
 26 27  1  0  0  0  0
 26 28  1  0  0  0  0
 26 29  1  0  0  0  0
 24 25  1  0  0  0  0
 24 26  1  0  0  0  0
M  END
$$$$
default_name
  -OEChem-01062215323D

 29 29  0     1  0  0  0  0  0999 V2000
   -3.6042   -3.5728    1.4576 H   0  0  0  0  0  0  0  0  0  0  0  0
   -3.5202   -2.6488    0.8866 C   0  0  0  0  0  0  0  0  0  0  0  0
   -4.2052   -1.9048    1.2896 H   0  0  0  0  0  0  0  0  0  0  0  0
   -3.7552   -2.8428   -0.1584 H   0  0  0  0  0  0  0  0  0  0  0  0
   -2.1052   -2.1358    0.9946 C   0  0  0  0  0  0  0  0  0  0  0  0
   -1.2852   -2.7288    1.6826 O   0  0  0  0  0  0  0  0  0  0  0  0
   -1.8202   -1.0288    0.3146 N   0  0  0  0  0  0  0  0  0  0  0  0
   -2.5542   -0.5788   -0.2104 H   0  0  0  0  0  0  0  0  0  0  0  0
   -0.5102   -0.3728    0.3086 C   0  0  1  0  0  0  0  0  0  0  0  0
    0.2238   -1.0541    0.7413 H   0  0  0  0  0  0  0  0  0  0  0  0
   -0.0964   -0.0848   -1.1464 C   0  0  0  0  0  0  0  0  0  0  0  0
   -0.8640    0.5286   -1.6215 H   0  0  0  0  0  0  0  0  0  0  0  0
    0.8349    0.4845   -1.1453 H   0  0  0  0  0  0  0  0  0  0  0  0
    0.1042   -1.3277   -1.9742 C   0  0  0  0  0  0  0  0  0  0  0  0
    1.1785   -2.1887   -1.9060 N   0  0  0  0  0  0  0  0  0  0  0  0
    2.0093   -2.0603   -1.3479 H   0  0  0  0  0  0  0  0  0  0  0  0
    0.9292   -3.2293   -2.7186 C   0  0  0  0  0  0  0  0  0  0  0  0
    1.5934   -4.0692   -2.8819 H   0  0  0  0  0  0  0  0  0  0  0  0
   -0.2693   -3.0857   -3.3028 N   0  0  0  0  0  0  0  0  0  0  0  0
   -0.8014   -1.8790   -2.8409 C   0  0  0  0  0  0  0  0  0  0  0  0
   -1.7712   -1.4700   -3.0934 H   0  0  0  0  0  0  0  0  0  0  0  0
   -0.5333    0.9021    1.1689 C   0  0  0  0  0  0  0  0  0  0  0  0
   -0.0093    1.9366    0.7566 O   0  0  0  0  0  0  0  0  0  0  0  0
   -1.1232    0.8250    2.3683 N   0  0  0  0  0  0  0  0  0  0  0  0
   -1.4819   -0.0732    2.6573 H   0  0  0  0  0  0  0  0  0  0  0  0
   -1.2375    1.9398    3.3049 C   0  0  0  0  0  0  0  0  0  0  0  0
   -1.7936    2.7571    2.8402 H   0  0  0  0  0  0  0  0  0  0  0  0
   -1.7585    1.6191    4.2075 H   0  0  0  0  0  0  0  0  0  0  0  0
   -0.2440    2.3030    3.5723 H   0  0  0  0  0  0  0  0  0  0  0  0
  5  6  2  0  0  0  0
  5  7  1  0  0  0  0
  2  3  1  0  0  0  0
  2  4  1  0  0  0  0
  2  5  1  0  0  0  0
  1  2  1  0  0  0  0
 22 23  2  0  0  0  0
 22 24  1  0  0  0  0
 20 21  1  0  0  0  0
 19 20  1  0  0  0  0
 17 18  1  0  0  0  0
 17 19  2  0  0  0  0
 15 16  1  0  0  0  0
 15 17  1  0  0  0  0
 14 15  1  0  0  0  0
 14 20  2  0  0  0  0
 11 12  1  0  0  0  0
 11 13  1  0  0  0  0
 11 14  1  0  0  0  0
  9 10  1  0  0  0  0
  9 11  1  0  0  0  0
  9 22  1  0  0  0  0
  7  8  1  0  0  0  0
  7  9  1  0  0  0  0
 26 27  1  0  0  0  0
 26 28  1  0  0  0  0
 26 29  1  0  0  0  0
 24 25  1  0  0  0  0
 24 26  1  0  0  0  0
M  END
$$$$
default_name
  -OEChem-01062215323D

 29 29  0     1  0  0  0  0  0999 V2000
   -3.6042   -3.5728    1.4576 H   0  0  0  0  0  0  0  0  0  0  0  0
   -3.5202   -2.6488    0.8866 C   0  0  0  0  0  0  0  0  0  0  0  0
   -4.2052   -1.9048    1.2896 H   0  0  0  0  0  0  0  0  0  0  0  0
   -3.7552   -2.8428   -0.1584 H   0  0  0  0  0  0  0  0  0  0  0  0
   -2.1052   -2.1358    0.9946 C   0  0  0  0  0  0  0  0  0  0  0  0
   -1.2852   -2.7288    1.6826 O   0  0  0  0  0  0  0  0  0  0  0  0
   -1.8202   -1.0288    0.3146 N   0  0  0  0  0  0  0  0  0  0  0  0
   -2.5542   -0.5788   -0.2104 H   0  0  0  0  0  0  0  0  0  0  0  0
   -0.5102   -0.3728    0.3086 C   0  0  1  0  0  0  0  0  0  0  0  0
    0.2238   -1.0541    0.7413 H   0  0  0  0  0  0  0  0  0  0  0  0
   -0.0964   -0.0848   -1.1464 C   0  0  0  0  0  0  0  0  0  0  0  0
   -0.8640    0.5286   -1.6215 H   0  0  0  0  0  0  0  0  0  0  0  0
    0.8349    0.4845   -1.1453 H   0  0  0  0  0  0  0  0  0  0  0  0
    0.1042   -1.3277   -1.9742 C   0  0  0  0  0  0  0  0  0  0  0  0
    1.1785   -2.1887   -1.9060 N   0  0  0  0  0  0  0  0  0  0  0  0
    2.0093   -2.0603   -1.3479 H   0  0  0  0  0  0  0  0  0  0  0  0
    0.9292   -3.2293   -2.7186 C   0  0  0  0  0  0  0  0  0  0  0  0
    1.5934   -4.0692   -2.8819 H   0  0  0  0  0  0  0  0  0  0  0  0
   -0.2693   -3.0857   -3.3028 N   0  0  0  0  0  0  0  0  0  0  0  0
   -0.8014   -1.8790   -2.8409 C   0  0  0  0  0  0  0  0  0  0  0  0
   -1.7712   -1.4700   -3.0934 H   0  0  0  0  0  0  0  0  0  0  0  0
   -0.5333    0.9021    1.1689 C   0  0  0  0  0  0  0  0  0  0  0  0
   -0.2656    1.9930    0.6660 O   0  0  0  0  0  0  0  0  0  0  0  0
   -0.8350    0.7642    2.4660 N   0  0  0  0  0  0  0  0  0  0  0  0
   -0.9891   -0.1705    2.8146 H   0  0  0  0  0  0  0  0  0  0  0  0
   -0.9066    1.8691    3.4185 C   0  0  0  0  0  0  0  0  0  0  0  0
   -1.6620    2.5883    3.0939 H   0  0  0  0  0  0  0  0  0  0  0  0
   -1.1699    1.4945    4.4081 H   0  0  0  0  0  0  0  0  0  0  0  0
    0.0577    2.3771    3.4705 H   0  0  0  0  0  0  0  0  0  0  0  0
  5  6  2  0  0  0  0
  5  7  1  0  0  0  0
  2  3  1  0  0  0  0
  2  4  1  0  0  0  0
  2  5  1  0  0  0  0
  1  2  1  0  0  0  0
 22 23  2  0  0  0  0
 22 24  1  0  0  0  0
 20 21  1  0  0  0  0
 19 20  1  0  0  0  0
 17 18  1  0  0  0  0
 17 19  2  0  0  0  0
 15 16  1  0  0  0  0
 15 17  1  0  0  0  0
 14 15  1  0  0  0  0
 14 20  2  0  0  0  0
 11 12  1  0  0  0  0
 11 13  1  0  0  0  0
 11 14  1  0  0  0  0
  9 10  1  0  0  0  0
  9 11  1  0  0  0  0
  9 22  1  0  0  0  0
  7  8  1  0  0  0  0
  7  9  1  0  0  0  0
 26 27  1  0  0  0  0
 26 28  1  0  0  0  0
 26 29  1  0  0  0  0
 24 25  1  0  0  0  0
 24 26  1  0  0  0  0
M  END
$$$$
default_name
  -OEChem-01062215323D

 29 29  0     1  0  0  0  0  0999 V2000
   -3.6042   -3.5728    1.4576 H   0  0  0  0  0  0  0  0  0  0  0  0
   -3.5202   -2.6488    0.8866 C   0  0  0  0  0  0  0  0  0  0  0  0
   -4.2052   -1.9048    1.2896 H   0  0  0  0  0  0  0  0  0  0  0  0
   -3.7552   -2.8428   -0.1584 H   0  0  0  0  0  0  0  0  0  0  0  0
   -2.1052   -2.1358    0.9946 C   0  0  0  0  0  0  0  0  0  0  0  0
   -1.2852   -2.7288    1.6826 O   0  0  0  0  0  0  0  0  0  0  0  0
   -1.8202   -1.0288    0.3146 N   0  0  0  0  0  0  0  0  0  0  0  0
   -2.5542   -0.5788   -0.2104 H   0  0  0  0  0  0  0  0  0  0  0  0
   -0.5102   -0.3728    0.3086 C   0  0  1  0  0  0  0  0  0  0  0  0
    0.2238   -1.0541    0.7413 H   0  0  0  0  0  0  0  0  0  0  0  0
   -0.0964   -0.0848   -1.1464 C   0  0  0  0  0  0  0  0  0  0  0  0
   -0.8640    0.5286   -1.6215 H   0  0  0  0  0  0  0  0  0  0  0  0
    0.8349    0.4845   -1.1453 H   0  0  0  0  0  0  0  0  0  0  0  0
    0.1042   -1.3277   -1.9742 C   0  0  0  0  0  0  0  0  0  0  0  0
    1.1785   -2.1887   -1.9060 N   0  0  0  0  0  0  0  0  0  0  0  0
    2.0093   -2.0603   -1.3479 H   0  0  0  0  0  0  0  0  0  0  0  0
    0.9292   -3.2293   -2.7186 C   0  0  0  0  0  0  0  0  0  0  0  0
    1.5934   -4.0692   -2.8819 H   0  0  0  0  0  0  0  0  0  0  0  0
   -0.2693   -3.0857   -3.3028 N   0  0  0  0  0  0  0  0  0  0  0  0
   -0.8014   -1.8790   -2.8409 C   0  0  0  0  0  0  0  0  0  0  0  0
   -1.7712   -1.4700   -3.0934 H   0  0  0  0  0  0  0  0  0  0  0  0
   -0.5333    0.9021    1.1689 C   0  0  0  0  0  0  0  0  0  0  0  0
   -0.5409    2.0101    0.6332 O   0  0  0  0  0  0  0  0  0  0  0  0
   -0.5268    0.7477    2.4988 N   0  0  0  0  0  0  0  0  0  0  0  0
   -0.4653   -0.1924    2.8612 H   0  0  0  0  0  0  0  0  0  0  0  0
   -0.5523    1.8492    3.4575 C   0  0  0  0  0  0  0  0  0  0  0  0
   -1.4559    2.4453    3.3114 H   0  0  0  0  0  0  0  0  0  0  0  0
   -0.5402    1.4600    4.4760 H   0  0  0  0  0  0  0  0  0  0  0  0
    0.3165    2.4919    3.3073 H   0  0  0  0  0  0  0  0  0  0  0  0
  5  6  2  0  0  0  0
  5  7  1  0  0  0  0
  2  3  1  0  0  0  0
  2  4  1  0  0  0  0
  2  5  1  0  0  0  0
  1  2  1  0  0  0  0
 22 23  2  0  0  0  0
 22 24  1  0  0  0  0
 20 21  1  0  0  0  0
 19 20  1  0  0  0  0
 17 18  1  0  0  0  0
 17 19  2  0  0  0  0
 15 16  1  0  0  0  0
 15 17  1  0  0  0  0
 14 15  1  0  0  0  0
 14 20  2  0  0  0  0
 11 12  1  0  0  0  0
 11 13  1  0  0  0  0
 11 14  1  0  0  0  0
  9 10  1  0  0  0  0
  9 11  1  0  0  0  0
  9 22  1  0  0  0  0
  7  8  1  0  0  0  0
  7  9  1  0  0  0  0
 26 27  1  0  0  0  0
 26 28  1  0  0  0  0
 26 29  1  0  0  0  0
 24 25  1  0  0  0  0
 24 26  1  0  0  0  0
M  END
$$$$
default_name
  -OEChem-01062215323D

 29 29  0     1  0  0  0  0  0999 V2000
   -3.6042   -3.5728    1.4576 H   0  0  0  0  0  0  0  0  0  0  0  0
   -3.5202   -2.6488    0.8866 C   0  0  0  0  0  0  0  0  0  0  0  0
   -4.2052   -1.9048    1.2896 H   0  0  0  0  0  0  0  0  0  0  0  0
   -3.7552   -2.8428   -0.1584 H   0  0  0  0  0  0  0  0  0  0  0  0
   -2.1052   -2.1358    0.9946 C   0  0  0  0  0  0  0  0  0  0  0  0
   -1.2852   -2.7288    1.6826 O   0  0  0  0  0  0  0  0  0  0  0  0
   -1.8202   -1.0288    0.3146 N   0  0  0  0  0  0  0  0  0  0  0  0
   -2.5542   -0.5788   -0.2104 H   0  0  0  0  0  0  0  0  0  0  0  0
   -0.5102   -0.3728    0.3086 C   0  0  1  0  0  0  0  0  0  0  0  0
    0.2238   -1.0541    0.7413 H   0  0  0  0  0  0  0  0  0  0  0  0
   -0.0964   -0.0848   -1.1464 C   0  0  0  0  0  0  0  0  0  0  0  0
   -0.8640    0.5286   -1.6215 H   0  0  0  0  0  0  0  0  0  0  0  0
    0.8349    0.4845   -1.1453 H   0  0  0  0  0  0  0  0  0  0  0  0
    0.1042   -1.3277   -1.9742 C   0  0  0  0  0  0  0  0  0  0  0  0
    1.1785   -2.1887   -1.9060 N   0  0  0  0  0  0  0  0  0  0  0  0
    2.0093   -2.0603   -1.3479 H   0  0  0  0  0  0  0  0  0  0  0  0
    0.9292   -3.2293   -2.7186 C   0  0  0  0  0  0  0  0  0  0  0  0
    1.5934   -4.0692   -2.8819 H   0  0  0  0  0  0  0  0  0  0  0  0
   -0.2693   -3.0857   -3.3028 N   0  0  0  0  0  0  0  0  0  0  0  0
   -0.8014   -1.8790   -2.8409 C   0  0  0  0  0  0  0  0  0  0  0  0
   -1.7712   -1.4700   -3.0934 H   0  0  0  0  0  0  0  0  0  0  0  0
   -0.5333    0.9021    1.1689 C   0  0  0  0  0  0  0  0  0  0  0  0
   -0.8162    1.9867    0.6606 O   0  0  0  0  0  0  0  0  0  0  0  0
   -0.2197    0.7765    2.4644 N   0  0  0  0  0  0  0  0  0  0  0  0
    0.0538   -0.1376    2.7939 H   0  0  0  0  0  0  0  0  0  0  0  0
   -0.1989    1.8814    3.4193 C   0  0  0  0  0  0  0  0  0  0  0  0
   -1.1896    2.3379    3.4777 H   0  0  0  0  0  0  0  0  0  0  0  0
    0.0875    1.5182    4.4067 H   0  0  0  0  0  0  0  0  0  0  0  0
    0.5148    2.6397    3.0936 H   0  0  0  0  0  0  0  0  0  0  0  0
  5  6  2  0  0  0  0
  5  7  1  0  0  0  0
  2  3  1  0  0  0  0
  2  4  1  0  0  0  0
  2  5  1  0  0  0  0
  1  2  1  0  0  0  0
 22 23  2  0  0  0  0
 22 24  1  0  0  0  0
 20 21  1  0  0  0  0
 19 20  1  0  0  0  0
 17 18  1  0  0  0  0
 17 19  2  0  0  0  0
 15 16  1  0  0  0  0
 15 17  1  0  0  0  0
 14 15  1  0  0  0  0
 14 20  2  0  0  0  0
 11 12  1  0  0  0  0
 11 13  1  0  0  0  0
 11 14  1  0  0  0  0
  9 10  1  0  0  0  0
  9 11  1  0  0  0  0
  9 22  1  0  0  0  0
  7  8  1  0  0  0  0
  7  9  1  0  0  0  0
 26 27  1  0  0  0  0
 26 28  1  0  0  0  0
 26 29  1  0  0  0  0
 24 25  1  0  0  0  0
 24 26  1  0  0  0  0
M  END
$$$$
default_name
  -OEChem-01062215323D

 29 29  0     1  0  0  0  0  0999 V2000
   -3.6042   -3.5728    1.4576 H   0  0  0  0  0  0  0  0  0  0  0  0
   -3.5202   -2.6488    0.8866 C   0  0  0  0  0  0  0  0  0  0  0  0
   -4.2052   -1.9048    1.2896 H   0  0  0  0  0  0  0  0  0  0  0  0
   -3.7552   -2.8428   -0.1584 H   0  0  0  0  0  0  0  0  0  0  0  0
   -2.1052   -2.1358    0.9946 C   0  0  0  0  0  0  0  0  0  0  0  0
   -1.2852   -2.7288    1.6826 O   0  0  0  0  0  0  0  0  0  0  0  0
   -1.8202   -1.0288    0.3146 N   0  0  0  0  0  0  0  0  0  0  0  0
   -2.5542   -0.5788   -0.2104 H   0  0  0  0  0  0  0  0  0  0  0  0
   -0.5102   -0.3728    0.3086 C   0  0  1  0  0  0  0  0  0  0  0  0
    0.2238   -1.0541    0.7413 H   0  0  0  0  0  0  0  0  0  0  0  0
   -0.0964   -0.0848   -1.1464 C   0  0  0  0  0  0  0  0  0  0  0  0
   -0.8640    0.5286   -1.6215 H   0  0  0  0  0  0  0  0  0  0  0  0
    0.8349    0.4845   -1.1453 H   0  0  0  0  0  0  0  0  0  0  0  0
    0.1042   -1.3277   -1.9742 C   0  0  0  0  0  0  0  0  0  0  0  0
    1.1785   -2.1887   -1.9060 N   0  0  0  0  0  0  0  0  0  0  0  0
    2.0093   -2.0603   -1.3479 H   0  0  0  0  0  0  0  0  0  0  0  0
    0.9292   -3.2293   -2.7186 C   0  0  0  0  0  0  0  0  0  0  0  0
    1.5934   -4.0692   -2.8819 H   0  0  0  0  0  0  0  0  0  0  0  0
   -0.2693   -3.0857   -3.3028 N   0  0  0  0  0  0  0  0  0  0  0  0
   -0.8014   -1.8790   -2.8409 C   0  0  0  0  0  0  0  0  0  0  0  0
   -1.7712   -1.4700   -3.0934 H   0  0  0  0  0  0  0  0  0  0  0  0
   -0.5333    0.9021    1.1689 C   0  0  0  0  0  0  0  0  0  0  0  0
   -1.0730    1.9243    0.7462 O   0  0  0  0  0  0  0  0  0  0  0  0
    0.0654    0.8486    2.3652 N   0  0  0  0  0  0  0  0  0  0  0  0
    0.5329   -0.0098    2.6174 H   0  0  0  0  0  0  0  0  0  0  0  0
    0.1296    1.9635    3.3064 C   0  0  0  0  0  0  0  0  0  0  0  0
   -0.8810    2.2733    3.5817 H   0  0  0  0  0  0  0  0  0  0  0  0
    0.6705    1.6649    4.2049 H   0  0  0  0  0  0  0  0  0  0  0  0
    0.6392    2.8104    2.8441 H   0  0  0  0  0  0  0  0  0  0  0  0
  5  6  2  0  0  0  0
  5  7  1  0  0  0  0
  2  3  1  0  0  0  0
  2  4  1  0  0  0  0
  2  5  1  0  0  0  0
  1  2  1  0  0  0  0
 22 23  2  0  0  0  0
 22 24  1  0  0  0  0
 20 21  1  0  0  0  0
 19 20  1  0  0  0  0
 17 18  1  0  0  0  0
 17 19  2  0  0  0  0
 15 16  1  0  0  0  0
 15 17  1  0  0  0  0
 14 15  1  0  0  0  0
 14 20  2  0  0  0  0
 11 12  1  0  0  0  0
 11 13  1  0  0  0  0
 11 14  1  0  0  0  0
  9 10  1  0  0  0  0
  9 11  1  0  0  0  0
  9 22  1  0  0  0  0
  7  8  1  0  0  0  0
  7  9  1  0  0  0  0
 26 27  1  0  0  0  0
 26 28  1  0  0  0  0
 26 29  1  0  0  0  0
 24 25  1  0  0  0  0
 24 26  1  0  0  0  0
M  END
$$$$
default_name
  -OEChem-01062215323D

 29 29  0     1  0  0  0  0  0999 V2000
   -3.6042   -3.5728    1.4576 H   0  0  0  0  0  0  0  0  0  0  0  0
   -3.5202   -2.6488    0.8866 C   0  0  0  0  0  0  0  0  0  0  0  0
   -4.2052   -1.9048    1.2896 H   0  0  0  0  0  0  0  0  0  0  0  0
   -3.7552   -2.8428   -0.1584 H   0  0  0  0  0  0  0  0  0  0  0  0
   -2.1052   -2.1358    0.9946 C   0  0  0  0  0  0  0  0  0  0  0  0
   -1.2852   -2.7288    1.6826 O   0  0  0  0  0  0  0  0  0  0  0  0
   -1.8202   -1.0288    0.3146 N   0  0  0  0  0  0  0  0  0  0  0  0
   -2.5542   -0.5788   -0.2104 H   0  0  0  0  0  0  0  0  0  0  0  0
   -0.5102   -0.3728    0.3086 C   0  0  1  0  0  0  0  0  0  0  0  0
    0.2238   -1.0541    0.7413 H   0  0  0  0  0  0  0  0  0  0  0  0
   -0.0964   -0.0848   -1.1464 C   0  0  0  0  0  0  0  0  0  0  0  0
   -0.8640    0.5286   -1.6215 H   0  0  0  0  0  0  0  0  0  0  0  0
    0.8349    0.4845   -1.1453 H   0  0  0  0  0  0  0  0  0  0  0  0
    0.1042   -1.3277   -1.9742 C   0  0  0  0  0  0  0  0  0  0  0  0
    1.1785   -2.1887   -1.9060 N   0  0  0  0  0  0  0  0  0  0  0  0
    2.0093   -2.0603   -1.3479 H   0  0  0  0  0  0  0  0  0  0  0  0
    0.9292   -3.2293   -2.7186 C   0  0  0  0  0  0  0  0  0  0  0  0
    1.5934   -4.0692   -2.8819 H   0  0  0  0  0  0  0  0  0  0  0  0
   -0.2693   -3.0857   -3.3028 N   0  0  0  0  0  0  0  0  0  0  0  0
   -0.8014   -1.8790   -2.8409 C   0  0  0  0  0  0  0  0  0  0  0  0
   -1.7712   -1.4700   -3.0934 H   0  0  0  0  0  0  0  0  0  0  0  0
   -0.5333    0.9021    1.1689 C   0  0  0  0  0  0  0  0  0  0  0  0
   -1.2935    1.8272    0.8842 O   0  0  0  0  0  0  0  0  0  0  0  0
    0.3090    0.9591    2.2079 N   0  0  0  0  0  0  0  0  0  0  0  0
    0.9393    0.1823    2.3436 H   0  0  0  0  0  0  0  0  0  0  0  0
    0.4109    2.0899    3.1266 C   0  0  0  0  0  0  0  0  0  0  0  0
   -0.5513    2.2559    3.6163 H   0  0  0  0  0  0  0  0  0  0  0  0
    1.1692    1.8903    3.8843 H   0  0  0  0  0  0  0  0  0  0  0  0
    0.6811    2.9922    2.5757 H   0  0  0  0  0  0  0  0  0  0  0  0
  5  6  2  0  0  0  0
  5  7  1  0  0  0  0
  2  3  1  0  0  0  0
  2  4  1  0  0  0  0
  2  5  1  0  0  0  0
  1  2  1  0  0  0  0
 22 23  2  0  0  0  0
 22 24  1  0  0  0  0
 20 21  1  0  0  0  0
 19 20  1  0  0  0  0
 17 18  1  0  0  0  0
 17 19  2  0  0  0  0
 15 16  1  0  0  0  0
 15 17  1  0  0  0  0
 14 15  1  0  0  0  0
 14 20  2  0  0  0  0
 11 12  1  0  0  0  0
 11 13  1  0  0  0  0
 11 14  1  0  0  0  0
  9 10  1  0  0  0  0
  9 11  1  0  0  0  0
  9 22  1  0  0  0  0
  7  8  1  0  0  0  0
  7  9  1  0  0  0  0
 26 27  1  0  0  0  0
 26 28  1  0  0  0  0
 26 29  1  0  0  0  0
 24 25  1  0  0  0  0
 24 26  1  0  0  0  0
M  END
$$$$
default_name
  -OEChem-01062215323D

 29 29  0     1  0  0  0  0  0999 V2000
   -3.6042   -3.5728    1.4576 H   0  0  0  0  0  0  0  0  0  0  0  0
   -3.5202   -2.6488    0.8866 C   0  0  0  0  0  0  0  0  0  0  0  0
   -4.2052   -1.9048    1.2896 H   0  0  0  0  0  0  0  0  0  0  0  0
   -3.7552   -2.8428   -0.1584 H   0  0  0  0  0  0  0  0  0  0  0  0
   -2.1052   -2.1358    0.9946 C   0  0  0  0  0  0  0  0  0  0  0  0
   -1.2852   -2.7288    1.6826 O   0  0  0  0  0  0  0  0  0  0  0  0
   -1.8202   -1.0288    0.3146 N   0  0  0  0  0  0  0  0  0  0  0  0
   -2.5542   -0.5788   -0.2104 H   0  0  0  0  0  0  0  0  0  0  0  0
   -0.5102   -0.3728    0.3086 C   0  0  1  0  0  0  0  0  0  0  0  0
    0.2238   -1.0541    0.7413 H   0  0  0  0  0  0  0  0  0  0  0  0
   -0.0964   -0.0848   -1.1464 C   0  0  0  0  0  0  0  0  0  0  0  0
   -0.8640    0.5286   -1.6215 H   0  0  0  0  0  0  0  0  0  0  0  0
    0.8349    0.4845   -1.1453 H   0  0  0  0  0  0  0  0  0  0  0  0
    0.1042   -1.3277   -1.9742 C   0  0  0  0  0  0  0  0  0  0  0  0
    1.1785   -2.1887   -1.9060 N   0  0  0  0  0  0  0  0  0  0  0  0
    2.0093   -2.0603   -1.3479 H   0  0  0  0  0  0  0  0  0  0  0  0
    0.9292   -3.2293   -2.7186 C   0  0  0  0  0  0  0  0  0  0  0  0
    1.5934   -4.0692   -2.8819 H   0  0  0  0  0  0  0  0  0  0  0  0
   -0.2693   -3.0857   -3.3028 N   0  0  0  0  0  0  0  0  0  0  0  0
   -0.8014   -1.8790   -2.8409 C   0  0  0  0  0  0  0  0  0  0  0  0
   -1.7712   -1.4700   -3.0934 H   0  0  0  0  0  0  0  0  0  0  0  0
   -0.5333    0.9021    1.1689 C   0  0  0  0  0  0  0  0  0  0  0  0
   -1.4629    1.7020    1.0651 O   0  0  0  0  0  0  0  0  0  0  0  0
    0.4947    1.1005    2.0034 N   0  0  0  0  0  0  0  0  0  0  0  0
    1.2453    0.4256    1.9912 H   0  0  0  0  0  0  0  0  0  0  0  0
    0.6257    2.2521    2.8921 C   0  0  0  0  0  0  0  0  0  0  0  0
   -0.2230    2.2871    3.5789 H   0  0  0  0  0  0  0  0  0  0  0  0
    1.5494    2.1789    3.4668 H   0  0  0  0  0  0  0  0  0  0  0  0
    0.6376    3.1729    2.3068 H   0  0  0  0  0  0  0  0  0  0  0  0
  5  6  2  0  0  0  0
  5  7  1  0  0  0  0
  2  3  1  0  0  0  0
  2  4  1  0  0  0  0
  2  5  1  0  0  0  0
  1  2  1  0  0  0  0
 22 23  2  0  0  0  0
 22 24  1  0  0  0  0
 20 21  1  0  0  0  0
 19 20  1  0  0  0  0
 17 18  1  0  0  0  0
 17 19  2  0  0  0  0
 15 16  1  0  0  0  0
 15 17  1  0  0  0  0
 14 15  1  0  0  0  0
 14 20  2  0  0  0  0
 11 12  1  0  0  0  0
 11 13  1  0  0  0  0
 11 14  1  0  0  0  0
  9 10  1  0  0  0  0
  9 11  1  0  0  0  0
  9 22  1  0  0  0  0
  7  8  1  0  0  0  0
  7  9  1  0  0  0  0
 26 27  1  0  0  0  0
 26 28  1  0  0  0  0
 26 29  1  0  0  0  0
 24 25  1  0  0  0  0
 24 26  1  0  0  0  0
M  END
$$$$
default_name
  -OEChem-01062215323D

 29 29  0     1  0  0  0  0  0999 V2000
   -3.6042   -3.5728    1.4576 H   0  0  0  0  0  0  0  0  0  0  0  0
   -3.5202   -2.6488    0.8866 C   0  0  0  0  0  0  0  0  0  0  0  0
   -4.2052   -1.9048    1.2896 H   0  0  0  0  0  0  0  0  0  0  0  0
   -3.7552   -2.8428   -0.1584 H   0  0  0  0  0  0  0  0  0  0  0  0
   -2.1052   -2.1358    0.9946 C   0  0  0  0  0  0  0  0  0  0  0  0
   -1.2852   -2.7288    1.6826 O   0  0  0  0  0  0  0  0  0  0  0  0
   -1.8202   -1.0288    0.3146 N   0  0  0  0  0  0  0  0  0  0  0  0
   -2.5542   -0.5788   -0.2104 H   0  0  0  0  0  0  0  0  0  0  0  0
   -0.5102   -0.3728    0.3086 C   0  0  1  0  0  0  0  0  0  0  0  0
    0.2238   -1.0541    0.7413 H   0  0  0  0  0  0  0  0  0  0  0  0
   -0.0964   -0.0848   -1.1464 C   0  0  0  0  0  0  0  0  0  0  0  0
   -0.8640    0.5286   -1.6215 H   0  0  0  0  0  0  0  0  0  0  0  0
    0.8349    0.4845   -1.1453 H   0  0  0  0  0  0  0  0  0  0  0  0
    0.1042   -1.3277   -1.9742 C   0  0  0  0  0  0  0  0  0  0  0  0
    1.1785   -2.1887   -1.9060 N   0  0  0  0  0  0  0  0  0  0  0  0
    2.0093   -2.0603   -1.3479 H   0  0  0  0  0  0  0  0  0  0  0  0
    0.9292   -3.2293   -2.7186 C   0  0  0  0  0  0  0  0  0  0  0  0
    1.5934   -4.0692   -2.8819 H   0  0  0  0  0  0  0  0  0  0  0  0
   -0.2693   -3.0857   -3.3028 N   0  0  0  0  0  0  0  0  0  0  0  0
   -0.8014   -1.8790   -2.8409 C   0  0  0  0  0  0  0  0  0  0  0  0
   -1.7712   -1.4700   -3.0934 H   0  0  0  0  0  0  0  0  0  0  0  0
   -0.5333    0.9021    1.1689 C   0  0  0  0  0  0  0  0  0  0  0  0
   -1.5696    1.5572    1.2768 O   0  0  0  0  0  0  0  0  0  0  0  0
    0.6096    1.2632    1.7654 N   0  0  0  0  0  0  0  0  0  0  0  0
    1.4300    0.7036    1.5842 H   0  0  0  0  0  0  0  0  0  0  0  0
    0.7594    2.4389    2.6189 C   0  0  0  0  0  0  0  0  0  0  0  0
    0.0817    2.3645    3.4723 H   0  0  0  0  0  0  0  0  0  0  0  0
    1.7854    2.5111    2.9808 H   0  0  0  0  0  0  0  0  0  0  0  0
    0.5119    3.3401    2.0557 H   0  0  0  0  0  0  0  0  0  0  0  0
  5  6  2  0  0  0  0
  5  7  1  0  0  0  0
  2  3  1  0  0  0  0
  2  4  1  0  0  0  0
  2  5  1  0  0  0  0
  1  2  1  0  0  0  0
 22 23  2  0  0  0  0
 22 24  1  0  0  0  0
 20 21  1  0  0  0  0
 19 20  1  0  0  0  0
 17 18  1  0  0  0  0
 17 19  2  0  0  0  0
 15 16  1  0  0  0  0
 15 17  1  0  0  0  0
 14 15  1  0  0  0  0
 14 20  2  0  0  0  0
 11 12  1  0  0  0  0
 11 13  1  0  0  0  0
 11 14  1  0  0  0  0
  9 10  1  0  0  0  0
  9 11  1  0  0  0  0
  9 22  1  0  0  0  0
  7  8  1  0  0  0  0
  7  9  1  0  0  0  0
 26 27  1  0  0  0  0
 26 28  1  0  0  0  0
 26 29  1  0  0  0  0
 24 25  1  0  0  0  0
 24 26  1  0  0  0  0
M  END
$$$$
default_name
  -OEChem-01062215323D

 29 29  0     1  0  0  0  0  0999 V2000
   -3.6042   -3.5728    1.4576 H   0  0  0  0  0  0  0  0  0  0  0  0
   -3.5202   -2.6488    0.8866 C   0  0  0  0  0  0  0  0  0  0  0  0
   -4.2052   -1.9048    1.2896 H   0  0  0  0  0  0  0  0  0  0  0  0
   -3.7552   -2.8428   -0.1584 H   0  0  0  0  0  0  0  0  0  0  0  0
   -2.1052   -2.1358    0.9946 C   0  0  0  0  0  0  0  0  0  0  0  0
   -1.2852   -2.7288    1.6826 O   0  0  0  0  0  0  0  0  0  0  0  0
   -1.8202   -1.0288    0.3146 N   0  0  0  0  0  0  0  0  0  0  0  0
   -2.5542   -0.5788   -0.2104 H   0  0  0  0  0  0  0  0  0  0  0  0
   -0.5102   -0.3728    0.3086 C   0  0  1  0  0  0  0  0  0  0  0  0
    0.2238   -1.0541    0.7413 H   0  0  0  0  0  0  0  0  0  0  0  0
   -0.0964   -0.0848   -1.1464 C   0  0  0  0  0  0  0  0  0  0  0  0
   -0.8640    0.5286   -1.6215 H   0  0  0  0  0  0  0  0  0  0  0  0
    0.8349    0.4845   -1.1453 H   0  0  0  0  0  0  0  0  0  0  0  0
    0.1042   -1.3277   -1.9742 C   0  0  0  0  0  0  0  0  0  0  0  0
    1.1785   -2.1887   -1.9060 N   0  0  0  0  0  0  0  0  0  0  0  0
    2.0093   -2.0603   -1.3479 H   0  0  0  0  0  0  0  0  0  0  0  0
    0.9292   -3.2293   -2.7186 C   0  0  0  0  0  0  0  0  0  0  0  0
    1.5934   -4.0692   -2.8819 H   0  0  0  0  0  0  0  0  0  0  0  0
   -0.2693   -3.0857   -3.3028 N   0  0  0  0  0  0  0  0  0  0  0  0
   -0.8014   -1.8790   -2.8409 C   0  0  0  0  0  0  0  0  0  0  0  0
   -1.7712   -1.4700   -3.0934 H   0  0  0  0  0  0  0  0  0  0  0  0
   -0.5333    0.9021    1.1689 C   0  0  0  0  0  0  0  0  0  0  0  0
   -1.6063    1.4028    1.5047 O   0  0  0  0  0  0  0  0  0  0  0  0
    0.6460    1.4360    1.5102 N   0  0  0  0  0  0  0  0  0  0  0  0
    1.4809    0.9973    1.1504 H   0  0  0  0  0  0  0  0  0  0  0  0
    0.8028    2.6376    2.3255 C   0  0  0  0  0  0  0  0  0  0  0  0
    0.3419    2.4830    3.3037 H   0  0  0  0  0  0  0  0  0  0  0  0
    1.8610    2.8643    2.4595 H   0  0  0  0  0  0  0  0  0  0  0  0
    0.3123    3.4824    1.8394 H   0  0  0  0  0  0  0  0  0  0  0  0
  5  6  2  0  0  0  0
  5  7  1  0  0  0  0
  2  3  1  0  0  0  0
  2  4  1  0  0  0  0
  2  5  1  0  0  0  0
  1  2  1  0  0  0  0
 22 23  2  0  0  0  0
 22 24  1  0  0  0  0
 20 21  1  0  0  0  0
 19 20  1  0  0  0  0
 17 18  1  0  0  0  0
 17 19  2  0  0  0  0
 15 16  1  0  0  0  0
 15 17  1  0  0  0  0
 14 15  1  0  0  0  0
 14 20  2  0  0  0  0
 11 12  1  0  0  0  0
 11 13  1  0  0  0  0
 11 14  1  0  0  0  0
  9 10  1  0  0  0  0
  9 11  1  0  0  0  0
  9 22  1  0  0  0  0
  7  8  1  0  0  0  0
  7  9  1  0  0  0  0
 26 27  1  0  0  0  0
 26 28  1  0  0  0  0
 26 29  1  0  0  0  0
 24 25  1  0  0  0  0
 24 26  1  0  0  0  0
M  END
$$$$
default_name
  -OEChem-01062215323D

 29 29  0     1  0  0  0  0  0999 V2000
   -3.6042   -3.5728    1.4576 H   0  0  0  0  0  0  0  0  0  0  0  0
   -3.5202   -2.6488    0.8866 C   0  0  0  0  0  0  0  0  0  0  0  0
   -4.2052   -1.9048    1.2896 H   0  0  0  0  0  0  0  0  0  0  0  0
   -3.7552   -2.8428   -0.1584 H   0  0  0  0  0  0  0  0  0  0  0  0
   -2.1052   -2.1358    0.9946 C   0  0  0  0  0  0  0  0  0  0  0  0
   -1.2852   -2.7288    1.6826 O   0  0  0  0  0  0  0  0  0  0  0  0
   -1.8202   -1.0288    0.3146 N   0  0  0  0  0  0  0  0  0  0  0  0
   -2.5542   -0.5788   -0.2104 H   0  0  0  0  0  0  0  0  0  0  0  0
   -0.5102   -0.3728    0.3086 C   0  0  1  0  0  0  0  0  0  0  0  0
    0.2589   -1.1264    0.4838 H   0  0  0  0  0  0  0  0  0  0  0  0
   -0.2634    0.2494   -1.0782 C   0  0  0  0  0  0  0  0  0  0  0  0
   -1.0718    0.9464   -1.3062 H   0  0  0  0  0  0  0  0  0  0  0  0
    0.6701    0.8146   -1.0535 H   0  0  0  0  0  0  0  0  0  0  0  0
   -0.1783   -0.7655   -2.1886 C   0  0  0  0  0  0  0  0  0  0  0  0
    0.8839   -1.6053   -2.4466 N   0  0  0  0  0  0  0  0  0  0  0  0
    1.7755   -1.5992   -1.9742 H   0  0  0  0  0  0  0  0  0  0  0  0
    0.5269   -2.4327   -3.4433 C   0  0  0  0  0  0  0  0  0  0  0  0
    1.1554   -3.2034   -3.8725 H   0  0  0  0  0  0  0  0  0  0  0  0
   -0.7289   -2.1728   -3.8354 N   0  0  0  0  0  0  0  0  0  0  0  0
   -1.1861   -1.1126   -3.0483 C   0  0  0  0  0  0  0  0  0  0  0  0
   -2.1725   -0.6685   -3.0850 H   0  0  0  0  0  0  0  0  0  0  0  0
   -0.4148    0.6679    1.4372 C   0  0  0  0  0  0  0  0  0  0  0  0
   -1.3745    0.8619    2.1830 O   0  0  0  0  0  0  0  0  0  0  0  0
    0.7326    1.3482    1.5521 N   0  0  0  0  0  0  0  0  0  0  0  0
    1.4534    1.1703    0.8682 H   0  0  0  0  0  0  0  0  0  0  0  0
    0.9912    2.3643    2.5689 C   0  0  0  0  0  0  0  0  0  0  0  0
    0.8983    1.9232    3.5639 H   0  0  0  0  0  0  0  0  0  0  0  0
    1.9968    2.7681    2.4480 H   0  0  0  0  0  0  0  0  0  0  0  0
    0.2649    3.1734    2.4779 H   0  0  0  0  0  0  0  0  0  0  0  0
  5  6  2  0  0  0  0
  5  7  1  0  0  0  0
  2  3  1  0  0  0  0
  2  4  1  0  0  0  0
  2  5  1  0  0  0  0
  1  2  1  0  0  0  0
 22 23  2  0  0  0  0
 22 24  1  0  0  0  0
 20 21  1  0  0  0  0
 19 20  1  0  0  0  0
 17 18  1  0  0  0  0
 17 19  2  0  0  0  0
 15 16  1  0  0  0  0
 15 17  1  0  0  0  0
 14 15  1  0  0  0  0
 14 20  2  0  0  0  0
 11 12  1  0  0  0  0
 11 13  1  0  0  0  0
 11 14  1  0  0  0  0
  9 10  1  0  0  0  0
  9 11  1  0  0  0  0
  9 22  1  0  0  0  0
  7  8  1  0  0  0  0
  7  9  1  0  0  0  0
 26 27  1  0  0  0  0
 26 28  1  0  0  0  0
 26 29  1  0  0  0  0
 24 25  1  0  0  0  0
 24 26  1  0  0  0  0
M  END
$$$$
default_name
  -OEChem-01062215323D

 29 29  0     1  0  0  0  0  0999 V2000
   -3.6042   -3.5728    1.4576 H   0  0  0  0  0  0  0  0  0  0  0  0
   -3.5202   -2.6488    0.8866 C   0  0  0  0  0  0  0  0  0  0  0  0
   -4.2052   -1.9048    1.2896 H   0  0  0  0  0  0  0  0  0  0  0  0
   -3.7552   -2.8428   -0.1584 H   0  0  0  0  0  0  0  0  0  0  0  0
   -2.1052   -2.1358    0.9946 C   0  0  0  0  0  0  0  0  0  0  0  0
   -1.2852   -2.7288    1.6826 O   0  0  0  0  0  0  0  0  0  0  0  0
   -1.8202   -1.0288    0.3146 N   0  0  0  0  0  0  0  0  0  0  0  0
   -2.5542   -0.5788   -0.2104 H   0  0  0  0  0  0  0  0  0  0  0  0
   -0.5102   -0.3728    0.3086 C   0  0  1  0  0  0  0  0  0  0  0  0
    0.2589   -1.1264    0.4838 H   0  0  0  0  0  0  0  0  0  0  0  0
   -0.2634    0.2494   -1.0782 C   0  0  0  0  0  0  0  0  0  0  0  0
   -1.0718    0.9464   -1.3062 H   0  0  0  0  0  0  0  0  0  0  0  0
    0.6701    0.8146   -1.0535 H   0  0  0  0  0  0  0  0  0  0  0  0
   -0.1783   -0.7655   -2.1886 C   0  0  0  0  0  0  0  0  0  0  0  0
    0.8839   -1.6053   -2.4466 N   0  0  0  0  0  0  0  0  0  0  0  0
    1.7755   -1.5992   -1.9742 H   0  0  0  0  0  0  0  0  0  0  0  0
    0.5269   -2.4327   -3.4433 C   0  0  0  0  0  0  0  0  0  0  0  0
    1.1554   -3.2034   -3.8725 H   0  0  0  0  0  0  0  0  0  0  0  0
   -0.7289   -2.1728   -3.8354 N   0  0  0  0  0  0  0  0  0  0  0  0
   -1.1861   -1.1126   -3.0483 C   0  0  0  0  0  0  0  0  0  0  0  0
   -2.1725   -0.6685   -3.0850 H   0  0  0  0  0  0  0  0  0  0  0  0
   -0.4148    0.6679    1.4372 C   0  0  0  0  0  0  0  0  0  0  0  0
   -1.2467    0.6753    2.3442 O   0  0  0  0  0  0  0  0  0  0  0  0
    0.5857    1.5553    1.3736 N   0  0  0  0  0  0  0  0  0  0  0  0
    1.1948    1.5180    0.5695 H   0  0  0  0  0  0  0  0  0  0  0  0
    0.8237    2.6029    2.3630 C   0  0  0  0  0  0  0  0  0  0  0  0
    0.9929    2.1531    3.3439 H   0  0  0  0  0  0  0  0  0  0  0  0
    1.6977    3.1916    2.0828 H   0  0  0  0  0  0  0  0  0  0  0  0
   -0.0466    3.2581    2.4262 H   0  0  0  0  0  0  0  0  0  0  0  0
  5  6  2  0  0  0  0
  5  7  1  0  0  0  0
  2  3  1  0  0  0  0
  2  4  1  0  0  0  0
  2  5  1  0  0  0  0
  1  2  1  0  0  0  0
 22 23  2  0  0  0  0
 22 24  1  0  0  0  0
 20 21  1  0  0  0  0
 19 20  1  0  0  0  0
 17 18  1  0  0  0  0
 17 19  2  0  0  0  0
 15 16  1  0  0  0  0
 15 17  1  0  0  0  0
 14 15  1  0  0  0  0
 14 20  2  0  0  0  0
 11 12  1  0  0  0  0
 11 13  1  0  0  0  0
 11 14  1  0  0  0  0
  9 10  1  0  0  0  0
  9 11  1  0  0  0  0
  9 22  1  0  0  0  0
  7  8  1  0  0  0  0
  7  9  1  0  0  0  0
 26 27  1  0  0  0  0
 26 28  1  0  0  0  0
 26 29  1  0  0  0  0
 24 25  1  0  0  0  0
 24 26  1  0  0  0  0
M  END
$$$$
default_name
  -OEChem-01062215323D

 29 29  0     1  0  0  0  0  0999 V2000
   -3.6042   -3.5728    1.4576 H   0  0  0  0  0  0  0  0  0  0  0  0
   -3.5202   -2.6488    0.8866 C   0  0  0  0  0  0  0  0  0  0  0  0
   -4.2052   -1.9048    1.2896 H   0  0  0  0  0  0  0  0  0  0  0  0
   -3.7552   -2.8428   -0.1584 H   0  0  0  0  0  0  0  0  0  0  0  0
   -2.1052   -2.1358    0.9946 C   0  0  0  0  0  0  0  0  0  0  0  0
   -1.2852   -2.7288    1.6826 O   0  0  0  0  0  0  0  0  0  0  0  0
   -1.8202   -1.0288    0.3146 N   0  0  0  0  0  0  0  0  0  0  0  0
   -2.5542   -0.5788   -0.2104 H   0  0  0  0  0  0  0  0  0  0  0  0
   -0.5102   -0.3728    0.3086 C   0  0  1  0  0  0  0  0  0  0  0  0
    0.2589   -1.1264    0.4838 H   0  0  0  0  0  0  0  0  0  0  0  0
   -0.2634    0.2494   -1.0782 C   0  0  0  0  0  0  0  0  0  0  0  0
   -1.0718    0.9464   -1.3062 H   0  0  0  0  0  0  0  0  0  0  0  0
    0.6701    0.8146   -1.0535 H   0  0  0  0  0  0  0  0  0  0  0  0
   -0.1783   -0.7655   -2.1886 C   0  0  0  0  0  0  0  0  0  0  0  0
    0.8839   -1.6053   -2.4466 N   0  0  0  0  0  0  0  0  0  0  0  0
    1.7755   -1.5992   -1.9742 H   0  0  0  0  0  0  0  0  0  0  0  0
    0.5269   -2.4327   -3.4433 C   0  0  0  0  0  0  0  0  0  0  0  0
    1.1554   -3.2034   -3.8725 H   0  0  0  0  0  0  0  0  0  0  0  0
   -0.7289   -2.1728   -3.8354 N   0  0  0  0  0  0  0  0  0  0  0  0
   -1.1861   -1.1126   -3.0483 C   0  0  0  0  0  0  0  0  0  0  0  0
   -2.1725   -0.6685   -3.0850 H   0  0  0  0  0  0  0  0  0  0  0  0
   -0.4148    0.6679    1.4372 C   0  0  0  0  0  0  0  0  0  0  0  0
   -1.0597    0.5168    2.4746 O   0  0  0  0  0  0  0  0  0  0  0  0
    0.3733    1.7303    1.2302 N   0  0  0  0  0  0  0  0  0  0  0  0
    0.8267    1.8095    0.3318 H   0  0  0  0  0  0  0  0  0  0  0  0
    0.5805    2.8049    2.1973 C   0  0  0  0  0  0  0  0  0  0  0  0
    1.0020    2.3966    3.1186 H   0  0  0  0  0  0  0  0  0  0  0  0
    1.2644    3.5497    1.7892 H   0  0  0  0  0  0  0  0  0  0  0  0
   -0.3725    3.2815    2.4321 H   0  0  0  0  0  0  0  0  0  0  0  0
  5  6  2  0  0  0  0
  5  7  1  0  0  0  0
  2  3  1  0  0  0  0
  2  4  1  0  0  0  0
  2  5  1  0  0  0  0
  1  2  1  0  0  0  0
 22 23  2  0  0  0  0
 22 24  1  0  0  0  0
 20 21  1  0  0  0  0
 19 20  1  0  0  0  0
 17 18  1  0  0  0  0
 17 19  2  0  0  0  0
 15 16  1  0  0  0  0
 15 17  1  0  0  0  0
 14 15  1  0  0  0  0
 14 20  2  0  0  0  0
 11 12  1  0  0  0  0
 11 13  1  0  0  0  0
 11 14  1  0  0  0  0
  9 10  1  0  0  0  0
  9 11  1  0  0  0  0
  9 22  1  0  0  0  0
  7  8  1  0  0  0  0
  7  9  1  0  0  0  0
 26 27  1  0  0  0  0
 26 28  1  0  0  0  0
 26 29  1  0  0  0  0
 24 25  1  0  0  0  0
 24 26  1  0  0  0  0
M  END
$$$$
default_name
  -OEChem-01062215323D

 29 29  0     1  0  0  0  0  0999 V2000
   -3.6042   -3.5728    1.4576 H   0  0  0  0  0  0  0  0  0  0  0  0
   -3.5202   -2.6488    0.8866 C   0  0  0  0  0  0  0  0  0  0  0  0
   -4.2052   -1.9048    1.2896 H   0  0  0  0  0  0  0  0  0  0  0  0
   -3.7552   -2.8428   -0.1584 H   0  0  0  0  0  0  0  0  0  0  0  0
   -2.1052   -2.1358    0.9946 C   0  0  0  0  0  0  0  0  0  0  0  0
   -1.2852   -2.7288    1.6826 O   0  0  0  0  0  0  0  0  0  0  0  0
   -1.8202   -1.0288    0.3146 N   0  0  0  0  0  0  0  0  0  0  0  0
   -2.5542   -0.5788   -0.2104 H   0  0  0  0  0  0  0  0  0  0  0  0
   -0.5102   -0.3728    0.3086 C   0  0  1  0  0  0  0  0  0  0  0  0
    0.2589   -1.1264    0.4838 H   0  0  0  0  0  0  0  0  0  0  0  0
   -0.2634    0.2494   -1.0782 C   0  0  0  0  0  0  0  0  0  0  0  0
   -1.0718    0.9464   -1.3062 H   0  0  0  0  0  0  0  0  0  0  0  0
    0.6701    0.8146   -1.0535 H   0  0  0  0  0  0  0  0  0  0  0  0
   -0.1783   -0.7655   -2.1886 C   0  0  0  0  0  0  0  0  0  0  0  0
    0.8839   -1.6053   -2.4466 N   0  0  0  0  0  0  0  0  0  0  0  0
    1.7755   -1.5992   -1.9742 H   0  0  0  0  0  0  0  0  0  0  0  0
    0.5269   -2.4327   -3.4433 C   0  0  0  0  0  0  0  0  0  0  0  0
    1.1554   -3.2034   -3.8725 H   0  0  0  0  0  0  0  0  0  0  0  0
   -0.7289   -2.1728   -3.8354 N   0  0  0  0  0  0  0  0  0  0  0  0
   -1.1861   -1.1126   -3.0483 C   0  0  0  0  0  0  0  0  0  0  0  0
   -2.1725   -0.6685   -3.0850 H   0  0  0  0  0  0  0  0  0  0  0  0
   -0.4148    0.6679    1.4372 C   0  0  0  0  0  0  0  0  0  0  0  0
   -0.8260    0.3971    2.5652 O   0  0  0  0  0  0  0  0  0  0  0  0
    0.1097    1.8612    1.1317 N   0  0  0  0  0  0  0  0  0  0  0  0
    0.3741    2.0250    0.1713 H   0  0  0  0  0  0  0  0  0  0  0  0
    0.2782    2.9566    2.0830 C   0  0  0  0  0  0  0  0  0  0  0  0
    0.9251    2.6372    2.9032 H   0  0  0  0  0  0  0  0  0  0  0  0
    0.7265    3.8181    1.5872 H   0  0  0  0  0  0  0  0  0  0  0  0
   -0.6908    3.2422    2.4953 H   0  0  0  0  0  0  0  0  0  0  0  0
  5  6  2  0  0  0  0
  5  7  1  0  0  0  0
  2  3  1  0  0  0  0
  2  4  1  0  0  0  0
  2  5  1  0  0  0  0
  1  2  1  0  0  0  0
 22 23  2  0  0  0  0
 22 24  1  0  0  0  0
 20 21  1  0  0  0  0
 19 20  1  0  0  0  0
 17 18  1  0  0  0  0
 17 19  2  0  0  0  0
 15 16  1  0  0  0  0
 15 17  1  0  0  0  0
 14 15  1  0  0  0  0
 14 20  2  0  0  0  0
 11 12  1  0  0  0  0
 11 13  1  0  0  0  0
 11 14  1  0  0  0  0
  9 10  1  0  0  0  0
  9 11  1  0  0  0  0
  9 22  1  0  0  0  0
  7  8  1  0  0  0  0
  7  9  1  0  0  0  0
 26 27  1  0  0  0  0
 26 28  1  0  0  0  0
 26 29  1  0  0  0  0
 24 25  1  0  0  0  0
 24 26  1  0  0  0  0
M  END
$$$$
default_name
  -OEChem-01062215323D

 29 29  0     1  0  0  0  0  0999 V2000
   -3.6042   -3.5728    1.4576 H   0  0  0  0  0  0  0  0  0  0  0  0
   -3.5202   -2.6488    0.8866 C   0  0  0  0  0  0  0  0  0  0  0  0
   -4.2052   -1.9048    1.2896 H   0  0  0  0  0  0  0  0  0  0  0  0
   -3.7552   -2.8428   -0.1584 H   0  0  0  0  0  0  0  0  0  0  0  0
   -2.1052   -2.1358    0.9946 C   0  0  0  0  0  0  0  0  0  0  0  0
   -1.2852   -2.7288    1.6826 O   0  0  0  0  0  0  0  0  0  0  0  0
   -1.8202   -1.0288    0.3146 N   0  0  0  0  0  0  0  0  0  0  0  0
   -2.5542   -0.5788   -0.2104 H   0  0  0  0  0  0  0  0  0  0  0  0
   -0.5102   -0.3728    0.3086 C   0  0  1  0  0  0  0  0  0  0  0  0
    0.2589   -1.1264    0.4838 H   0  0  0  0  0  0  0  0  0  0  0  0
   -0.2634    0.2494   -1.0782 C   0  0  0  0  0  0  0  0  0  0  0  0
   -1.0718    0.9464   -1.3062 H   0  0  0  0  0  0  0  0  0  0  0  0
    0.6701    0.8146   -1.0535 H   0  0  0  0  0  0  0  0  0  0  0  0
   -0.1783   -0.7655   -2.1886 C   0  0  0  0  0  0  0  0  0  0  0  0
    0.8839   -1.6053   -2.4466 N   0  0  0  0  0  0  0  0  0  0  0  0
    1.7755   -1.5992   -1.9742 H   0  0  0  0  0  0  0  0  0  0  0  0
    0.5269   -2.4327   -3.4433 C   0  0  0  0  0  0  0  0  0  0  0  0
    1.1554   -3.2034   -3.8725 H   0  0  0  0  0  0  0  0  0  0  0  0
   -0.7289   -2.1728   -3.8354 N   0  0  0  0  0  0  0  0  0  0  0  0
   -1.1861   -1.1126   -3.0483 C   0  0  0  0  0  0  0  0  0  0  0  0
   -2.1725   -0.6685   -3.0850 H   0  0  0  0  0  0  0  0  0  0  0  0
   -0.4148    0.6679    1.4372 C   0  0  0  0  0  0  0  0  0  0  0  0
   -0.5617    0.3244    2.6099 O   0  0  0  0  0  0  0  0  0  0  0  0
   -0.1870    1.9393    1.0848 N   0  0  0  0  0  0  0  0  0  0  0  0
   -0.1321    2.1498    0.0991 H   0  0  0  0  0  0  0  0  0  0  0  0
   -0.0626    3.0474    2.0280 C   0  0  0  0  0  0  0  0  0  0  0  0
    0.7675    2.8585    2.7125 H   0  0  0  0  0  0  0  0  0  0  0  0
    0.1205    3.9784    1.4906 H   0  0  0  0  0  0  0  0  0  0  0  0
   -0.9797    3.1427    2.6114 H   0  0  0  0  0  0  0  0  0  0  0  0
  5  6  2  0  0  0  0
  5  7  1  0  0  0  0
  2  3  1  0  0  0  0
  2  4  1  0  0  0  0
  2  5  1  0  0  0  0
  1  2  1  0  0  0  0
 22 23  2  0  0  0  0
 22 24  1  0  0  0  0
 20 21  1  0  0  0  0
 19 20  1  0  0  0  0
 17 18  1  0  0  0  0
 17 19  2  0  0  0  0
 15 16  1  0  0  0  0
 15 17  1  0  0  0  0
 14 15  1  0  0  0  0
 14 20  2  0  0  0  0
 11 12  1  0  0  0  0
 11 13  1  0  0  0  0
 11 14  1  0  0  0  0
  9 10  1  0  0  0  0
  9 11  1  0  0  0  0
  9 22  1  0  0  0  0
  7  8  1  0  0  0  0
  7  9  1  0  0  0  0
 26 27  1  0  0  0  0
 26 28  1  0  0  0  0
 26 29  1  0  0  0  0
 24 25  1  0  0  0  0
 24 26  1  0  0  0  0
M  END
$$$$
default_name
  -OEChem-01062215323D

 29 29  0     1  0  0  0  0  0999 V2000
   -3.6042   -3.5728    1.4576 H   0  0  0  0  0  0  0  0  0  0  0  0
   -3.5202   -2.6488    0.8866 C   0  0  0  0  0  0  0  0  0  0  0  0
   -4.2052   -1.9048    1.2896 H   0  0  0  0  0  0  0  0  0  0  0  0
   -3.7552   -2.8428   -0.1584 H   0  0  0  0  0  0  0  0  0  0  0  0
   -2.1052   -2.1358    0.9946 C   0  0  0  0  0  0  0  0  0  0  0  0
   -1.2852   -2.7288    1.6826 O   0  0  0  0  0  0  0  0  0  0  0  0
   -1.8202   -1.0288    0.3146 N   0  0  0  0  0  0  0  0  0  0  0  0
   -2.5542   -0.5788   -0.2104 H   0  0  0  0  0  0  0  0  0  0  0  0
   -0.5102   -0.3728    0.3086 C   0  0  1  0  0  0  0  0  0  0  0  0
    0.2589   -1.1264    0.4838 H   0  0  0  0  0  0  0  0  0  0  0  0
   -0.2634    0.2494   -1.0782 C   0  0  0  0  0  0  0  0  0  0  0  0
   -1.0718    0.9464   -1.3062 H   0  0  0  0  0  0  0  0  0  0  0  0
    0.6701    0.8146   -1.0535 H   0  0  0  0  0  0  0  0  0  0  0  0
   -0.1783   -0.7655   -2.1886 C   0  0  0  0  0  0  0  0  0  0  0  0
    0.8839   -1.6053   -2.4466 N   0  0  0  0  0  0  0  0  0  0  0  0
    1.7755   -1.5992   -1.9742 H   0  0  0  0  0  0  0  0  0  0  0  0
    0.5269   -2.4327   -3.4433 C   0  0  0  0  0  0  0  0  0  0  0  0
    1.1554   -3.2034   -3.8725 H   0  0  0  0  0  0  0  0  0  0  0  0
   -0.7289   -2.1728   -3.8354 N   0  0  0  0  0  0  0  0  0  0  0  0
   -1.1861   -1.1126   -3.0483 C   0  0  0  0  0  0  0  0  0  0  0  0
   -2.1725   -0.6685   -3.0850 H   0  0  0  0  0  0  0  0  0  0  0  0
   -0.4148    0.6679    1.4372 C   0  0  0  0  0  0  0  0  0  0  0  0
   -0.2848    0.3037    2.6056 O   0  0  0  0  0  0  0  0  0  0  0  0
   -0.4966    1.9591    1.0927 N   0  0  0  0  0  0  0  0  0  0  0  0
   -0.6574    2.1754    0.1199 H   0  0  0  0  0  0  0  0  0  0  0  0
   -0.4186    3.0714    2.0360 C   0  0  0  0  0  0  0  0  0  0  0  0
    0.5398    3.0454    2.5594 H   0  0  0  0  0  0  0  0  0  0  0  0
   -0.5122    4.0197    1.5060 H   0  0  0  0  0  0  0  0  0  0  0  0
   -1.2195    2.9900    2.7725 H   0  0  0  0  0  0  0  0  0  0  0  0
  5  6  2  0  0  0  0
  5  7  1  0  0  0  0
  2  3  1  0  0  0  0
  2  4  1  0  0  0  0
  2  5  1  0  0  0  0
  1  2  1  0  0  0  0
 22 23  2  0  0  0  0
 22 24  1  0  0  0  0
 20 21  1  0  0  0  0
 19 20  1  0  0  0  0
 17 18  1  0  0  0  0
 17 19  2  0  0  0  0
 15 16  1  0  0  0  0
 15 17  1  0  0  0  0
 14 15  1  0  0  0  0
 14 20  2  0  0  0  0
 11 12  1  0  0  0  0
 11 13  1  0  0  0  0
 11 14  1  0  0  0  0
  9 10  1  0  0  0  0
  9 11  1  0  0  0  0
  9 22  1  0  0  0  0
  7  8  1  0  0  0  0
  7  9  1  0  0  0  0
 26 27  1  0  0  0  0
 26 28  1  0  0  0  0
 26 29  1  0  0  0  0
 24 25  1  0  0  0  0
 24 26  1  0  0  0  0
M  END
$$$$
default_name
  -OEChem-01062215323D

 29 29  0     1  0  0  0  0  0999 V2000
   -3.6042   -3.5728    1.4576 H   0  0  0  0  0  0  0  0  0  0  0  0
   -3.5202   -2.6488    0.8866 C   0  0  0  0  0  0  0  0  0  0  0  0
   -4.2052   -1.9048    1.2896 H   0  0  0  0  0  0  0  0  0  0  0  0
   -3.7552   -2.8428   -0.1584 H   0  0  0  0  0  0  0  0  0  0  0  0
   -2.1052   -2.1358    0.9946 C   0  0  0  0  0  0  0  0  0  0  0  0
   -1.2852   -2.7288    1.6826 O   0  0  0  0  0  0  0  0  0  0  0  0
   -1.8202   -1.0288    0.3146 N   0  0  0  0  0  0  0  0  0  0  0  0
   -2.5542   -0.5788   -0.2104 H   0  0  0  0  0  0  0  0  0  0  0  0
   -0.5102   -0.3728    0.3086 C   0  0  1  0  0  0  0  0  0  0  0  0
    0.2589   -1.1264    0.4838 H   0  0  0  0  0  0  0  0  0  0  0  0
   -0.2634    0.2494   -1.0782 C   0  0  0  0  0  0  0  0  0  0  0  0
   -1.0718    0.9464   -1.3062 H   0  0  0  0  0  0  0  0  0  0  0  0
    0.6701    0.8146   -1.0535 H   0  0  0  0  0  0  0  0  0  0  0  0
   -0.1783   -0.7655   -2.1886 C   0  0  0  0  0  0  0  0  0  0  0  0
    0.8839   -1.6053   -2.4466 N   0  0  0  0  0  0  0  0  0  0  0  0
    1.7755   -1.5992   -1.9742 H   0  0  0  0  0  0  0  0  0  0  0  0
    0.5269   -2.4327   -3.4433 C   0  0  0  0  0  0  0  0  0  0  0  0
    1.1554   -3.2034   -3.8725 H   0  0  0  0  0  0  0  0  0  0  0  0
   -0.7289   -2.1728   -3.8354 N   0  0  0  0  0  0  0  0  0  0  0  0
   -1.1861   -1.1126   -3.0483 C   0  0  0  0  0  0  0  0  0  0  0  0
   -2.1725   -0.6685   -3.0850 H   0  0  0  0  0  0  0  0  0  0  0  0
   -0.4148    0.6679    1.4372 C   0  0  0  0  0  0  0  0  0  0  0  0
   -0.0142    0.3363    2.5526 O   0  0  0  0  0  0  0  0  0  0  0  0
   -0.7980    1.9193    1.1549 N   0  0  0  0  0  0  0  0  0  0  0  0
   -1.1660    2.1000    0.2324 H   0  0  0  0  0  0  0  0  0  0  0  0
   -0.7657    3.0268    2.1065 C   0  0  0  0  0  0  0  0  0  0  0  0
    0.2576    3.1851    2.4545 H   0  0  0  0  0  0  0  0  0  0  0  0
   -1.1285    3.9392    1.6323 H   0  0  0  0  0  0  0  0  0  0  0  0
   -1.3939    2.7942    2.9678 H   0  0  0  0  0  0  0  0  0  0  0  0
  5  6  2  0  0  0  0
  5  7  1  0  0  0  0
  2  3  1  0  0  0  0
  2  4  1  0  0  0  0
  2  5  1  0  0  0  0
  1  2  1  0  0  0  0
 22 23  2  0  0  0  0
 22 24  1  0  0  0  0
 20 21  1  0  0  0  0
 19 20  1  0  0  0  0
 17 18  1  0  0  0  0
 17 19  2  0  0  0  0
 15 16  1  0  0  0  0
 15 17  1  0  0  0  0
 14 15  1  0  0  0  0
 14 20  2  0  0  0  0
 11 12  1  0  0  0  0
 11 13  1  0  0  0  0
 11 14  1  0  0  0  0
  9 10  1  0  0  0  0
  9 11  1  0  0  0  0
  9 22  1  0  0  0  0
  7  8  1  0  0  0  0
  7  9  1  0  0  0  0
 26 27  1  0  0  0  0
 26 28  1  0  0  0  0
 26 29  1  0  0  0  0
 24 25  1  0  0  0  0
 24 26  1  0  0  0  0
M  END
$$$$
default_name
  -OEChem-01062215323D

 29 29  0     1  0  0  0  0  0999 V2000
   -3.6042   -3.5728    1.4576 H   0  0  0  0  0  0  0  0  0  0  0  0
   -3.5202   -2.6488    0.8866 C   0  0  0  0  0  0  0  0  0  0  0  0
   -4.2052   -1.9048    1.2896 H   0  0  0  0  0  0  0  0  0  0  0  0
   -3.7552   -2.8428   -0.1584 H   0  0  0  0  0  0  0  0  0  0  0  0
   -2.1052   -2.1358    0.9946 C   0  0  0  0  0  0  0  0  0  0  0  0
   -1.2852   -2.7288    1.6826 O   0  0  0  0  0  0  0  0  0  0  0  0
   -1.8202   -1.0288    0.3146 N   0  0  0  0  0  0  0  0  0  0  0  0
   -2.5542   -0.5788   -0.2104 H   0  0  0  0  0  0  0  0  0  0  0  0
   -0.5102   -0.3728    0.3086 C   0  0  1  0  0  0  0  0  0  0  0  0
    0.2589   -1.1264    0.4838 H   0  0  0  0  0  0  0  0  0  0  0  0
   -0.2634    0.2494   -1.0782 C   0  0  0  0  0  0  0  0  0  0  0  0
   -1.0718    0.9464   -1.3062 H   0  0  0  0  0  0  0  0  0  0  0  0
    0.6701    0.8146   -1.0535 H   0  0  0  0  0  0  0  0  0  0  0  0
   -0.1783   -0.7655   -2.1886 C   0  0  0  0  0  0  0  0  0  0  0  0
    0.8839   -1.6053   -2.4466 N   0  0  0  0  0  0  0  0  0  0  0  0
    1.7755   -1.5992   -1.9742 H   0  0  0  0  0  0  0  0  0  0  0  0
    0.5269   -2.4327   -3.4433 C   0  0  0  0  0  0  0  0  0  0  0  0
    1.1554   -3.2034   -3.8725 H   0  0  0  0  0  0  0  0  0  0  0  0
   -0.7289   -2.1728   -3.8354 N   0  0  0  0  0  0  0  0  0  0  0  0
   -1.1861   -1.1126   -3.0483 C   0  0  0  0  0  0  0  0  0  0  0  0
   -2.1725   -0.6685   -3.0850 H   0  0  0  0  0  0  0  0  0  0  0  0
   -0.4148    0.6679    1.4372 C   0  0  0  0  0  0  0  0  0  0  0  0
    0.2318    0.4200    2.4546 O   0  0  0  0  0  0  0  0  0  0  0  0
   -1.0708    1.8226    1.2671 N   0  0  0  0  0  0  0  0  0  0  0  0
   -1.6233    1.9287    0.4290 H   0  0  0  0  0  0  0  0  0  0  0  0
   -1.0801    2.9166    2.2346 C   0  0  0  0  0  0  0  0  0  0  0  0
   -0.0600    3.2681    2.4048 H   0  0  0  0  0  0  0  0  0  0  0  0
   -1.6863    3.7424    1.8610 H   0  0  0  0  0  0  0  0  0  0  0  0
   -1.4911    2.5689    3.1837 H   0  0  0  0  0  0  0  0  0  0  0  0
  5  6  2  0  0  0  0
  5  7  1  0  0  0  0
  2  3  1  0  0  0  0
  2  4  1  0  0  0  0
  2  5  1  0  0  0  0
  1  2  1  0  0  0  0
 22 23  2  0  0  0  0
 22 24  1  0  0  0  0
 20 21  1  0  0  0  0
 19 20  1  0  0  0  0
 17 18  1  0  0  0  0
 17 19  2  0  0  0  0
 15 16  1  0  0  0  0
 15 17  1  0  0  0  0
 14 15  1  0  0  0  0
 14 20  2  0  0  0  0
 11 12  1  0  0  0  0
 11 13  1  0  0  0  0
 11 14  1  0  0  0  0
  9 10  1  0  0  0  0
  9 11  1  0  0  0  0
  9 22  1  0  0  0  0
  7  8  1  0  0  0  0
  7  9  1  0  0  0  0
 26 27  1  0  0  0  0
 26 28  1  0  0  0  0
 26 29  1  0  0  0  0
 24 25  1  0  0  0  0
 24 26  1  0  0  0  0
M  END
$$$$
default_name
  -OEChem-01062215323D

 29 29  0     1  0  0  0  0  0999 V2000
   -3.6042   -3.5728    1.4576 H   0  0  0  0  0  0  0  0  0  0  0  0
   -3.5202   -2.6488    0.8866 C   0  0  0  0  0  0  0  0  0  0  0  0
   -4.2052   -1.9048    1.2896 H   0  0  0  0  0  0  0  0  0  0  0  0
   -3.7552   -2.8428   -0.1584 H   0  0  0  0  0  0  0  0  0  0  0  0
   -2.1052   -2.1358    0.9946 C   0  0  0  0  0  0  0  0  0  0  0  0
   -1.2852   -2.7288    1.6826 O   0  0  0  0  0  0  0  0  0  0  0  0
   -1.8202   -1.0288    0.3146 N   0  0  0  0  0  0  0  0  0  0  0  0
   -2.5542   -0.5788   -0.2104 H   0  0  0  0  0  0  0  0  0  0  0  0
   -0.5102   -0.3728    0.3086 C   0  0  1  0  0  0  0  0  0  0  0  0
    0.2589   -1.1264    0.4838 H   0  0  0  0  0  0  0  0  0  0  0  0
   -0.2634    0.2494   -1.0782 C   0  0  0  0  0  0  0  0  0  0  0  0
   -1.0718    0.9464   -1.3062 H   0  0  0  0  0  0  0  0  0  0  0  0
    0.6701    0.8146   -1.0535 H   0  0  0  0  0  0  0  0  0  0  0  0
   -0.1783   -0.7655   -2.1886 C   0  0  0  0  0  0  0  0  0  0  0  0
    0.8839   -1.6053   -2.4466 N   0  0  0  0  0  0  0  0  0  0  0  0
    1.7755   -1.5992   -1.9742 H   0  0  0  0  0  0  0  0  0  0  0  0
    0.5269   -2.4327   -3.4433 C   0  0  0  0  0  0  0  0  0  0  0  0
    1.1554   -3.2034   -3.8725 H   0  0  0  0  0  0  0  0  0  0  0  0
   -0.7289   -2.1728   -3.8354 N   0  0  0  0  0  0  0  0  0  0  0  0
   -1.1861   -1.1126   -3.0483 C   0  0  0  0  0  0  0  0  0  0  0  0
   -2.1725   -0.6685   -3.0850 H   0  0  0  0  0  0  0  0  0  0  0  0
   -0.4148    0.6679    1.4372 C   0  0  0  0  0  0  0  0  0  0  0  0
    0.4363    0.5492    2.3182 O   0  0  0  0  0  0  0  0  0  0  0  0
   -1.2962    1.6756    1.4217 N   0  0  0  0  0  0  0  0  0  0  0  0
   -1.9980    1.6734    0.6961 H   0  0  0  0  0  0  0  0  0  0  0  0
   -1.3405    2.7485    2.4117 C   0  0  0  0  0  0  0  0  0  0  0  0
   -0.3911    3.2888    2.4137 H   0  0  0  0  0  0  0  0  0  0  0  0
   -2.1478    3.4427    2.1763 H   0  0  0  0  0  0  0  0  0  0  0  0
   -1.5043    2.3294    3.4057 H   0  0  0  0  0  0  0  0  0  0  0  0
  5  6  2  0  0  0  0
  5  7  1  0  0  0  0
  2  3  1  0  0  0  0
  2  4  1  0  0  0  0
  2  5  1  0  0  0  0
  1  2  1  0  0  0  0
 22 23  2  0  0  0  0
 22 24  1  0  0  0  0
 20 21  1  0  0  0  0
 19 20  1  0  0  0  0
 17 18  1  0  0  0  0
 17 19  2  0  0  0  0
 15 16  1  0  0  0  0
 15 17  1  0  0  0  0
 14 15  1  0  0  0  0
 14 20  2  0  0  0  0
 11 12  1  0  0  0  0
 11 13  1  0  0  0  0
 11 14  1  0  0  0  0
  9 10  1  0  0  0  0
  9 11  1  0  0  0  0
  9 22  1  0  0  0  0
  7  8  1  0  0  0  0
  7  9  1  0  0  0  0
 26 27  1  0  0  0  0
 26 28  1  0  0  0  0
 26 29  1  0  0  0  0
 24 25  1  0  0  0  0
 24 26  1  0  0  0  0
M  END
$$$$
default_name
  -OEChem-01062215323D

 29 29  0     1  0  0  0  0  0999 V2000
   -3.6042   -3.5728    1.4576 H   0  0  0  0  0  0  0  0  0  0  0  0
   -3.5202   -2.6488    0.8866 C   0  0  0  0  0  0  0  0  0  0  0  0
   -4.2052   -1.9048    1.2896 H   0  0  0  0  0  0  0  0  0  0  0  0
   -3.7552   -2.8428   -0.1584 H   0  0  0  0  0  0  0  0  0  0  0  0
   -2.1052   -2.1358    0.9946 C   0  0  0  0  0  0  0  0  0  0  0  0
   -1.2852   -2.7288    1.6826 O   0  0  0  0  0  0  0  0  0  0  0  0
   -1.8202   -1.0288    0.3146 N   0  0  0  0  0  0  0  0  0  0  0  0
   -2.5542   -0.5788   -0.2104 H   0  0  0  0  0  0  0  0  0  0  0  0
   -0.5102   -0.3728    0.3086 C   0  0  1  0  0  0  0  0  0  0  0  0
    0.2589   -1.1264    0.4838 H   0  0  0  0  0  0  0  0  0  0  0  0
   -0.2634    0.2494   -1.0782 C   0  0  0  0  0  0  0  0  0  0  0  0
   -1.0718    0.9464   -1.3062 H   0  0  0  0  0  0  0  0  0  0  0  0
    0.6701    0.8146   -1.0535 H   0  0  0  0  0  0  0  0  0  0  0  0
   -0.1783   -0.7655   -2.1886 C   0  0  0  0  0  0  0  0  0  0  0  0
    0.8839   -1.6053   -2.4466 N   0  0  0  0  0  0  0  0  0  0  0  0
    1.7755   -1.5992   -1.9742 H   0  0  0  0  0  0  0  0  0  0  0  0
    0.5269   -2.4327   -3.4433 C   0  0  0  0  0  0  0  0  0  0  0  0
    1.1554   -3.2034   -3.8725 H   0  0  0  0  0  0  0  0  0  0  0  0
   -0.7289   -2.1728   -3.8354 N   0  0  0  0  0  0  0  0  0  0  0  0
   -1.1861   -1.1126   -3.0483 C   0  0  0  0  0  0  0  0  0  0  0  0
   -2.1725   -0.6685   -3.0850 H   0  0  0  0  0  0  0  0  0  0  0  0
   -0.4148    0.6679    1.4372 C   0  0  0  0  0  0  0  0  0  0  0  0
    0.5854    0.7150    2.1527 O   0  0  0  0  0  0  0  0  0  0  0  0
   -1.4589    1.4884    1.6081 N   0  0  0  0  0  0  0  0  0  0  0  0
   -2.2647    1.3512    1.0157 H   0  0  0  0  0  0  0  0  0  0  0  0
   -1.5290    2.5338    2.6256 C   0  0  0  0  0  0  0  0  0  0  0  0
   -0.7134    3.2457    2.4806 H   0  0  0  0  0  0  0  0  0  0  0  0
   -2.4813    3.0605    2.5570 H   0  0  0  0  0  0  0  0  0  0  0  0
   -1.4327    2.0919    3.6186 H   0  0  0  0  0  0  0  0  0  0  0  0
  5  6  2  0  0  0  0
  5  7  1  0  0  0  0
  2  3  1  0  0  0  0
  2  4  1  0  0  0  0
  2  5  1  0  0  0  0
  1  2  1  0  0  0  0
 22 23  2  0  0  0  0
 22 24  1  0  0  0  0
 20 21  1  0  0  0  0
 19 20  1  0  0  0  0
 17 18  1  0  0  0  0
 17 19  2  0  0  0  0
 15 16  1  0  0  0  0
 15 17  1  0  0  0  0
 14 15  1  0  0  0  0
 14 20  2  0  0  0  0
 11 12  1  0  0  0  0
 11 13  1  0  0  0  0
 11 14  1  0  0  0  0
  9 10  1  0  0  0  0
  9 11  1  0  0  0  0
  9 22  1  0  0  0  0
  7  8  1  0  0  0  0
  7  9  1  0  0  0  0
 26 27  1  0  0  0  0
 26 28  1  0  0  0  0
 26 29  1  0  0  0  0
 24 25  1  0  0  0  0
 24 26  1  0  0  0  0
M  END
$$$$
default_name
  -OEChem-01062215323D

 29 29  0     1  0  0  0  0  0999 V2000
   -3.6042   -3.5728    1.4576 H   0  0  0  0  0  0  0  0  0  0  0  0
   -3.5202   -2.6488    0.8866 C   0  0  0  0  0  0  0  0  0  0  0  0
   -4.2052   -1.9048    1.2896 H   0  0  0  0  0  0  0  0  0  0  0  0
   -3.7552   -2.8428   -0.1584 H   0  0  0  0  0  0  0  0  0  0  0  0
   -2.1052   -2.1358    0.9946 C   0  0  0  0  0  0  0  0  0  0  0  0
   -1.2852   -2.7288    1.6826 O   0  0  0  0  0  0  0  0  0  0  0  0
   -1.8202   -1.0288    0.3146 N   0  0  0  0  0  0  0  0  0  0  0  0
   -2.5542   -0.5788   -0.2104 H   0  0  0  0  0  0  0  0  0  0  0  0
   -0.5102   -0.3728    0.3086 C   0  0  1  0  0  0  0  0  0  0  0  0
    0.2589   -1.1264    0.4838 H   0  0  0  0  0  0  0  0  0  0  0  0
   -0.2634    0.2494   -1.0782 C   0  0  0  0  0  0  0  0  0  0  0  0
   -1.0718    0.9464   -1.3062 H   0  0  0  0  0  0  0  0  0  0  0  0
    0.6701    0.8146   -1.0535 H   0  0  0  0  0  0  0  0  0  0  0  0
   -0.1783   -0.7655   -2.1886 C   0  0  0  0  0  0  0  0  0  0  0  0
    0.8839   -1.6053   -2.4466 N   0  0  0  0  0  0  0  0  0  0  0  0
    1.7755   -1.5992   -1.9742 H   0  0  0  0  0  0  0  0  0  0  0  0
    0.5269   -2.4327   -3.4433 C   0  0  0  0  0  0  0  0  0  0  0  0
    1.1554   -3.2034   -3.8725 H   0  0  0  0  0  0  0  0  0  0  0  0
   -0.7289   -2.1728   -3.8354 N   0  0  0  0  0  0  0  0  0  0  0  0
   -1.1861   -1.1126   -3.0483 C   0  0  0  0  0  0  0  0  0  0  0  0
   -2.1725   -0.6685   -3.0850 H   0  0  0  0  0  0  0  0  0  0  0  0
   -0.4148    0.6679    1.4372 C   0  0  0  0  0  0  0  0  0  0  0  0
    0.6690    0.9062    1.9694 O   0  0  0  0  0  0  0  0  0  0  0  0
   -1.5479    1.2736    1.8137 N   0  0  0  0  0  0  0  0  0  0  0  0
   -2.4052    0.9843    1.3659 H   0  0  0  0  0  0  0  0  0  0  0  0
   -1.6329    2.2871    2.8618 C   0  0  0  0  0  0  0  0  0  0  0  0
   -1.0048    3.1419    2.6010 H   0  0  0  0  0  0  0  0  0  0  0  0
   -2.6643    2.6218    2.9769 H   0  0  0  0  0  0  0  0  0  0  0  0
   -1.2811    1.8728    3.8079 H   0  0  0  0  0  0  0  0  0  0  0  0
  5  6  2  0  0  0  0
  5  7  1  0  0  0  0
  2  3  1  0  0  0  0
  2  4  1  0  0  0  0
  2  5  1  0  0  0  0
  1  2  1  0  0  0  0
 22 23  2  0  0  0  0
 22 24  1  0  0  0  0
 20 21  1  0  0  0  0
 19 20  1  0  0  0  0
 17 18  1  0  0  0  0
 17 19  2  0  0  0  0
 15 16  1  0  0  0  0
 15 17  1  0  0  0  0
 14 15  1  0  0  0  0
 14 20  2  0  0  0  0
 11 12  1  0  0  0  0
 11 13  1  0  0  0  0
 11 14  1  0  0  0  0
  9 10  1  0  0  0  0
  9 11  1  0  0  0  0
  9 22  1  0  0  0  0
  7  8  1  0  0  0  0
  7  9  1  0  0  0  0
 26 27  1  0  0  0  0
 26 28  1  0  0  0  0
 26 29  1  0  0  0  0
 24 25  1  0  0  0  0
 24 26  1  0  0  0  0
M  END
$$$$
default_name
  -OEChem-01062215323D

 29 29  0     1  0  0  0  0  0999 V2000
   -3.6042   -3.5728    1.4576 H   0  0  0  0  0  0  0  0  0  0  0  0
   -3.5202   -2.6488    0.8866 C   0  0  0  0  0  0  0  0  0  0  0  0
   -4.2052   -1.9048    1.2896 H   0  0  0  0  0  0  0  0  0  0  0  0
   -3.7552   -2.8428   -0.1584 H   0  0  0  0  0  0  0  0  0  0  0  0
   -2.1052   -2.1358    0.9946 C   0  0  0  0  0  0  0  0  0  0  0  0
   -1.2852   -2.7288    1.6826 O   0  0  0  0  0  0  0  0  0  0  0  0
   -1.8202   -1.0288    0.3146 N   0  0  0  0  0  0  0  0  0  0  0  0
   -2.5542   -0.5788   -0.2104 H   0  0  0  0  0  0  0  0  0  0  0  0
   -0.5102   -0.3728    0.3086 C   0  0  1  0  0  0  0  0  0  0  0  0
    0.2589   -1.1264    0.4838 H   0  0  0  0  0  0  0  0  0  0  0  0
   -0.2634    0.2494   -1.0782 C   0  0  0  0  0  0  0  0  0  0  0  0
   -1.0718    0.9464   -1.3062 H   0  0  0  0  0  0  0  0  0  0  0  0
    0.6701    0.8146   -1.0535 H   0  0  0  0  0  0  0  0  0  0  0  0
   -0.1783   -0.7655   -2.1886 C   0  0  0  0  0  0  0  0  0  0  0  0
    0.8839   -1.6053   -2.4466 N   0  0  0  0  0  0  0  0  0  0  0  0
    1.7755   -1.5992   -1.9742 H   0  0  0  0  0  0  0  0  0  0  0  0
    0.5269   -2.4327   -3.4433 C   0  0  0  0  0  0  0  0  0  0  0  0
    1.1554   -3.2034   -3.8725 H   0  0  0  0  0  0  0  0  0  0  0  0
   -0.7289   -2.1728   -3.8354 N   0  0  0  0  0  0  0  0  0  0  0  0
   -1.1861   -1.1126   -3.0483 C   0  0  0  0  0  0  0  0  0  0  0  0
   -2.1725   -0.6685   -3.0850 H   0  0  0  0  0  0  0  0  0  0  0  0
   -0.4148    0.6679    1.4372 C   0  0  0  0  0  0  0  0  0  0  0  0
    0.6814    1.1096    1.7808 O   0  0  0  0  0  0  0  0  0  0  0  0
   -1.5571    1.0459    2.0244 N   0  0  0  0  0  0  0  0  0  0  0  0
   -2.4098    0.5976    1.7229 H   0  0  0  0  0  0  0  0  0  0  0  0
   -1.6451    2.0254    3.1042 C   0  0  0  0  0  0  0  0  0  0  0  0
   -1.2454    2.9843    2.7667 H   0  0  0  0  0  0  0  0  0  0  0  0
   -2.6842    2.1567    3.4075 H   0  0  0  0  0  0  0  0  0  0  0  0
   -1.0600    1.6868    3.9607 H   0  0  0  0  0  0  0  0  0  0  0  0
  5  6  2  0  0  0  0
  5  7  1  0  0  0  0
  2  3  1  0  0  0  0
  2  4  1  0  0  0  0
  2  5  1  0  0  0  0
  1  2  1  0  0  0  0
 22 23  2  0  0  0  0
 22 24  1  0  0  0  0
 20 21  1  0  0  0  0
 19 20  1  0  0  0  0
 17 18  1  0  0  0  0
 17 19  2  0  0  0  0
 15 16  1  0  0  0  0
 15 17  1  0  0  0  0
 14 15  1  0  0  0  0
 14 20  2  0  0  0  0
 11 12  1  0  0  0  0
 11 13  1  0  0  0  0
 11 14  1  0  0  0  0
  9 10  1  0  0  0  0
  9 11  1  0  0  0  0
  9 22  1  0  0  0  0
  7  8  1  0  0  0  0
  7  9  1  0  0  0  0
 26 27  1  0  0  0  0
 26 28  1  0  0  0  0
 26 29  1  0  0  0  0
 24 25  1  0  0  0  0
 24 26  1  0  0  0  0
M  END
$$$$
default_name
  -OEChem-01062215323D

 29 29  0     1  0  0  0  0  0999 V2000
   -3.6042   -3.5728    1.4576 H   0  0  0  0  0  0  0  0  0  0  0  0
   -3.5202   -2.6488    0.8866 C   0  0  0  0  0  0  0  0  0  0  0  0
   -4.2052   -1.9048    1.2896 H   0  0  0  0  0  0  0  0  0  0  0  0
   -3.7552   -2.8428   -0.1584 H   0  0  0  0  0  0  0  0  0  0  0  0
   -2.1052   -2.1358    0.9946 C   0  0  0  0  0  0  0  0  0  0  0  0
   -1.2852   -2.7288    1.6826 O   0  0  0  0  0  0  0  0  0  0  0  0
   -1.8202   -1.0288    0.3146 N   0  0  0  0  0  0  0  0  0  0  0  0
   -2.5542   -0.5788   -0.2104 H   0  0  0  0  0  0  0  0  0  0  0  0
   -0.5102   -0.3728    0.3086 C   0  0  1  0  0  0  0  0  0  0  0  0
    0.2589   -1.1264    0.4838 H   0  0  0  0  0  0  0  0  0  0  0  0
   -0.2634    0.2494   -1.0782 C   0  0  0  0  0  0  0  0  0  0  0  0
   -1.0718    0.9464   -1.3062 H   0  0  0  0  0  0  0  0  0  0  0  0
    0.6701    0.8146   -1.0535 H   0  0  0  0  0  0  0  0  0  0  0  0
   -0.1783   -0.7655   -2.1886 C   0  0  0  0  0  0  0  0  0  0  0  0
    0.8839   -1.6053   -2.4466 N   0  0  0  0  0  0  0  0  0  0  0  0
    1.7755   -1.5992   -1.9742 H   0  0  0  0  0  0  0  0  0  0  0  0
    0.5269   -2.4327   -3.4433 C   0  0  0  0  0  0  0  0  0  0  0  0
    1.1554   -3.2034   -3.8725 H   0  0  0  0  0  0  0  0  0  0  0  0
   -0.7289   -2.1728   -3.8354 N   0  0  0  0  0  0  0  0  0  0  0  0
   -1.1861   -1.1126   -3.0483 C   0  0  0  0  0  0  0  0  0  0  0  0
   -2.1725   -0.6685   -3.0850 H   0  0  0  0  0  0  0  0  0  0  0  0
   -0.4148    0.6679    1.4372 C   0  0  0  0  0  0  0  0  0  0  0  0
    0.6216    1.3115    1.5997 O   0  0  0  0  0  0  0  0  0  0  0  0
   -1.4859    0.8209    2.2259 N   0  0  0  0  0  0  0  0  0  0  0  0
   -2.2783    0.2174    2.0624 H   0  0  0  0  0  0  0  0  0  0  0  0
   -1.5647    1.7664    3.3363 C   0  0  0  0  0  0  0  0  0  0  0  0
   -1.4190    2.7837    2.9663 H   0  0  0  0  0  0  0  0  0  0  0  0
   -2.5397    1.6966    3.8195 H   0  0  0  0  0  0  0  0  0  0  0  0
   -0.7843    1.5467    4.0666 H   0  0  0  0  0  0  0  0  0  0  0  0
  5  6  2  0  0  0  0
  5  7  1  0  0  0  0
  2  3  1  0  0  0  0
  2  4  1  0  0  0  0
  2  5  1  0  0  0  0
  1  2  1  0  0  0  0
 22 23  2  0  0  0  0
 22 24  1  0  0  0  0
 20 21  1  0  0  0  0
 19 20  1  0  0  0  0
 17 18  1  0  0  0  0
 17 19  2  0  0  0  0
 15 16  1  0  0  0  0
 15 17  1  0  0  0  0
 14 15  1  0  0  0  0
 14 20  2  0  0  0  0
 11 12  1  0  0  0  0
 11 13  1  0  0  0  0
 11 14  1  0  0  0  0
  9 10  1  0  0  0  0
  9 11  1  0  0  0  0
  9 22  1  0  0  0  0
  7  8  1  0  0  0  0
  7  9  1  0  0  0  0
 26 27  1  0  0  0  0
 26 28  1  0  0  0  0
 26 29  1  0  0  0  0
 24 25  1  0  0  0  0
 24 26  1  0  0  0  0
M  END
$$$$
default_name
  -OEChem-01062215323D

 29 29  0     1  0  0  0  0  0999 V2000
   -3.6042   -3.5728    1.4576 H   0  0  0  0  0  0  0  0  0  0  0  0
   -3.5202   -2.6488    0.8866 C   0  0  0  0  0  0  0  0  0  0  0  0
   -4.2052   -1.9048    1.2896 H   0  0  0  0  0  0  0  0  0  0  0  0
   -3.7552   -2.8428   -0.1584 H   0  0  0  0  0  0  0  0  0  0  0  0
   -2.1052   -2.1358    0.9946 C   0  0  0  0  0  0  0  0  0  0  0  0
   -1.2852   -2.7288    1.6826 O   0  0  0  0  0  0  0  0  0  0  0  0
   -1.8202   -1.0288    0.3146 N   0  0  0  0  0  0  0  0  0  0  0  0
   -2.5542   -0.5788   -0.2104 H   0  0  0  0  0  0  0  0  0  0  0  0
   -0.5102   -0.3728    0.3086 C   0  0  1  0  0  0  0  0  0  0  0  0
    0.2589   -1.1264    0.4838 H   0  0  0  0  0  0  0  0  0  0  0  0
   -0.2634    0.2494   -1.0782 C   0  0  0  0  0  0  0  0  0  0  0  0
   -1.0718    0.9464   -1.3062 H   0  0  0  0  0  0  0  0  0  0  0  0
    0.6701    0.8146   -1.0535 H   0  0  0  0  0  0  0  0  0  0  0  0
   -0.1783   -0.7655   -2.1886 C   0  0  0  0  0  0  0  0  0  0  0  0
    0.8839   -1.6053   -2.4466 N   0  0  0  0  0  0  0  0  0  0  0  0
    1.7755   -1.5992   -1.9742 H   0  0  0  0  0  0  0  0  0  0  0  0
    0.5269   -2.4327   -3.4433 C   0  0  0  0  0  0  0  0  0  0  0  0
    1.1554   -3.2034   -3.8725 H   0  0  0  0  0  0  0  0  0  0  0  0
   -0.7289   -2.1728   -3.8354 N   0  0  0  0  0  0  0  0  0  0  0  0
   -1.1861   -1.1126   -3.0483 C   0  0  0  0  0  0  0  0  0  0  0  0
   -2.1725   -0.6685   -3.0850 H   0  0  0  0  0  0  0  0  0  0  0  0
   -0.4148    0.6679    1.4372 C   0  0  0  0  0  0  0  0  0  0  0  0
    0.4938    1.4980    1.4384 O   0  0  0  0  0  0  0  0  0  0  0  0
   -1.3390    0.6138    2.4044 N   0  0  0  0  0  0  0  0  0  0  0  0
   -2.0197   -0.1303    2.3611 H   0  0  0  0  0  0  0  0  0  0  0  0
   -1.3972    1.5277    3.5422 C   0  0  0  0  0  0  0  0  0  0  0  0
   -1.5135    2.5538    3.1863 H   0  0  0  0  0  0  0  0  0  0  0  0
   -2.2406    1.2731    4.1847 H   0  0  0  0  0  0  0  0  0  0  0  0
   -0.4729    1.4620    4.1183 H   0  0  0  0  0  0  0  0  0  0  0  0
  5  6  2  0  0  0  0
  5  7  1  0  0  0  0
  2  3  1  0  0  0  0
  2  4  1  0  0  0  0
  2  5  1  0  0  0  0
  1  2  1  0  0  0  0
 22 23  2  0  0  0  0
 22 24  1  0  0  0  0
 20 21  1  0  0  0  0
 19 20  1  0  0  0  0
 17 18  1  0  0  0  0
 17 19  2  0  0  0  0
 15 16  1  0  0  0  0
 15 17  1  0  0  0  0
 14 15  1  0  0  0  0
 14 20  2  0  0  0  0
 11 12  1  0  0  0  0
 11 13  1  0  0  0  0
 11 14  1  0  0  0  0
  9 10  1  0  0  0  0
  9 11  1  0  0  0  0
  9 22  1  0  0  0  0
  7  8  1  0  0  0  0
  7  9  1  0  0  0  0
 26 27  1  0  0  0  0
 26 28  1  0  0  0  0
 26 29  1  0  0  0  0
 24 25  1  0  0  0  0
 24 26  1  0  0  0  0
M  END
$$$$
default_name
  -OEChem-01062215323D

 29 29  0     1  0  0  0  0  0999 V2000
   -3.6042   -3.5728    1.4576 H   0  0  0  0  0  0  0  0  0  0  0  0
   -3.5202   -2.6488    0.8866 C   0  0  0  0  0  0  0  0  0  0  0  0
   -4.2052   -1.9048    1.2896 H   0  0  0  0  0  0  0  0  0  0  0  0
   -3.7552   -2.8428   -0.1584 H   0  0  0  0  0  0  0  0  0  0  0  0
   -2.1052   -2.1358    0.9946 C   0  0  0  0  0  0  0  0  0  0  0  0
   -1.2852   -2.7288    1.6826 O   0  0  0  0  0  0  0  0  0  0  0  0
   -1.8202   -1.0288    0.3146 N   0  0  0  0  0  0  0  0  0  0  0  0
   -2.5542   -0.5788   -0.2104 H   0  0  0  0  0  0  0  0  0  0  0  0
   -0.5102   -0.3728    0.3086 C   0  0  1  0  0  0  0  0  0  0  0  0
    0.2589   -1.1264    0.4838 H   0  0  0  0  0  0  0  0  0  0  0  0
   -0.2634    0.2494   -1.0782 C   0  0  0  0  0  0  0  0  0  0  0  0
   -1.0718    0.9464   -1.3062 H   0  0  0  0  0  0  0  0  0  0  0  0
    0.6701    0.8146   -1.0535 H   0  0  0  0  0  0  0  0  0  0  0  0
   -0.1783   -0.7655   -2.1886 C   0  0  0  0  0  0  0  0  0  0  0  0
    0.8839   -1.6053   -2.4466 N   0  0  0  0  0  0  0  0  0  0  0  0
    1.7755   -1.5992   -1.9742 H   0  0  0  0  0  0  0  0  0  0  0  0
    0.5269   -2.4327   -3.4433 C   0  0  0  0  0  0  0  0  0  0  0  0
    1.1554   -3.2034   -3.8725 H   0  0  0  0  0  0  0  0  0  0  0  0
   -0.7289   -2.1728   -3.8354 N   0  0  0  0  0  0  0  0  0  0  0  0
   -1.1861   -1.1126   -3.0483 C   0  0  0  0  0  0  0  0  0  0  0  0
   -2.1725   -0.6685   -3.0850 H   0  0  0  0  0  0  0  0  0  0  0  0
   -0.4148    0.6679    1.4372 C   0  0  0  0  0  0  0  0  0  0  0  0
    0.3068    1.6566    1.3081 O   0  0  0  0  0  0  0  0  0  0  0  0
   -1.1266    0.4388    2.5478 N   0  0  0  0  0  0  0  0  0  0  0  0
   -1.6516   -0.4218    2.5988 H   0  0  0  0  0  0  0  0  0  0  0  0
   -1.1540    1.3257    3.7079 C   0  0  0  0  0  0  0  0  0  0  0  0
   -1.5227    2.3103    3.4116 H   0  0  0  0  0  0  0  0  0  0  0  0
   -1.8073    0.9150    4.4783 H   0  0  0  0  0  0  0  0  0  0  0  0
   -0.1469    1.4386    4.1124 H   0  0  0  0  0  0  0  0  0  0  0  0
  5  6  2  0  0  0  0
  5  7  1  0  0  0  0
  2  3  1  0  0  0  0
  2  4  1  0  0  0  0
  2  5  1  0  0  0  0
  1  2  1  0  0  0  0
 22 23  2  0  0  0  0
 22 24  1  0  0  0  0
 20 21  1  0  0  0  0
 19 20  1  0  0  0  0
 17 18  1  0  0  0  0
 17 19  2  0  0  0  0
 15 16  1  0  0  0  0
 15 17  1  0  0  0  0
 14 15  1  0  0  0  0
 14 20  2  0  0  0  0
 11 12  1  0  0  0  0
 11 13  1  0  0  0  0
 11 14  1  0  0  0  0
  9 10  1  0  0  0  0
  9 11  1  0  0  0  0
  9 22  1  0  0  0  0
  7  8  1  0  0  0  0
  7  9  1  0  0  0  0
 26 27  1  0  0  0  0
 26 28  1  0  0  0  0
 26 29  1  0  0  0  0
 24 25  1  0  0  0  0
 24 26  1  0  0  0  0
M  END
$$$$
default_name
  -OEChem-01062215323D

 29 29  0     1  0  0  0  0  0999 V2000
   -3.6042   -3.5728    1.4576 H   0  0  0  0  0  0  0  0  0  0  0  0
   -3.5202   -2.6488    0.8866 C   0  0  0  0  0  0  0  0  0  0  0  0
   -4.2052   -1.9048    1.2896 H   0  0  0  0  0  0  0  0  0  0  0  0
   -3.7552   -2.8428   -0.1584 H   0  0  0  0  0  0  0  0  0  0  0  0
   -2.1052   -2.1358    0.9946 C   0  0  0  0  0  0  0  0  0  0  0  0
   -1.2852   -2.7288    1.6826 O   0  0  0  0  0  0  0  0  0  0  0  0
   -1.8202   -1.0288    0.3146 N   0  0  0  0  0  0  0  0  0  0  0  0
   -2.5542   -0.5788   -0.2104 H   0  0  0  0  0  0  0  0  0  0  0  0
   -0.5102   -0.3728    0.3086 C   0  0  1  0  0  0  0  0  0  0  0  0
    0.2589   -1.1264    0.4838 H   0  0  0  0  0  0  0  0  0  0  0  0
   -0.2634    0.2494   -1.0782 C   0  0  0  0  0  0  0  0  0  0  0  0
   -1.0718    0.9464   -1.3062 H   0  0  0  0  0  0  0  0  0  0  0  0
    0.6701    0.8146   -1.0535 H   0  0  0  0  0  0  0  0  0  0  0  0
   -0.1783   -0.7655   -2.1886 C   0  0  0  0  0  0  0  0  0  0  0  0
    0.8839   -1.6053   -2.4466 N   0  0  0  0  0  0  0  0  0  0  0  0
    1.7755   -1.5992   -1.9742 H   0  0  0  0  0  0  0  0  0  0  0  0
    0.5269   -2.4327   -3.4433 C   0  0  0  0  0  0  0  0  0  0  0  0
    1.1554   -3.2034   -3.8725 H   0  0  0  0  0  0  0  0  0  0  0  0
   -0.7289   -2.1728   -3.8354 N   0  0  0  0  0  0  0  0  0  0  0  0
   -1.1861   -1.1126   -3.0483 C   0  0  0  0  0  0  0  0  0  0  0  0
   -2.1725   -0.6685   -3.0850 H   0  0  0  0  0  0  0  0  0  0  0  0
   -0.4148    0.6679    1.4372 C   0  0  0  0  0  0  0  0  0  0  0  0
    0.0731    1.7762    1.2174 O   0  0  0  0  0  0  0  0  0  0  0  0
   -0.8630    0.3078    2.6463 N   0  0  0  0  0  0  0  0  0  0  0  0
   -1.1990   -0.6373    2.7593 H   0  0  0  0  0  0  0  0  0  0  0  0
   -0.8517    1.1740    3.8222 C   0  0  0  0  0  0  0  0  0  0  0  0
   -1.4458    2.0697    3.6270 H   0  0  0  0  0  0  0  0  0  0  0  0
   -1.2693    0.6466    4.6803 H   0  0  0  0  0  0  0  0  0  0  0  0
    0.1714    1.4779    4.0492 H   0  0  0  0  0  0  0  0  0  0  0  0
  5  6  2  0  0  0  0
  5  7  1  0  0  0  0
  2  3  1  0  0  0  0
  2  4  1  0  0  0  0
  2  5  1  0  0  0  0
  1  2  1  0  0  0  0
 22 23  2  0  0  0  0
 22 24  1  0  0  0  0
 20 21  1  0  0  0  0
 19 20  1  0  0  0  0
 17 18  1  0  0  0  0
 17 19  2  0  0  0  0
 15 16  1  0  0  0  0
 15 17  1  0  0  0  0
 14 15  1  0  0  0  0
 14 20  2  0  0  0  0
 11 12  1  0  0  0  0
 11 13  1  0  0  0  0
 11 14  1  0  0  0  0
  9 10  1  0  0  0  0
  9 11  1  0  0  0  0
  9 22  1  0  0  0  0
  7  8  1  0  0  0  0
  7  9  1  0  0  0  0
 26 27  1  0  0  0  0
 26 28  1  0  0  0  0
 26 29  1  0  0  0  0
 24 25  1  0  0  0  0
 24 26  1  0  0  0  0
M  END
$$$$
default_name
  -OEChem-01062215323D

 29 29  0     1  0  0  0  0  0999 V2000
   -3.6042   -3.5728    1.4576 H   0  0  0  0  0  0  0  0  0  0  0  0
   -3.5202   -2.6488    0.8866 C   0  0  0  0  0  0  0  0  0  0  0  0
   -4.2052   -1.9048    1.2896 H   0  0  0  0  0  0  0  0  0  0  0  0
   -3.7552   -2.8428   -0.1584 H   0  0  0  0  0  0  0  0  0  0  0  0
   -2.1052   -2.1358    0.9946 C   0  0  0  0  0  0  0  0  0  0  0  0
   -1.2852   -2.7288    1.6826 O   0  0  0  0  0  0  0  0  0  0  0  0
   -1.8202   -1.0288    0.3146 N   0  0  0  0  0  0  0  0  0  0  0  0
   -2.5542   -0.5788   -0.2104 H   0  0  0  0  0  0  0  0  0  0  0  0
   -0.5102   -0.3728    0.3086 C   0  0  1  0  0  0  0  0  0  0  0  0
    0.2589   -1.1264    0.4838 H   0  0  0  0  0  0  0  0  0  0  0  0
   -0.2634    0.2494   -1.0782 C   0  0  0  0  0  0  0  0  0  0  0  0
   -1.0718    0.9464   -1.3062 H   0  0  0  0  0  0  0  0  0  0  0  0
    0.6701    0.8146   -1.0535 H   0  0  0  0  0  0  0  0  0  0  0  0
   -0.1783   -0.7655   -2.1886 C   0  0  0  0  0  0  0  0  0  0  0  0
    0.8839   -1.6053   -2.4466 N   0  0  0  0  0  0  0  0  0  0  0  0
    1.7755   -1.5992   -1.9742 H   0  0  0  0  0  0  0  0  0  0  0  0
    0.5269   -2.4327   -3.4433 C   0  0  0  0  0  0  0  0  0  0  0  0
    1.1554   -3.2034   -3.8725 H   0  0  0  0  0  0  0  0  0  0  0  0
   -0.7289   -2.1728   -3.8354 N   0  0  0  0  0  0  0  0  0  0  0  0
   -1.1861   -1.1126   -3.0483 C   0  0  0  0  0  0  0  0  0  0  0  0
   -2.1725   -0.6685   -3.0850 H   0  0  0  0  0  0  0  0  0  0  0  0
   -0.4148    0.6679    1.4372 C   0  0  0  0  0  0  0  0  0  0  0  0
   -0.1912    1.8489    1.1728 O   0  0  0  0  0  0  0  0  0  0  0  0
   -0.5663    0.2298    2.6932 N   0  0  0  0  0  0  0  0  0  0  0  0
   -0.6928   -0.7621    2.8316 H   0  0  0  0  0  0  0  0  0  0  0  0
   -0.5109    1.0832    3.8772 C   0  0  0  0  0  0  0  0  0  0  0  0
   -1.2881    1.8484    3.8177 H   0  0  0  0  0  0  0  0  0  0  0  0
   -0.6633    0.4863    4.7769 H   0  0  0  0  0  0  0  0  0  0  0  0
    0.4603    1.5774    3.9331 H   0  0  0  0  0  0  0  0  0  0  0  0
  5  6  2  0  0  0  0
  5  7  1  0  0  0  0
  2  3  1  0  0  0  0
  2  4  1  0  0  0  0
  2  5  1  0  0  0  0
  1  2  1  0  0  0  0
 22 23  2  0  0  0  0
 22 24  1  0  0  0  0
 20 21  1  0  0  0  0
 19 20  1  0  0  0  0
 17 18  1  0  0  0  0
 17 19  2  0  0  0  0
 15 16  1  0  0  0  0
 15 17  1  0  0  0  0
 14 15  1  0  0  0  0
 14 20  2  0  0  0  0
 11 12  1  0  0  0  0
 11 13  1  0  0  0  0
 11 14  1  0  0  0  0
  9 10  1  0  0  0  0
  9 11  1  0  0  0  0
  9 22  1  0  0  0  0
  7  8  1  0  0  0  0
  7  9  1  0  0  0  0
 26 27  1  0  0  0  0
 26 28  1  0  0  0  0
 26 29  1  0  0  0  0
 24 25  1  0  0  0  0
 24 26  1  0  0  0  0
M  END
$$$$
default_name
  -OEChem-01062215323D

 29 29  0     1  0  0  0  0  0999 V2000
   -3.6042   -3.5728    1.4576 H   0  0  0  0  0  0  0  0  0  0  0  0
   -3.5202   -2.6488    0.8866 C   0  0  0  0  0  0  0  0  0  0  0  0
   -4.2052   -1.9048    1.2896 H   0  0  0  0  0  0  0  0  0  0  0  0
   -3.7552   -2.8428   -0.1584 H   0  0  0  0  0  0  0  0  0  0  0  0
   -2.1052   -2.1358    0.9946 C   0  0  0  0  0  0  0  0  0  0  0  0
   -1.2852   -2.7288    1.6826 O   0  0  0  0  0  0  0  0  0  0  0  0
   -1.8202   -1.0288    0.3146 N   0  0  0  0  0  0  0  0  0  0  0  0
   -2.5542   -0.5788   -0.2104 H   0  0  0  0  0  0  0  0  0  0  0  0
   -0.5102   -0.3728    0.3086 C   0  0  1  0  0  0  0  0  0  0  0  0
    0.2589   -1.1264    0.4838 H   0  0  0  0  0  0  0  0  0  0  0  0
   -0.2634    0.2494   -1.0782 C   0  0  0  0  0  0  0  0  0  0  0  0
   -1.0718    0.9464   -1.3062 H   0  0  0  0  0  0  0  0  0  0  0  0
    0.6701    0.8146   -1.0535 H   0  0  0  0  0  0  0  0  0  0  0  0
   -0.1783   -0.7655   -2.1886 C   0  0  0  0  0  0  0  0  0  0  0  0
    0.8839   -1.6053   -2.4466 N   0  0  0  0  0  0  0  0  0  0  0  0
    1.7755   -1.5992   -1.9742 H   0  0  0  0  0  0  0  0  0  0  0  0
    0.5269   -2.4327   -3.4433 C   0  0  0  0  0  0  0  0  0  0  0  0
    1.1554   -3.2034   -3.8725 H   0  0  0  0  0  0  0  0  0  0  0  0
   -0.7289   -2.1728   -3.8354 N   0  0  0  0  0  0  0  0  0  0  0  0
   -1.1861   -1.1126   -3.0483 C   0  0  0  0  0  0  0  0  0  0  0  0
   -2.1725   -0.6685   -3.0850 H   0  0  0  0  0  0  0  0  0  0  0  0
   -0.4148    0.6679    1.4372 C   0  0  0  0  0  0  0  0  0  0  0  0
   -0.4681    1.8697    1.1770 O   0  0  0  0  0  0  0  0  0  0  0  0
   -0.2567    0.2100    2.6853 N   0  0  0  0  0  0  0  0  0  0  0  0
   -0.1675   -0.7877    2.8107 H   0  0  0  0  0  0  0  0  0  0  0  0
   -0.1549    1.0592    3.8692 C   0  0  0  0  0  0  0  0  0  0  0  0
   -1.0604    1.6616    3.9707 H   0  0  0  0  0  0  0  0  0  0  0  0
   -0.0307    0.4450    4.7615 H   0  0  0  0  0  0  0  0  0  0  0  0
    0.7001    1.7302    3.7719 H   0  0  0  0  0  0  0  0  0  0  0  0
  5  6  2  0  0  0  0
  5  7  1  0  0  0  0
  2  3  1  0  0  0  0
  2  4  1  0  0  0  0
  2  5  1  0  0  0  0
  1  2  1  0  0  0  0
 22 23  2  0  0  0  0
 22 24  1  0  0  0  0
 20 21  1  0  0  0  0
 19 20  1  0  0  0  0
 17 18  1  0  0  0  0
 17 19  2  0  0  0  0
 15 16  1  0  0  0  0
 15 17  1  0  0  0  0
 14 15  1  0  0  0  0
 14 20  2  0  0  0  0
 11 12  1  0  0  0  0
 11 13  1  0  0  0  0
 11 14  1  0  0  0  0
  9 10  1  0  0  0  0
  9 11  1  0  0  0  0
  9 22  1  0  0  0  0
  7  8  1  0  0  0  0
  7  9  1  0  0  0  0
 26 27  1  0  0  0  0
 26 28  1  0  0  0  0
 26 29  1  0  0  0  0
 24 25  1  0  0  0  0
 24 26  1  0  0  0  0
M  END
$$$$
default_name
  -OEChem-01062215323D

 29 29  0     1  0  0  0  0  0999 V2000
   -3.6042   -3.5728    1.4576 H   0  0  0  0  0  0  0  0  0  0  0  0
   -3.5202   -2.6488    0.8866 C   0  0  0  0  0  0  0  0  0  0  0  0
   -4.2052   -1.9048    1.2896 H   0  0  0  0  0  0  0  0  0  0  0  0
   -3.7552   -2.8428   -0.1584 H   0  0  0  0  0  0  0  0  0  0  0  0
   -2.1052   -2.1358    0.9946 C   0  0  0  0  0  0  0  0  0  0  0  0
   -1.2852   -2.7288    1.6826 O   0  0  0  0  0  0  0  0  0  0  0  0
   -1.8202   -1.0288    0.3146 N   0  0  0  0  0  0  0  0  0  0  0  0
   -2.5542   -0.5788   -0.2104 H   0  0  0  0  0  0  0  0  0  0  0  0
   -0.5102   -0.3728    0.3086 C   0  0  1  0  0  0  0  0  0  0  0  0
    0.2589   -1.1264    0.4838 H   0  0  0  0  0  0  0  0  0  0  0  0
   -0.2634    0.2494   -1.0782 C   0  0  0  0  0  0  0  0  0  0  0  0
   -1.0718    0.9464   -1.3062 H   0  0  0  0  0  0  0  0  0  0  0  0
    0.6701    0.8146   -1.0535 H   0  0  0  0  0  0  0  0  0  0  0  0
   -0.1783   -0.7655   -2.1886 C   0  0  0  0  0  0  0  0  0  0  0  0
    0.8839   -1.6053   -2.4466 N   0  0  0  0  0  0  0  0  0  0  0  0
    1.7755   -1.5992   -1.9742 H   0  0  0  0  0  0  0  0  0  0  0  0
    0.5269   -2.4327   -3.4433 C   0  0  0  0  0  0  0  0  0  0  0  0
    1.1554   -3.2034   -3.8725 H   0  0  0  0  0  0  0  0  0  0  0  0
   -0.7289   -2.1728   -3.8354 N   0  0  0  0  0  0  0  0  0  0  0  0
   -1.1861   -1.1126   -3.0483 C   0  0  0  0  0  0  0  0  0  0  0  0
   -2.1725   -0.6685   -3.0850 H   0  0  0  0  0  0  0  0  0  0  0  0
   -0.4148    0.6679    1.4372 C   0  0  0  0  0  0  0  0  0  0  0  0
   -0.7387    1.8371    1.2300 O   0  0  0  0  0  0  0  0  0  0  0  0
    0.0447    0.2498    2.6231 N   0  0  0  0  0  0  0  0  0  0  0  0
    0.3411   -0.7123    2.6982 H   0  0  0  0  0  0  0  0  0  0  0  0
    0.1922    1.1038    3.7987 C   0  0  0  0  0  0  0  0  0  0  0  0
   -0.7782    1.5219    4.0757 H   0  0  0  0  0  0  0  0  0  0  0  0
    0.5856    0.5255    4.6352 H   0  0  0  0  0  0  0  0  0  0  0  0
    0.8745    1.9259    3.5767 H   0  0  0  0  0  0  0  0  0  0  0  0
  5  6  2  0  0  0  0
  5  7  1  0  0  0  0
  2  3  1  0  0  0  0
  2  4  1  0  0  0  0
  2  5  1  0  0  0  0
  1  2  1  0  0  0  0
 22 23  2  0  0  0  0
 22 24  1  0  0  0  0
 20 21  1  0  0  0  0
 19 20  1  0  0  0  0
 17 18  1  0  0  0  0
 17 19  2  0  0  0  0
 15 16  1  0  0  0  0
 15 17  1  0  0  0  0
 14 15  1  0  0  0  0
 14 20  2  0  0  0  0
 11 12  1  0  0  0  0
 11 13  1  0  0  0  0
 11 14  1  0  0  0  0
  9 10  1  0  0  0  0
  9 11  1  0  0  0  0
  9 22  1  0  0  0  0
  7  8  1  0  0  0  0
  7  9  1  0  0  0  0
 26 27  1  0  0  0  0
 26 28  1  0  0  0  0
 26 29  1  0  0  0  0
 24 25  1  0  0  0  0
 24 26  1  0  0  0  0
M  END
$$$$
default_name
  -OEChem-01062215323D

 29 29  0     1  0  0  0  0  0999 V2000
   -3.6042   -3.5728    1.4576 H   0  0  0  0  0  0  0  0  0  0  0  0
   -3.5202   -2.6488    0.8866 C   0  0  0  0  0  0  0  0  0  0  0  0
   -4.2052   -1.9048    1.2896 H   0  0  0  0  0  0  0  0  0  0  0  0
   -3.7552   -2.8428   -0.1584 H   0  0  0  0  0  0  0  0  0  0  0  0
   -2.1052   -2.1358    0.9946 C   0  0  0  0  0  0  0  0  0  0  0  0
   -1.2852   -2.7288    1.6826 O   0  0  0  0  0  0  0  0  0  0  0  0
   -1.8202   -1.0288    0.3146 N   0  0  0  0  0  0  0  0  0  0  0  0
   -2.5542   -0.5788   -0.2104 H   0  0  0  0  0  0  0  0  0  0  0  0
   -0.5102   -0.3728    0.3086 C   0  0  1  0  0  0  0  0  0  0  0  0
    0.2589   -1.1264    0.4838 H   0  0  0  0  0  0  0  0  0  0  0  0
   -0.2634    0.2494   -1.0782 C   0  0  0  0  0  0  0  0  0  0  0  0
   -1.0718    0.9464   -1.3062 H   0  0  0  0  0  0  0  0  0  0  0  0
    0.6701    0.8146   -1.0535 H   0  0  0  0  0  0  0  0  0  0  0  0
   -0.1783   -0.7655   -2.1886 C   0  0  0  0  0  0  0  0  0  0  0  0
    0.8839   -1.6053   -2.4466 N   0  0  0  0  0  0  0  0  0  0  0  0
    1.7755   -1.5992   -1.9742 H   0  0  0  0  0  0  0  0  0  0  0  0
    0.5269   -2.4327   -3.4433 C   0  0  0  0  0  0  0  0  0  0  0  0
    1.1554   -3.2034   -3.8725 H   0  0  0  0  0  0  0  0  0  0  0  0
   -0.7289   -2.1728   -3.8354 N   0  0  0  0  0  0  0  0  0  0  0  0
   -1.1861   -1.1126   -3.0483 C   0  0  0  0  0  0  0  0  0  0  0  0
   -2.1725   -0.6685   -3.0850 H   0  0  0  0  0  0  0  0  0  0  0  0
   -0.4148    0.6679    1.4372 C   0  0  0  0  0  0  0  0  0  0  0  0
   -0.9847    1.7533    1.3280 O   0  0  0  0  0  0  0  0  0  0  0  0
    0.3175    0.3465    2.5109 N   0  0  0  0  0  0  0  0  0  0  0  0
    0.7984   -0.5410    2.5016 H   0  0  0  0  0  0  0  0  0  0  0  0
    0.5067    1.2140    3.6706 C   0  0  0  0  0  0  0  0  0  0  0  0
   -0.4607    1.4388    4.1254 H   0  0  0  0  0  0  0  0  0  0  0  0
    1.1435    0.7223    4.4066 H   0  0  0  0  0  0  0  0  0  0  0  0
    0.9716    2.1512    3.3608 H   0  0  0  0  0  0  0  0  0  0  0  0
  5  6  2  0  0  0  0
  5  7  1  0  0  0  0
  2  3  1  0  0  0  0
  2  4  1  0  0  0  0
  2  5  1  0  0  0  0
  1  2  1  0  0  0  0
 22 23  2  0  0  0  0
 22 24  1  0  0  0  0
 20 21  1  0  0  0  0
 19 20  1  0  0  0  0
 17 18  1  0  0  0  0
 17 19  2  0  0  0  0
 15 16  1  0  0  0  0
 15 17  1  0  0  0  0
 14 15  1  0  0  0  0
 14 20  2  0  0  0  0
 11 12  1  0  0  0  0
 11 13  1  0  0  0  0
 11 14  1  0  0  0  0
  9 10  1  0  0  0  0
  9 11  1  0  0  0  0
  9 22  1  0  0  0  0
  7  8  1  0  0  0  0
  7  9  1  0  0  0  0
 26 27  1  0  0  0  0
 26 28  1  0  0  0  0
 26 29  1  0  0  0  0
 24 25  1  0  0  0  0
 24 26  1  0  0  0  0
M  END
$$$$
default_name
  -OEChem-01062215323D

 29 29  0     1  0  0  0  0  0999 V2000
   -3.6042   -3.5728    1.4576 H   0  0  0  0  0  0  0  0  0  0  0  0
   -3.5202   -2.6488    0.8866 C   0  0  0  0  0  0  0  0  0  0  0  0
   -4.2052   -1.9048    1.2896 H   0  0  0  0  0  0  0  0  0  0  0  0
   -3.7552   -2.8428   -0.1584 H   0  0  0  0  0  0  0  0  0  0  0  0
   -2.1052   -2.1358    0.9946 C   0  0  0  0  0  0  0  0  0  0  0  0
   -1.2852   -2.7288    1.6826 O   0  0  0  0  0  0  0  0  0  0  0  0
   -1.8202   -1.0288    0.3146 N   0  0  0  0  0  0  0  0  0  0  0  0
   -2.5542   -0.5788   -0.2104 H   0  0  0  0  0  0  0  0  0  0  0  0
   -0.5102   -0.3728    0.3086 C   0  0  1  0  0  0  0  0  0  0  0  0
    0.2589   -1.1264    0.4838 H   0  0  0  0  0  0  0  0  0  0  0  0
   -0.2634    0.2494   -1.0782 C   0  0  0  0  0  0  0  0  0  0  0  0
   -1.0718    0.9464   -1.3062 H   0  0  0  0  0  0  0  0  0  0  0  0
    0.6701    0.8146   -1.0535 H   0  0  0  0  0  0  0  0  0  0  0  0
   -0.1783   -0.7655   -2.1886 C   0  0  0  0  0  0  0  0  0  0  0  0
    0.8839   -1.6053   -2.4466 N   0  0  0  0  0  0  0  0  0  0  0  0
    1.7755   -1.5992   -1.9742 H   0  0  0  0  0  0  0  0  0  0  0  0
    0.5269   -2.4327   -3.4433 C   0  0  0  0  0  0  0  0  0  0  0  0
    1.1554   -3.2034   -3.8725 H   0  0  0  0  0  0  0  0  0  0  0  0
   -0.7289   -2.1728   -3.8354 N   0  0  0  0  0  0  0  0  0  0  0  0
   -1.1861   -1.1126   -3.0483 C   0  0  0  0  0  0  0  0  0  0  0  0
   -2.1725   -0.6685   -3.0850 H   0  0  0  0  0  0  0  0  0  0  0  0
   -0.4148    0.6679    1.4372 C   0  0  0  0  0  0  0  0  0  0  0  0
   -1.1892    1.6242    1.4644 O   0  0  0  0  0  0  0  0  0  0  0  0
    0.5429    0.4934    2.3563 N   0  0  0  0  0  0  0  0  0  0  0  0
    1.1731   -0.2856    2.2345 H   0  0  0  0  0  0  0  0  0  0  0  0
    0.7670    1.3821    3.4935 C   0  0  0  0  0  0  0  0  0  0  0  0
   -0.1295    1.4181    4.1165 H   0  0  0  0  0  0  0  0  0  0  0  0
    1.6049    1.0220    4.0912 H   0  0  0  0  0  0  0  0  0  0  0  0
    0.9849    2.3907    3.1388 H   0  0  0  0  0  0  0  0  0  0  0  0
  5  6  2  0  0  0  0
  5  7  1  0  0  0  0
  2  3  1  0  0  0  0
  2  4  1  0  0  0  0
  2  5  1  0  0  0  0
  1  2  1  0  0  0  0
 22 23  2  0  0  0  0
 22 24  1  0  0  0  0
 20 21  1  0  0  0  0
 19 20  1  0  0  0  0
 17 18  1  0  0  0  0
 17 19  2  0  0  0  0
 15 16  1  0  0  0  0
 15 17  1  0  0  0  0
 14 15  1  0  0  0  0
 14 20  2  0  0  0  0
 11 12  1  0  0  0  0
 11 13  1  0  0  0  0
 11 14  1  0  0  0  0
  9 10  1  0  0  0  0
  9 11  1  0  0  0  0
  9 22  1  0  0  0  0
  7  8  1  0  0  0  0
  7  9  1  0  0  0  0
 26 27  1  0  0  0  0
 26 28  1  0  0  0  0
 26 29  1  0  0  0  0
 24 25  1  0  0  0  0
 24 26  1  0  0  0  0
M  END
$$$$
default_name
  -OEChem-01062215323D

 29 29  0     1  0  0  0  0  0999 V2000
   -3.6042   -3.5728    1.4576 H   0  0  0  0  0  0  0  0  0  0  0  0
   -3.5202   -2.6488    0.8866 C   0  0  0  0  0  0  0  0  0  0  0  0
   -4.2052   -1.9048    1.2896 H   0  0  0  0  0  0  0  0  0  0  0  0
   -3.7552   -2.8428   -0.1584 H   0  0  0  0  0  0  0  0  0  0  0  0
   -2.1052   -2.1358    0.9946 C   0  0  0  0  0  0  0  0  0  0  0  0
   -1.2852   -2.7288    1.6826 O   0  0  0  0  0  0  0  0  0  0  0  0
   -1.8202   -1.0288    0.3146 N   0  0  0  0  0  0  0  0  0  0  0  0
   -2.5542   -0.5788   -0.2104 H   0  0  0  0  0  0  0  0  0  0  0  0
   -0.5102   -0.3728    0.3086 C   0  0  1  0  0  0  0  0  0  0  0  0
    0.2589   -1.1264    0.4838 H   0  0  0  0  0  0  0  0  0  0  0  0
   -0.2634    0.2494   -1.0782 C   0  0  0  0  0  0  0  0  0  0  0  0
   -1.0718    0.9464   -1.3062 H   0  0  0  0  0  0  0  0  0  0  0  0
    0.6701    0.8146   -1.0535 H   0  0  0  0  0  0  0  0  0  0  0  0
   -0.1783   -0.7655   -2.1886 C   0  0  0  0  0  0  0  0  0  0  0  0
    0.8839   -1.6053   -2.4466 N   0  0  0  0  0  0  0  0  0  0  0  0
    1.7755   -1.5992   -1.9742 H   0  0  0  0  0  0  0  0  0  0  0  0
    0.5269   -2.4327   -3.4433 C   0  0  0  0  0  0  0  0  0  0  0  0
    1.1554   -3.2034   -3.8725 H   0  0  0  0  0  0  0  0  0  0  0  0
   -0.7289   -2.1728   -3.8354 N   0  0  0  0  0  0  0  0  0  0  0  0
   -1.1861   -1.1126   -3.0483 C   0  0  0  0  0  0  0  0  0  0  0  0
   -2.1725   -0.6685   -3.0850 H   0  0  0  0  0  0  0  0  0  0  0  0
   -0.4148    0.6679    1.4372 C   0  0  0  0  0  0  0  0  0  0  0  0
   -1.3383    1.4583    1.6299 O   0  0  0  0  0  0  0  0  0  0  0  0
    0.7056    0.6807    2.1699 N   0  0  0  0  0  0  0  0  0  0  0  0
    1.4398    0.0365    1.9149 H   0  0  0  0  0  0  0  0  0  0  0  0
    0.9556    1.5968    3.2796 C   0  0  0  0  0  0  0  0  0  0  0  0
    0.1928    1.4612    4.0496 H   0  0  0  0  0  0  0  0  0  0  0  0
    1.9385    1.4042    3.7106 H   0  0  0  0  0  0  0  0  0  0  0  0
    0.9132    2.6282    2.9259 H   0  0  0  0  0  0  0  0  0  0  0  0
  5  6  2  0  0  0  0
  5  7  1  0  0  0  0
  2  3  1  0  0  0  0
  2  4  1  0  0  0  0
  2  5  1  0  0  0  0
  1  2  1  0  0  0  0
 22 23  2  0  0  0  0
 22 24  1  0  0  0  0
 20 21  1  0  0  0  0
 19 20  1  0  0  0  0
 17 18  1  0  0  0  0
 17 19  2  0  0  0  0
 15 16  1  0  0  0  0
 15 17  1  0  0  0  0
 14 15  1  0  0  0  0
 14 20  2  0  0  0  0
 11 12  1  0  0  0  0
 11 13  1  0  0  0  0
 11 14  1  0  0  0  0
  9 10  1  0  0  0  0
  9 11  1  0  0  0  0
  9 22  1  0  0  0  0
  7  8  1  0  0  0  0
  7  9  1  0  0  0  0
 26 27  1  0  0  0  0
 26 28  1  0  0  0  0
 26 29  1  0  0  0  0
 24 25  1  0  0  0  0
 24 26  1  0  0  0  0
M  END
$$$$
default_name
  -OEChem-01062215323D

 29 29  0     1  0  0  0  0  0999 V2000
   -3.6042   -3.5728    1.4576 H   0  0  0  0  0  0  0  0  0  0  0  0
   -3.5202   -2.6488    0.8866 C   0  0  0  0  0  0  0  0  0  0  0  0
   -4.2052   -1.9048    1.2896 H   0  0  0  0  0  0  0  0  0  0  0  0
   -3.7552   -2.8428   -0.1584 H   0  0  0  0  0  0  0  0  0  0  0  0
   -2.1052   -2.1358    0.9946 C   0  0  0  0  0  0  0  0  0  0  0  0
   -1.2852   -2.7288    1.6826 O   0  0  0  0  0  0  0  0  0  0  0  0
   -1.8202   -1.0288    0.3146 N   0  0  0  0  0  0  0  0  0  0  0  0
   -2.5542   -0.5788   -0.2104 H   0  0  0  0  0  0  0  0  0  0  0  0
   -0.5102   -0.3728    0.3086 C   0  0  1  0  0  0  0  0  0  0  0  0
    0.2589   -1.1264    0.4838 H   0  0  0  0  0  0  0  0  0  0  0  0
   -0.2634    0.2494   -1.0782 C   0  0  0  0  0  0  0  0  0  0  0  0
   -1.0718    0.9464   -1.3062 H   0  0  0  0  0  0  0  0  0  0  0  0
    0.6701    0.8146   -1.0535 H   0  0  0  0  0  0  0  0  0  0  0  0
   -0.1783   -0.7655   -2.1886 C   0  0  0  0  0  0  0  0  0  0  0  0
    0.8839   -1.6053   -2.4466 N   0  0  0  0  0  0  0  0  0  0  0  0
    1.7755   -1.5992   -1.9742 H   0  0  0  0  0  0  0  0  0  0  0  0
    0.5269   -2.4327   -3.4433 C   0  0  0  0  0  0  0  0  0  0  0  0
    1.1554   -3.2034   -3.8725 H   0  0  0  0  0  0  0  0  0  0  0  0
   -0.7289   -2.1728   -3.8354 N   0  0  0  0  0  0  0  0  0  0  0  0
   -1.1861   -1.1126   -3.0483 C   0  0  0  0  0  0  0  0  0  0  0  0
   -2.1725   -0.6685   -3.0850 H   0  0  0  0  0  0  0  0  0  0  0  0
   -0.4148    0.6679    1.4372 C   0  0  0  0  0  0  0  0  0  0  0  0
   -1.4219    1.2672    1.8132 O   0  0  0  0  0  0  0  0  0  0  0  0
    0.7946    0.8955    1.9643 N   0  0  0  0  0  0  0  0  0  0  0  0
    1.5802    0.4034    1.5647 H   0  0  0  0  0  0  0  0  0  0  0  0
    1.0595    1.8435    3.0434 C   0  0  0  0  0  0  0  0  0  0  0  0
    0.4841    1.5650    3.9292 H   0  0  0  0  0  0  0  0  0  0  0  0
    2.1215    1.8429    3.2906 H   0  0  0  0  0  0  0  0  0  0  0  0
    0.7617    2.8473    2.7366 H   0  0  0  0  0  0  0  0  0  0  0  0
  5  6  2  0  0  0  0
  5  7  1  0  0  0  0
  2  3  1  0  0  0  0
  2  4  1  0  0  0  0
  2  5  1  0  0  0  0
  1  2  1  0  0  0  0
 22 23  2  0  0  0  0
 22 24  1  0  0  0  0
 20 21  1  0  0  0  0
 19 20  1  0  0  0  0
 17 18  1  0  0  0  0
 17 19  2  0  0  0  0
 15 16  1  0  0  0  0
 15 17  1  0  0  0  0
 14 15  1  0  0  0  0
 14 20  2  0  0  0  0
 11 12  1  0  0  0  0
 11 13  1  0  0  0  0
 11 14  1  0  0  0  0
  9 10  1  0  0  0  0
  9 11  1  0  0  0  0
  9 22  1  0  0  0  0
  7  8  1  0  0  0  0
  7  9  1  0  0  0  0
 26 27  1  0  0  0  0
 26 28  1  0  0  0  0
 26 29  1  0  0  0  0
 24 25  1  0  0  0  0
 24 26  1  0  0  0  0
M  END
$$$$
default_name
  -OEChem-01062215323D

 29 29  0     1  0  0  0  0  0999 V2000
   -3.6042   -3.5728    1.4576 H   0  0  0  0  0  0  0  0  0  0  0  0
   -3.5202   -2.6488    0.8866 C   0  0  0  0  0  0  0  0  0  0  0  0
   -4.2052   -1.9048    1.2896 H   0  0  0  0  0  0  0  0  0  0  0  0
   -3.7552   -2.8428   -0.1584 H   0  0  0  0  0  0  0  0  0  0  0  0
   -2.1052   -2.1358    0.9946 C   0  0  0  0  0  0  0  0  0  0  0  0
   -1.2852   -2.7288    1.6826 O   0  0  0  0  0  0  0  0  0  0  0  0
   -1.8202   -1.0288    0.3146 N   0  0  0  0  0  0  0  0  0  0  0  0
   -2.5542   -0.5788   -0.2104 H   0  0  0  0  0  0  0  0  0  0  0  0
   -0.5102   -0.3728    0.3086 C   0  0  1  0  0  0  0  0  0  0  0  0
    0.2589   -1.1264    0.4838 H   0  0  0  0  0  0  0  0  0  0  0  0
   -0.2634    0.2494   -1.0782 C   0  0  0  0  0  0  0  0  0  0  0  0
   -1.0718    0.9464   -1.3062 H   0  0  0  0  0  0  0  0  0  0  0  0
    0.6701    0.8146   -1.0535 H   0  0  0  0  0  0  0  0  0  0  0  0
   -0.1783   -0.7655   -2.1886 C   0  0  0  0  0  0  0  0  0  0  0  0
    0.8839   -1.6053   -2.4466 N   0  0  0  0  0  0  0  0  0  0  0  0
    1.7755   -1.5992   -1.9742 H   0  0  0  0  0  0  0  0  0  0  0  0
    0.5269   -2.4327   -3.4433 C   0  0  0  0  0  0  0  0  0  0  0  0
    1.1554   -3.2034   -3.8725 H   0  0  0  0  0  0  0  0  0  0  0  0
   -0.7289   -2.1728   -3.8354 N   0  0  0  0  0  0  0  0  0  0  0  0
   -1.1861   -1.1126   -3.0483 C   0  0  0  0  0  0  0  0  0  0  0  0
   -2.1725   -0.6685   -3.0850 H   0  0  0  0  0  0  0  0  0  0  0  0
   -0.4148    0.6679    1.4372 C   0  0  0  0  0  0  0  0  0  0  0  0
   -1.4343    1.0638    2.0019 O   0  0  0  0  0  0  0  0  0  0  0  0
    0.8038    1.1232    1.7536 N   0  0  0  0  0  0  0  0  0  0  0  0
    1.5849    0.7902    1.2077 H   0  0  0  0  0  0  0  0  0  0  0  0
    1.0716    2.1052    2.8010 C   0  0  0  0  0  0  0  0  0  0  0  0
    0.7248    1.7226    3.7635 H   0  0  0  0  0  0  0  0  0  0  0  0
    2.1414    2.3080    2.8600 H   0  0  0  0  0  0  0  0  0  0  0  0
    0.5406    3.0333    2.5838 H   0  0  0  0  0  0  0  0  0  0  0  0
  5  6  2  0  0  0  0
  5  7  1  0  0  0  0
  2  3  1  0  0  0  0
  2  4  1  0  0  0  0
  2  5  1  0  0  0  0
  1  2  1  0  0  0  0
 22 23  2  0  0  0  0
 22 24  1  0  0  0  0
 20 21  1  0  0  0  0
 19 20  1  0  0  0  0
 17 18  1  0  0  0  0
 17 19  2  0  0  0  0
 15 16  1  0  0  0  0
 15 17  1  0  0  0  0
 14 15  1  0  0  0  0
 14 20  2  0  0  0  0
 11 12  1  0  0  0  0
 11 13  1  0  0  0  0
 11 14  1  0  0  0  0
  9 10  1  0  0  0  0
  9 11  1  0  0  0  0
  9 22  1  0  0  0  0
  7  8  1  0  0  0  0
  7  9  1  0  0  0  0
 26 27  1  0  0  0  0
 26 28  1  0  0  0  0
 26 29  1  0  0  0  0
 24 25  1  0  0  0  0
 24 26  1  0  0  0  0
M  END
$$$$
default_name
  -OEChem-01062215323D

 29 29  0     1  0  0  0  0  0999 V2000
   -3.6042   -3.5728    1.4576 H   0  0  0  0  0  0  0  0  0  0  0  0
   -3.5202   -2.6488    0.8866 C   0  0  0  0  0  0  0  0  0  0  0  0
   -4.2052   -1.9048    1.2896 H   0  0  0  0  0  0  0  0  0  0  0  0
   -3.7552   -2.8428   -0.1584 H   0  0  0  0  0  0  0  0  0  0  0  0
   -2.1052   -2.1358    0.9946 C   0  0  0  0  0  0  0  0  0  0  0  0
   -1.2852   -2.7288    1.6826 O   0  0  0  0  0  0  0  0  0  0  0  0
   -1.8202   -1.0288    0.3146 N   0  0  0  0  0  0  0  0  0  0  0  0
   -2.5542   -0.5788   -0.2104 H   0  0  0  0  0  0  0  0  0  0  0  0
   -0.5102   -0.3728    0.3086 C   0  0  1  0  0  0  0  0  0  0  0  0
    0.2628   -1.1368    0.2142 H   0  0  0  0  0  0  0  0  0  0  0  0
   -0.4165    0.5566   -0.9157 C   0  0  0  0  0  0  0  0  0  0  0  0
   -1.2355    1.2772   -0.8808 H   0  0  0  0  0  0  0  0  0  0  0  0
    0.5218    1.1124   -0.8693 H   0  0  0  0  0  0  0  0  0  0  0  0
   -0.4754   -0.1726   -2.2329 C   0  0  0  0  0  0  0  0  0  0  0  0
    0.5373   -0.9164   -2.7996 N   0  0  0  0  0  0  0  0  0  0  0  0
    1.4776   -1.0086   -2.4454 H   0  0  0  0  0  0  0  0  0  0  0  0
    0.0552   -1.4950   -3.9124 C   0  0  0  0  0  0  0  0  0  0  0  0
    0.6184   -2.1375   -4.5782 H   0  0  0  0  0  0  0  0  0  0  0  0
   -1.2336   -1.1672   -4.0853 N   0  0  0  0  0  0  0  0  0  0  0  0
   -1.5810   -0.3239   -3.0267 C   0  0  0  0  0  0  0  0  0  0  0  0
   -2.5583    0.1042   -2.8450 H   0  0  0  0  0  0  0  0  0  0  0  0
   -0.2695    0.3795    1.6284 C   0  0  0  0  0  0  0  0  0  0  0  0
   -1.1335    0.3835    2.5050 O   0  0  0  0  0  0  0  0  0  0  0  0
    0.8933    1.0291    1.7637 N   0  0  0  0  0  0  0  0  0  0  0  0
    1.5275    1.0234    0.9784 H   0  0  0  0  0  0  0  0  0  0  0  0
    1.2828    1.7854    2.9509 C   0  0  0  0  0  0  0  0  0  0  0  0
    1.2993    1.1248    3.8208 H   0  0  0  0  0  0  0  0  0  0  0  0
    2.2735    2.2188    2.8109 H   0  0  0  0  0  0  0  0  0  0  0  0
    0.5628    2.5844    3.1345 H   0  0  0  0  0  0  0  0  0  0  0  0
  5  6  2  0  0  0  0
  5  7  1  0  0  0  0
  2  3  1  0  0  0  0
  2  4  1  0  0  0  0
  2  5  1  0  0  0  0
  1  2  1  0  0  0  0
 22 23  2  0  0  0  0
 22 24  1  0  0  0  0
 20 21  1  0  0  0  0
 19 20  1  0  0  0  0
 17 18  1  0  0  0  0
 17 19  2  0  0  0  0
 15 16  1  0  0  0  0
 15 17  1  0  0  0  0
 14 15  1  0  0  0  0
 14 20  2  0  0  0  0
 11 12  1  0  0  0  0
 11 13  1  0  0  0  0
 11 14  1  0  0  0  0
  9 10  1  0  0  0  0
  9 11  1  0  0  0  0
  9 22  1  0  0  0  0
  7  8  1  0  0  0  0
  7  9  1  0  0  0  0
 26 27  1  0  0  0  0
 26 28  1  0  0  0  0
 26 29  1  0  0  0  0
 24 25  1  0  0  0  0
 24 26  1  0  0  0  0
M  END
$$$$
default_name
  -OEChem-01062215323D

 29 29  0     1  0  0  0  0  0999 V2000
   -3.6042   -3.5728    1.4576 H   0  0  0  0  0  0  0  0  0  0  0  0
   -3.5202   -2.6488    0.8866 C   0  0  0  0  0  0  0  0  0  0  0  0
   -4.2052   -1.9048    1.2896 H   0  0  0  0  0  0  0  0  0  0  0  0
   -3.7552   -2.8428   -0.1584 H   0  0  0  0  0  0  0  0  0  0  0  0
   -2.1052   -2.1358    0.9946 C   0  0  0  0  0  0  0  0  0  0  0  0
   -1.2852   -2.7288    1.6826 O   0  0  0  0  0  0  0  0  0  0  0  0
   -1.8202   -1.0288    0.3146 N   0  0  0  0  0  0  0  0  0  0  0  0
   -2.5542   -0.5788   -0.2104 H   0  0  0  0  0  0  0  0  0  0  0  0
   -0.5102   -0.3728    0.3086 C   0  0  1  0  0  0  0  0  0  0  0  0
    0.2628   -1.1368    0.2142 H   0  0  0  0  0  0  0  0  0  0  0  0
   -0.4165    0.5566   -0.9157 C   0  0  0  0  0  0  0  0  0  0  0  0
   -1.2355    1.2772   -0.8808 H   0  0  0  0  0  0  0  0  0  0  0  0
    0.5218    1.1124   -0.8693 H   0  0  0  0  0  0  0  0  0  0  0  0
   -0.4754   -0.1726   -2.2329 C   0  0  0  0  0  0  0  0  0  0  0  0
    0.5373   -0.9164   -2.7996 N   0  0  0  0  0  0  0  0  0  0  0  0
    1.4776   -1.0086   -2.4454 H   0  0  0  0  0  0  0  0  0  0  0  0
    0.0552   -1.4950   -3.9124 C   0  0  0  0  0  0  0  0  0  0  0  0
    0.6184   -2.1375   -4.5782 H   0  0  0  0  0  0  0  0  0  0  0  0
   -1.2336   -1.1672   -4.0853 N   0  0  0  0  0  0  0  0  0  0  0  0
   -1.5810   -0.3239   -3.0267 C   0  0  0  0  0  0  0  0  0  0  0  0
   -2.5583    0.1042   -2.8450 H   0  0  0  0  0  0  0  0  0  0  0  0
   -0.2695    0.3795    1.6284 C   0  0  0  0  0  0  0  0  0  0  0  0
   -0.9906    0.1663    2.6028 O   0  0  0  0  0  0  0  0  0  0  0  0
    0.7298    1.2700    1.6562 N   0  0  0  0  0  0  0  0  0  0  0  0
    1.2412    1.4276    0.8002 H   0  0  0  0  0  0  0  0  0  0  0  0
    1.0961    2.0631    2.8267 C   0  0  0  0  0  0  0  0  0  0  0  0
    1.3711    1.4006    3.6505 H   0  0  0  0  0  0  0  0  0  0  0  0
    1.9404    2.7116    2.5908 H   0  0  0  0  0  0  0  0  0  0  0  0
    0.2488    2.6748    3.1402 H   0  0  0  0  0  0  0  0  0  0  0  0
  5  6  2  0  0  0  0
  5  7  1  0  0  0  0
  2  3  1  0  0  0  0
  2  4  1  0  0  0  0
  2  5  1  0  0  0  0
  1  2  1  0  0  0  0
 22 23  2  0  0  0  0
 22 24  1  0  0  0  0
 20 21  1  0  0  0  0
 19 20  1  0  0  0  0
 17 18  1  0  0  0  0
 17 19  2  0  0  0  0
 15 16  1  0  0  0  0
 15 17  1  0  0  0  0
 14 15  1  0  0  0  0
 14 20  2  0  0  0  0
 11 12  1  0  0  0  0
 11 13  1  0  0  0  0
 11 14  1  0  0  0  0
  9 10  1  0  0  0  0
  9 11  1  0  0  0  0
  9 22  1  0  0  0  0
  7  8  1  0  0  0  0
  7  9  1  0  0  0  0
 26 27  1  0  0  0  0
 26 28  1  0  0  0  0
 26 29  1  0  0  0  0
 24 25  1  0  0  0  0
 24 26  1  0  0  0  0
M  END
$$$$
default_name
  -OEChem-01062215323D

 29 29  0     1  0  0  0  0  0999 V2000
   -3.6042   -3.5728    1.4576 H   0  0  0  0  0  0  0  0  0  0  0  0
   -3.5202   -2.6488    0.8866 C   0  0  0  0  0  0  0  0  0  0  0  0
   -4.2052   -1.9048    1.2896 H   0  0  0  0  0  0  0  0  0  0  0  0
   -3.7552   -2.8428   -0.1584 H   0  0  0  0  0  0  0  0  0  0  0  0
   -2.1052   -2.1358    0.9946 C   0  0  0  0  0  0  0  0  0  0  0  0
   -1.2852   -2.7288    1.6826 O   0  0  0  0  0  0  0  0  0  0  0  0
   -1.8202   -1.0288    0.3146 N   0  0  0  0  0  0  0  0  0  0  0  0
   -2.5542   -0.5788   -0.2104 H   0  0  0  0  0  0  0  0  0  0  0  0
   -0.5102   -0.3728    0.3086 C   0  0  1  0  0  0  0  0  0  0  0  0
    0.2628   -1.1368    0.2142 H   0  0  0  0  0  0  0  0  0  0  0  0
   -0.4165    0.5566   -0.9157 C   0  0  0  0  0  0  0  0  0  0  0  0
   -1.2355    1.2772   -0.8808 H   0  0  0  0  0  0  0  0  0  0  0  0
    0.5218    1.1124   -0.8693 H   0  0  0  0  0  0  0  0  0  0  0  0
   -0.4754   -0.1726   -2.2329 C   0  0  0  0  0  0  0  0  0  0  0  0
    0.5373   -0.9164   -2.7996 N   0  0  0  0  0  0  0  0  0  0  0  0
    1.4776   -1.0086   -2.4454 H   0  0  0  0  0  0  0  0  0  0  0  0
    0.0552   -1.4950   -3.9124 C   0  0  0  0  0  0  0  0  0  0  0  0
    0.6184   -2.1375   -4.5782 H   0  0  0  0  0  0  0  0  0  0  0  0
   -1.2336   -1.1672   -4.0853 N   0  0  0  0  0  0  0  0  0  0  0  0
   -1.5810   -0.3239   -3.0267 C   0  0  0  0  0  0  0  0  0  0  0  0
   -2.5583    0.1042   -2.8450 H   0  0  0  0  0  0  0  0  0  0  0  0
   -0.2695    0.3795    1.6284 C   0  0  0  0  0  0  0  0  0  0  0  0
   -0.7921   -0.0157    2.6703 O   0  0  0  0  0  0  0  0  0  0  0  0
    0.5048    1.4707    1.5828 N   0  0  0  0  0  0  0  0  0  0  0  0
    0.8523    1.7615    0.6808 H   0  0  0  0  0  0  0  0  0  0  0  0
    0.8384    2.2949    2.7416 C   0  0  0  0  0  0  0  0  0  0  0  0
    1.3577    1.6898    3.4881 H   0  0  0  0  0  0  0  0  0  0  0  0
    1.4814    3.1225    2.4404 H   0  0  0  0  0  0  0  0  0  0  0  0
   -0.0739    2.6921    3.1892 H   0  0  0  0  0  0  0  0  0  0  0  0
  5  6  2  0  0  0  0
  5  7  1  0  0  0  0
  2  3  1  0  0  0  0
  2  4  1  0  0  0  0
  2  5  1  0  0  0  0
  1  2  1  0  0  0  0
 22 23  2  0  0  0  0
 22 24  1  0  0  0  0
 20 21  1  0  0  0  0
 19 20  1  0  0  0  0
 17 18  1  0  0  0  0
 17 19  2  0  0  0  0
 15 16  1  0  0  0  0
 15 17  1  0  0  0  0
 14 15  1  0  0  0  0
 14 20  2  0  0  0  0
 11 12  1  0  0  0  0
 11 13  1  0  0  0  0
 11 14  1  0  0  0  0
  9 10  1  0  0  0  0
  9 11  1  0  0  0  0
  9 22  1  0  0  0  0
  7  8  1  0  0  0  0
  7  9  1  0  0  0  0
 26 27  1  0  0  0  0
 26 28  1  0  0  0  0
 26 29  1  0  0  0  0
 24 25  1  0  0  0  0
 24 26  1  0  0  0  0
M  END
$$$$
default_name
  -OEChem-01062215323D

 29 29  0     1  0  0  0  0  0999 V2000
   -3.6042   -3.5728    1.4576 H   0  0  0  0  0  0  0  0  0  0  0  0
   -3.5202   -2.6488    0.8866 C   0  0  0  0  0  0  0  0  0  0  0  0
   -4.2052   -1.9048    1.2896 H   0  0  0  0  0  0  0  0  0  0  0  0
   -3.7552   -2.8428   -0.1584 H   0  0  0  0  0  0  0  0  0  0  0  0
   -2.1052   -2.1358    0.9946 C   0  0  0  0  0  0  0  0  0  0  0  0
   -1.2852   -2.7288    1.6826 O   0  0  0  0  0  0  0  0  0  0  0  0
   -1.8202   -1.0288    0.3146 N   0  0  0  0  0  0  0  0  0  0  0  0
   -2.5542   -0.5788   -0.2104 H   0  0  0  0  0  0  0  0  0  0  0  0
   -0.5102   -0.3728    0.3086 C   0  0  1  0  0  0  0  0  0  0  0  0
    0.2628   -1.1368    0.2142 H   0  0  0  0  0  0  0  0  0  0  0  0
   -0.4165    0.5566   -0.9157 C   0  0  0  0  0  0  0  0  0  0  0  0
   -1.2355    1.2772   -0.8808 H   0  0  0  0  0  0  0  0  0  0  0  0
    0.5218    1.1124   -0.8693 H   0  0  0  0  0  0  0  0  0  0  0  0
   -0.4754   -0.1726   -2.2329 C   0  0  0  0  0  0  0  0  0  0  0  0
    0.5373   -0.9164   -2.7996 N   0  0  0  0  0  0  0  0  0  0  0  0
    1.4776   -1.0086   -2.4454 H   0  0  0  0  0  0  0  0  0  0  0  0
    0.0552   -1.4950   -3.9124 C   0  0  0  0  0  0  0  0  0  0  0  0
    0.6184   -2.1375   -4.5782 H   0  0  0  0  0  0  0  0  0  0  0  0
   -1.2336   -1.1672   -4.0853 N   0  0  0  0  0  0  0  0  0  0  0  0
   -1.5810   -0.3239   -3.0267 C   0  0  0  0  0  0  0  0  0  0  0  0
   -2.5583    0.1042   -2.8450 H   0  0  0  0  0  0  0  0  0  0  0  0
   -0.2695    0.3795    1.6284 C   0  0  0  0  0  0  0  0  0  0  0  0
   -0.5513   -0.1502    2.7030 O   0  0  0  0  0  0  0  0  0  0  0  0
    0.2336    1.6177    1.5486 N   0  0  0  0  0  0  0  0  0  0  0  0
    0.3874    2.0026    0.6282 H   0  0  0  0  0  0  0  0  0  0  0  0
    0.5272    2.4650    2.7013 C   0  0  0  0  0  0  0  0  0  0  0  0
    1.2600    1.9727    3.3447 H   0  0  0  0  0  0  0  0  0  0  0  0
    0.9276    3.4235    2.3697 H   0  0  0  0  0  0  0  0  0  0  0  0
   -0.3833    2.6353    3.2781 H   0  0  0  0  0  0  0  0  0  0  0  0
  5  6  2  0  0  0  0
  5  7  1  0  0  0  0
  2  3  1  0  0  0  0
  2  4  1  0  0  0  0
  2  5  1  0  0  0  0
  1  2  1  0  0  0  0
 22 23  2  0  0  0  0
 22 24  1  0  0  0  0
 20 21  1  0  0  0  0
 19 20  1  0  0  0  0
 17 18  1  0  0  0  0
 17 19  2  0  0  0  0
 15 16  1  0  0  0  0
 15 17  1  0  0  0  0
 14 15  1  0  0  0  0
 14 20  2  0  0  0  0
 11 12  1  0  0  0  0
 11 13  1  0  0  0  0
 11 14  1  0  0  0  0
  9 10  1  0  0  0  0
  9 11  1  0  0  0  0
  9 22  1  0  0  0  0
  7  8  1  0  0  0  0
  7  9  1  0  0  0  0
 26 27  1  0  0  0  0
 26 28  1  0  0  0  0
 26 29  1  0  0  0  0
 24 25  1  0  0  0  0
 24 26  1  0  0  0  0
M  END
$$$$
default_name
  -OEChem-01062215323D

 29 29  0     1  0  0  0  0  0999 V2000
   -3.6042   -3.5728    1.4576 H   0  0  0  0  0  0  0  0  0  0  0  0
   -3.5202   -2.6488    0.8866 C   0  0  0  0  0  0  0  0  0  0  0  0
   -4.2052   -1.9048    1.2896 H   0  0  0  0  0  0  0  0  0  0  0  0
   -3.7552   -2.8428   -0.1584 H   0  0  0  0  0  0  0  0  0  0  0  0
   -2.1052   -2.1358    0.9946 C   0  0  0  0  0  0  0  0  0  0  0  0
   -1.2852   -2.7288    1.6826 O   0  0  0  0  0  0  0  0  0  0  0  0
   -1.8202   -1.0288    0.3146 N   0  0  0  0  0  0  0  0  0  0  0  0
   -2.5542   -0.5788   -0.2104 H   0  0  0  0  0  0  0  0  0  0  0  0
   -0.5102   -0.3728    0.3086 C   0  0  1  0  0  0  0  0  0  0  0  0
    0.2628   -1.1368    0.2142 H   0  0  0  0  0  0  0  0  0  0  0  0
   -0.4165    0.5566   -0.9157 C   0  0  0  0  0  0  0  0  0  0  0  0
   -1.2355    1.2772   -0.8808 H   0  0  0  0  0  0  0  0  0  0  0  0
    0.5218    1.1124   -0.8693 H   0  0  0  0  0  0  0  0  0  0  0  0
   -0.4754   -0.1726   -2.2329 C   0  0  0  0  0  0  0  0  0  0  0  0
    0.5373   -0.9164   -2.7996 N   0  0  0  0  0  0  0  0  0  0  0  0
    1.4776   -1.0086   -2.4454 H   0  0  0  0  0  0  0  0  0  0  0  0
    0.0552   -1.4950   -3.9124 C   0  0  0  0  0  0  0  0  0  0  0  0
    0.6184   -2.1375   -4.5782 H   0  0  0  0  0  0  0  0  0  0  0  0
   -1.2336   -1.1672   -4.0853 N   0  0  0  0  0  0  0  0  0  0  0  0
   -1.5810   -0.3239   -3.0267 C   0  0  0  0  0  0  0  0  0  0  0  0
   -2.5583    0.1042   -2.8450 H   0  0  0  0  0  0  0  0  0  0  0  0
   -0.2695    0.3795    1.6284 C   0  0  0  0  0  0  0  0  0  0  0  0
   -0.2847   -0.2279    2.6987 O   0  0  0  0  0  0  0  0  0  0  0  0
   -0.0653    1.7007    1.5557 N   0  0  0  0  0  0  0  0  0  0  0  0
   -0.1219    2.1344    0.6460 H   0  0  0  0  0  0  0  0  0  0  0  0
    0.1837    2.5619    2.7088 C   0  0  0  0  0  0  0  0  0  0  0  0
    1.0845    2.2301    3.2299 H   0  0  0  0  0  0  0  0  0  0  0  0
    0.3170    3.5942    2.3838 H   0  0  0  0  0  0  0  0  0  0  0  0
   -0.6582    2.5080    3.4007 H   0  0  0  0  0  0  0  0  0  0  0  0
  5  6  2  0  0  0  0
  5  7  1  0  0  0  0
  2  3  1  0  0  0  0
  2  4  1  0  0  0  0
  2  5  1  0  0  0  0
  1  2  1  0  0  0  0
 22 23  2  0  0  0  0
 22 24  1  0  0  0  0
 20 21  1  0  0  0  0
 19 20  1  0  0  0  0
 17 18  1  0  0  0  0
 17 19  2  0  0  0  0
 15 16  1  0  0  0  0
 15 17  1  0  0  0  0
 14 15  1  0  0  0  0
 14 20  2  0  0  0  0
 11 12  1  0  0  0  0
 11 13  1  0  0  0  0
 11 14  1  0  0  0  0
  9 10  1  0  0  0  0
  9 11  1  0  0  0  0
  9 22  1  0  0  0  0
  7  8  1  0  0  0  0
  7  9  1  0  0  0  0
 26 27  1  0  0  0  0
 26 28  1  0  0  0  0
 26 29  1  0  0  0  0
 24 25  1  0  0  0  0
 24 26  1  0  0  0  0
M  END
$$$$
default_name
  -OEChem-01062215323D

 29 29  0     1  0  0  0  0  0999 V2000
   -3.6042   -3.5728    1.4576 H   0  0  0  0  0  0  0  0  0  0  0  0
   -3.5202   -2.6488    0.8866 C   0  0  0  0  0  0  0  0  0  0  0  0
   -4.2052   -1.9048    1.2896 H   0  0  0  0  0  0  0  0  0  0  0  0
   -3.7552   -2.8428   -0.1584 H   0  0  0  0  0  0  0  0  0  0  0  0
   -2.1052   -2.1358    0.9946 C   0  0  0  0  0  0  0  0  0  0  0  0
   -1.2852   -2.7288    1.6826 O   0  0  0  0  0  0  0  0  0  0  0  0
   -1.8202   -1.0288    0.3146 N   0  0  0  0  0  0  0  0  0  0  0  0
   -2.5542   -0.5788   -0.2104 H   0  0  0  0  0  0  0  0  0  0  0  0
   -0.5102   -0.3728    0.3086 C   0  0  1  0  0  0  0  0  0  0  0  0
    0.2628   -1.1368    0.2142 H   0  0  0  0  0  0  0  0  0  0  0  0
   -0.4165    0.5566   -0.9157 C   0  0  0  0  0  0  0  0  0  0  0  0
   -1.2355    1.2772   -0.8808 H   0  0  0  0  0  0  0  0  0  0  0  0
    0.5218    1.1124   -0.8693 H   0  0  0  0  0  0  0  0  0  0  0  0
   -0.4754   -0.1726   -2.2329 C   0  0  0  0  0  0  0  0  0  0  0  0
    0.5373   -0.9164   -2.7996 N   0  0  0  0  0  0  0  0  0  0  0  0
    1.4776   -1.0086   -2.4454 H   0  0  0  0  0  0  0  0  0  0  0  0
    0.0552   -1.4950   -3.9124 C   0  0  0  0  0  0  0  0  0  0  0  0
    0.6184   -2.1375   -4.5782 H   0  0  0  0  0  0  0  0  0  0  0  0
   -1.2336   -1.1672   -4.0853 N   0  0  0  0  0  0  0  0  0  0  0  0
   -1.5810   -0.3239   -3.0267 C   0  0  0  0  0  0  0  0  0  0  0  0
   -2.5583    0.1042   -2.8450 H   0  0  0  0  0  0  0  0  0  0  0  0
   -0.2695    0.3795    1.6284 C   0  0  0  0  0  0  0  0  0  0  0  0
   -0.0105   -0.2436    2.6577 O   0  0  0  0  0  0  0  0  0  0  0  0
   -0.3716    1.7142    1.6039 N   0  0  0  0  0  0  0  0  0  0  0  0
   -0.6408    2.1478    0.7329 H   0  0  0  0  0  0  0  0  0  0  0  0
   -0.1686    2.5788    2.7634 C   0  0  0  0  0  0  0  0  0  0  0  0
    0.8434    2.4444    3.1518 H   0  0  0  0  0  0  0  0  0  0  0  0
   -0.3090    3.6228    2.4817 H   0  0  0  0  0  0  0  0  0  0  0  0
   -0.8800    2.3191    3.5489 H   0  0  0  0  0  0  0  0  0  0  0  0
  5  6  2  0  0  0  0
  5  7  1  0  0  0  0
  2  3  1  0  0  0  0
  2  4  1  0  0  0  0
  2  5  1  0  0  0  0
  1  2  1  0  0  0  0
 22 23  2  0  0  0  0
 22 24  1  0  0  0  0
 20 21  1  0  0  0  0
 19 20  1  0  0  0  0
 17 18  1  0  0  0  0
 17 19  2  0  0  0  0
 15 16  1  0  0  0  0
 15 17  1  0  0  0  0
 14 15  1  0  0  0  0
 14 20  2  0  0  0  0
 11 12  1  0  0  0  0
 11 13  1  0  0  0  0
 11 14  1  0  0  0  0
  9 10  1  0  0  0  0
  9 11  1  0  0  0  0
  9 22  1  0  0  0  0
  7  8  1  0  0  0  0
  7  9  1  0  0  0  0
 26 27  1  0  0  0  0
 26 28  1  0  0  0  0
 26 29  1  0  0  0  0
 24 25  1  0  0  0  0
 24 26  1  0  0  0  0
M  END
$$$$
default_name
  -OEChem-01062215323D

 29 29  0     1  0  0  0  0  0999 V2000
   -3.6042   -3.5728    1.4576 H   0  0  0  0  0  0  0  0  0  0  0  0
   -3.5202   -2.6488    0.8866 C   0  0  0  0  0  0  0  0  0  0  0  0
   -4.2052   -1.9048    1.2896 H   0  0  0  0  0  0  0  0  0  0  0  0
   -3.7552   -2.8428   -0.1584 H   0  0  0  0  0  0  0  0  0  0  0  0
   -2.1052   -2.1358    0.9946 C   0  0  0  0  0  0  0  0  0  0  0  0
   -1.2852   -2.7288    1.6826 O   0  0  0  0  0  0  0  0  0  0  0  0
   -1.8202   -1.0288    0.3146 N   0  0  0  0  0  0  0  0  0  0  0  0
   -2.5542   -0.5788   -0.2104 H   0  0  0  0  0  0  0  0  0  0  0  0
   -0.5102   -0.3728    0.3086 C   0  0  1  0  0  0  0  0  0  0  0  0
    0.2628   -1.1368    0.2142 H   0  0  0  0  0  0  0  0  0  0  0  0
   -0.4165    0.5566   -0.9157 C   0  0  0  0  0  0  0  0  0  0  0  0
   -1.2355    1.2772   -0.8808 H   0  0  0  0  0  0  0  0  0  0  0  0
    0.5218    1.1124   -0.8693 H   0  0  0  0  0  0  0  0  0  0  0  0
   -0.4754   -0.1726   -2.2329 C   0  0  0  0  0  0  0  0  0  0  0  0
    0.5373   -0.9164   -2.7996 N   0  0  0  0  0  0  0  0  0  0  0  0
    1.4776   -1.0086   -2.4454 H   0  0  0  0  0  0  0  0  0  0  0  0
    0.0552   -1.4950   -3.9124 C   0  0  0  0  0  0  0  0  0  0  0  0
    0.6184   -2.1375   -4.5782 H   0  0  0  0  0  0  0  0  0  0  0  0
   -1.2336   -1.1672   -4.0853 N   0  0  0  0  0  0  0  0  0  0  0  0
   -1.5810   -0.3239   -3.0267 C   0  0  0  0  0  0  0  0  0  0  0  0
   -2.5583    0.1042   -2.8450 H   0  0  0  0  0  0  0  0  0  0  0  0
   -0.2695    0.3795    1.6284 C   0  0  0  0  0  0  0  0  0  0  0  0
    0.2526   -0.1963    2.5827 O   0  0  0  0  0  0  0  0  0  0  0  0
   -0.6644    1.6573    1.6897 N   0  0  0  0  0  0  0  0  0  0  0  0
   -1.1340    2.0420    0.8832 H   0  0  0  0  0  0  0  0  0  0  0  0
   -0.5058    2.5148    2.8614 C   0  0  0  0  0  0  0  0  0  0  0  0
    0.5530    2.6010    3.1154 H   0  0  0  0  0  0  0  0  0  0  0  0
   -0.9076    3.5075    2.6565 H   0  0  0  0  0  0  0  0  0  0  0  0
   -1.0335    2.0813    3.7124 H   0  0  0  0  0  0  0  0  0  0  0  0
  5  6  2  0  0  0  0
  5  7  1  0  0  0  0
  2  3  1  0  0  0  0
  2  4  1  0  0  0  0
  2  5  1  0  0  0  0
  1  2  1  0  0  0  0
 22 23  2  0  0  0  0
 22 24  1  0  0  0  0
 20 21  1  0  0  0  0
 19 20  1  0  0  0  0
 17 18  1  0  0  0  0
 17 19  2  0  0  0  0
 15 16  1  0  0  0  0
 15 17  1  0  0  0  0
 14 15  1  0  0  0  0
 14 20  2  0  0  0  0
 11 12  1  0  0  0  0
 11 13  1  0  0  0  0
 11 14  1  0  0  0  0
  9 10  1  0  0  0  0
  9 11  1  0  0  0  0
  9 22  1  0  0  0  0
  7  8  1  0  0  0  0
  7  9  1  0  0  0  0
 26 27  1  0  0  0  0
 26 28  1  0  0  0  0
 26 29  1  0  0  0  0
 24 25  1  0  0  0  0
 24 26  1  0  0  0  0
M  END
$$$$
default_name
  -OEChem-01062215323D

 29 29  0     1  0  0  0  0  0999 V2000
   -3.6042   -3.5728    1.4576 H   0  0  0  0  0  0  0  0  0  0  0  0
   -3.5202   -2.6488    0.8866 C   0  0  0  0  0  0  0  0  0  0  0  0
   -4.2052   -1.9048    1.2896 H   0  0  0  0  0  0  0  0  0  0  0  0
   -3.7552   -2.8428   -0.1584 H   0  0  0  0  0  0  0  0  0  0  0  0
   -2.1052   -2.1358    0.9946 C   0  0  0  0  0  0  0  0  0  0  0  0
   -1.2852   -2.7288    1.6826 O   0  0  0  0  0  0  0  0  0  0  0  0
   -1.8202   -1.0288    0.3146 N   0  0  0  0  0  0  0  0  0  0  0  0
   -2.5542   -0.5788   -0.2104 H   0  0  0  0  0  0  0  0  0  0  0  0
   -0.5102   -0.3728    0.3086 C   0  0  1  0  0  0  0  0  0  0  0  0
    0.2628   -1.1368    0.2142 H   0  0  0  0  0  0  0  0  0  0  0  0
   -0.4165    0.5566   -0.9157 C   0  0  0  0  0  0  0  0  0  0  0  0
   -1.2355    1.2772   -0.8808 H   0  0  0  0  0  0  0  0  0  0  0  0
    0.5218    1.1124   -0.8693 H   0  0  0  0  0  0  0  0  0  0  0  0
   -0.4754   -0.1726   -2.2329 C   0  0  0  0  0  0  0  0  0  0  0  0
    0.5373   -0.9164   -2.7996 N   0  0  0  0  0  0  0  0  0  0  0  0
    1.4776   -1.0086   -2.4454 H   0  0  0  0  0  0  0  0  0  0  0  0
    0.0552   -1.4950   -3.9124 C   0  0  0  0  0  0  0  0  0  0  0  0
    0.6184   -2.1375   -4.5782 H   0  0  0  0  0  0  0  0  0  0  0  0
   -1.2336   -1.1672   -4.0853 N   0  0  0  0  0  0  0  0  0  0  0  0
   -1.5810   -0.3239   -3.0267 C   0  0  0  0  0  0  0  0  0  0  0  0
   -2.5583    0.1042   -2.8450 H   0  0  0  0  0  0  0  0  0  0  0  0
   -0.2695    0.3795    1.6284 C   0  0  0  0  0  0  0  0  0  0  0  0
    0.4868   -0.0890    2.4788 O   0  0  0  0  0  0  0  0  0  0  0  0
   -0.9237    1.5339    1.8074 N   0  0  0  0  0  0  0  0  0  0  0  0
   -1.5679    1.8242    1.0865 H   0  0  0  0  0  0  0  0  0  0  0  0
   -0.8049    2.3740    2.9962 C   0  0  0  0  0  0  0  0  0  0  0  0
    0.2331    2.6893    3.1235 H   0  0  0  0  0  0  0  0  0  0  0  0
   -1.4381    3.2561    2.8966 H   0  0  0  0  0  0  0  0  0  0  0  0
   -1.1083    1.8109    3.8801 H   0  0  0  0  0  0  0  0  0  0  0  0
  5  6  2  0  0  0  0
  5  7  1  0  0  0  0
  2  3  1  0  0  0  0
  2  4  1  0  0  0  0
  2  5  1  0  0  0  0
  1  2  1  0  0  0  0
 22 23  2  0  0  0  0
 22 24  1  0  0  0  0
 20 21  1  0  0  0  0
 19 20  1  0  0  0  0
 17 18  1  0  0  0  0
 17 19  2  0  0  0  0
 15 16  1  0  0  0  0
 15 17  1  0  0  0  0
 14 15  1  0  0  0  0
 14 20  2  0  0  0  0
 11 12  1  0  0  0  0
 11 13  1  0  0  0  0
 11 14  1  0  0  0  0
  9 10  1  0  0  0  0
  9 11  1  0  0  0  0
  9 22  1  0  0  0  0
  7  8  1  0  0  0  0
  7  9  1  0  0  0  0
 26 27  1  0  0  0  0
 26 28  1  0  0  0  0
 26 29  1  0  0  0  0
 24 25  1  0  0  0  0
 24 26  1  0  0  0  0
M  END
$$$$
default_name
  -OEChem-01062215323D

 29 29  0     1  0  0  0  0  0999 V2000
   -3.6042   -3.5728    1.4576 H   0  0  0  0  0  0  0  0  0  0  0  0
   -3.5202   -2.6488    0.8866 C   0  0  0  0  0  0  0  0  0  0  0  0
   -4.2052   -1.9048    1.2896 H   0  0  0  0  0  0  0  0  0  0  0  0
   -3.7552   -2.8428   -0.1584 H   0  0  0  0  0  0  0  0  0  0  0  0
   -2.1052   -2.1358    0.9946 C   0  0  0  0  0  0  0  0  0  0  0  0
   -1.2852   -2.7288    1.6826 O   0  0  0  0  0  0  0  0  0  0  0  0
   -1.8202   -1.0288    0.3146 N   0  0  0  0  0  0  0  0  0  0  0  0
   -2.5542   -0.5788   -0.2104 H   0  0  0  0  0  0  0  0  0  0  0  0
   -0.5102   -0.3728    0.3086 C   0  0  1  0  0  0  0  0  0  0  0  0
    0.2628   -1.1368    0.2142 H   0  0  0  0  0  0  0  0  0  0  0  0
   -0.4165    0.5566   -0.9157 C   0  0  0  0  0  0  0  0  0  0  0  0
   -1.2355    1.2772   -0.8808 H   0  0  0  0  0  0  0  0  0  0  0  0
    0.5218    1.1124   -0.8693 H   0  0  0  0  0  0  0  0  0  0  0  0
   -0.4754   -0.1726   -2.2329 C   0  0  0  0  0  0  0  0  0  0  0  0
    0.5373   -0.9164   -2.7996 N   0  0  0  0  0  0  0  0  0  0  0  0
    1.4776   -1.0086   -2.4454 H   0  0  0  0  0  0  0  0  0  0  0  0
    0.0552   -1.4950   -3.9124 C   0  0  0  0  0  0  0  0  0  0  0  0
    0.6184   -2.1375   -4.5782 H   0  0  0  0  0  0  0  0  0  0  0  0
   -1.2336   -1.1672   -4.0853 N   0  0  0  0  0  0  0  0  0  0  0  0
   -1.5810   -0.3239   -3.0267 C   0  0  0  0  0  0  0  0  0  0  0  0
   -2.5583    0.1042   -2.8450 H   0  0  0  0  0  0  0  0  0  0  0  0
   -0.2695    0.3795    1.6284 C   0  0  0  0  0  0  0  0  0  0  0  0
    0.6760    0.0708    2.3532 O   0  0  0  0  0  0  0  0  0  0  0  0
   -1.1318    1.3523    1.9488 N   0  0  0  0  0  0  0  0  0  0  0  0
   -1.9129    1.5092    1.3289 H   0  0  0  0  0  0  0  0  0  0  0  0
   -1.0455    2.1662    3.1585 C   0  0  0  0  0  0  0  0  0  0  0  0
   -0.0944    2.7032    3.1753 H   0  0  0  0  0  0  0  0  0  0  0  0
   -1.8643    2.8858    3.1854 H   0  0  0  0  0  0  0  0  0  0  0  0
   -1.0992    1.5263    4.0407 H   0  0  0  0  0  0  0  0  0  0  0  0
  5  6  2  0  0  0  0
  5  7  1  0  0  0  0
  2  3  1  0  0  0  0
  2  4  1  0  0  0  0
  2  5  1  0  0  0  0
  1  2  1  0  0  0  0
 22 23  2  0  0  0  0
 22 24  1  0  0  0  0
 20 21  1  0  0  0  0
 19 20  1  0  0  0  0
 17 18  1  0  0  0  0
 17 19  2  0  0  0  0
 15 16  1  0  0  0  0
 15 17  1  0  0  0  0
 14 15  1  0  0  0  0
 14 20  2  0  0  0  0
 11 12  1  0  0  0  0
 11 13  1  0  0  0  0
 11 14  1  0  0  0  0
  9 10  1  0  0  0  0
  9 11  1  0  0  0  0
  9 22  1  0  0  0  0
  7  8  1  0  0  0  0
  7  9  1  0  0  0  0
 26 27  1  0  0  0  0
 26 28  1  0  0  0  0
 26 29  1  0  0  0  0
 24 25  1  0  0  0  0
 24 26  1  0  0  0  0
M  END
$$$$
default_name
  -OEChem-01062215323D

 29 29  0     1  0  0  0  0  0999 V2000
   -3.6042   -3.5728    1.4576 H   0  0  0  0  0  0  0  0  0  0  0  0
   -3.5202   -2.6488    0.8866 C   0  0  0  0  0  0  0  0  0  0  0  0
   -4.2052   -1.9048    1.2896 H   0  0  0  0  0  0  0  0  0  0  0  0
   -3.7552   -2.8428   -0.1584 H   0  0  0  0  0  0  0  0  0  0  0  0
   -2.1052   -2.1358    0.9946 C   0  0  0  0  0  0  0  0  0  0  0  0
   -1.2852   -2.7288    1.6826 O   0  0  0  0  0  0  0  0  0  0  0  0
   -1.8202   -1.0288    0.3146 N   0  0  0  0  0  0  0  0  0  0  0  0
   -2.5542   -0.5788   -0.2104 H   0  0  0  0  0  0  0  0  0  0  0  0
   -0.5102   -0.3728    0.3086 C   0  0  1  0  0  0  0  0  0  0  0  0
    0.2628   -1.1368    0.2142 H   0  0  0  0  0  0  0  0  0  0  0  0
   -0.4165    0.5566   -0.9157 C   0  0  0  0  0  0  0  0  0  0  0  0
   -1.2355    1.2772   -0.8808 H   0  0  0  0  0  0  0  0  0  0  0  0
    0.5218    1.1124   -0.8693 H   0  0  0  0  0  0  0  0  0  0  0  0
   -0.4754   -0.1726   -2.2329 C   0  0  0  0  0  0  0  0  0  0  0  0
    0.5373   -0.9164   -2.7996 N   0  0  0  0  0  0  0  0  0  0  0  0
    1.4776   -1.0086   -2.4454 H   0  0  0  0  0  0  0  0  0  0  0  0
    0.0552   -1.4950   -3.9124 C   0  0  0  0  0  0  0  0  0  0  0  0
    0.6184   -2.1375   -4.5782 H   0  0  0  0  0  0  0  0  0  0  0  0
   -1.2336   -1.1672   -4.0853 N   0  0  0  0  0  0  0  0  0  0  0  0
   -1.5810   -0.3239   -3.0267 C   0  0  0  0  0  0  0  0  0  0  0  0
   -2.5583    0.1042   -2.8450 H   0  0  0  0  0  0  0  0  0  0  0  0
   -0.2695    0.3795    1.6284 C   0  0  0  0  0  0  0  0  0  0  0  0
    0.8074    0.2723    2.2144 O   0  0  0  0  0  0  0  0  0  0  0  0
   -1.2747    1.1249    2.1045 N   0  0  0  0  0  0  0  0  0  0  0  0
   -2.1455    1.1185    1.5940 H   0  0  0  0  0  0  0  0  0  0  0  0
   -1.2111    1.9054    3.3373 C   0  0  0  0  0  0  0  0  0  0  0  0
   -0.4074    2.6418    3.2674 H   0  0  0  0  0  0  0  0  0  0  0  0
   -2.1571    2.4217    3.5033 H   0  0  0  0  0  0  0  0  0  0  0  0
   -1.0070    1.2470    4.1831 H   0  0  0  0  0  0  0  0  0  0  0  0
  5  6  2  0  0  0  0
  5  7  1  0  0  0  0
  2  3  1  0  0  0  0
  2  4  1  0  0  0  0
  2  5  1  0  0  0  0
  1  2  1  0  0  0  0
 22 23  2  0  0  0  0
 22 24  1  0  0  0  0
 20 21  1  0  0  0  0
 19 20  1  0  0  0  0
 17 18  1  0  0  0  0
 17 19  2  0  0  0  0
 15 16  1  0  0  0  0
 15 17  1  0  0  0  0
 14 15  1  0  0  0  0
 14 20  2  0  0  0  0
 11 12  1  0  0  0  0
 11 13  1  0  0  0  0
 11 14  1  0  0  0  0
  9 10  1  0  0  0  0
  9 11  1  0  0  0  0
  9 22  1  0  0  0  0
  7  8  1  0  0  0  0
  7  9  1  0  0  0  0
 26 27  1  0  0  0  0
 26 28  1  0  0  0  0
 26 29  1  0  0  0  0
 24 25  1  0  0  0  0
 24 26  1  0  0  0  0
M  END
$$$$
default_name
  -OEChem-01062215323D

 29 29  0     1  0  0  0  0  0999 V2000
   -3.6042   -3.5728    1.4576 H   0  0  0  0  0  0  0  0  0  0  0  0
   -3.5202   -2.6488    0.8866 C   0  0  0  0  0  0  0  0  0  0  0  0
   -4.2052   -1.9048    1.2896 H   0  0  0  0  0  0  0  0  0  0  0  0
   -3.7552   -2.8428   -0.1584 H   0  0  0  0  0  0  0  0  0  0  0  0
   -2.1052   -2.1358    0.9946 C   0  0  0  0  0  0  0  0  0  0  0  0
   -1.2852   -2.7288    1.6826 O   0  0  0  0  0  0  0  0  0  0  0  0
   -1.8202   -1.0288    0.3146 N   0  0  0  0  0  0  0  0  0  0  0  0
   -2.5542   -0.5788   -0.2104 H   0  0  0  0  0  0  0  0  0  0  0  0
   -0.5102   -0.3728    0.3086 C   0  0  1  0  0  0  0  0  0  0  0  0
    0.2628   -1.1368    0.2142 H   0  0  0  0  0  0  0  0  0  0  0  0
   -0.4165    0.5566   -0.9157 C   0  0  0  0  0  0  0  0  0  0  0  0
   -1.2355    1.2772   -0.8808 H   0  0  0  0  0  0  0  0  0  0  0  0
    0.5218    1.1124   -0.8693 H   0  0  0  0  0  0  0  0  0  0  0  0
   -0.4754   -0.1726   -2.2329 C   0  0  0  0  0  0  0  0  0  0  0  0
    0.5373   -0.9164   -2.7996 N   0  0  0  0  0  0  0  0  0  0  0  0
    1.4776   -1.0086   -2.4454 H   0  0  0  0  0  0  0  0  0  0  0  0
    0.0552   -1.4950   -3.9124 C   0  0  0  0  0  0  0  0  0  0  0  0
    0.6184   -2.1375   -4.5782 H   0  0  0  0  0  0  0  0  0  0  0  0
   -1.2336   -1.1672   -4.0853 N   0  0  0  0  0  0  0  0  0  0  0  0
   -1.5810   -0.3239   -3.0267 C   0  0  0  0  0  0  0  0  0  0  0  0
   -2.5583    0.1042   -2.8450 H   0  0  0  0  0  0  0  0  0  0  0  0
   -0.2695    0.3795    1.6284 C   0  0  0  0  0  0  0  0  0  0  0  0
    0.8720    0.5017    2.0719 O   0  0  0  0  0  0  0  0  0  0  0  0
   -1.3424    0.8673    2.2637 N   0  0  0  0  0  0  0  0  0  0  0  0
   -2.2499    0.6787    1.8637 H   0  0  0  0  0  0  0  0  0  0  0  0
   -1.2906    1.6095    3.5205 C   0  0  0  0  0  0  0  0  0  0  0  0
   -0.6844    2.5092    3.3934 H   0  0  0  0  0  0  0  0  0  0  0  0
   -2.2967    1.8955    3.8287 H   0  0  0  0  0  0  0  0  0  0  0  0
   -0.8378    0.9918    4.2976 H   0  0  0  0  0  0  0  0  0  0  0  0
  5  6  2  0  0  0  0
  5  7  1  0  0  0  0
  2  3  1  0  0  0  0
  2  4  1  0  0  0  0
  2  5  1  0  0  0  0
  1  2  1  0  0  0  0
 22 23  2  0  0  0  0
 22 24  1  0  0  0  0
 20 21  1  0  0  0  0
 19 20  1  0  0  0  0
 17 18  1  0  0  0  0
 17 19  2  0  0  0  0
 15 16  1  0  0  0  0
 15 17  1  0  0  0  0
 14 15  1  0  0  0  0
 14 20  2  0  0  0  0
 11 12  1  0  0  0  0
 11 13  1  0  0  0  0
 11 14  1  0  0  0  0
  9 10  1  0  0  0  0
  9 11  1  0  0  0  0
  9 22  1  0  0  0  0
  7  8  1  0  0  0  0
  7  9  1  0  0  0  0
 26 27  1  0  0  0  0
 26 28  1  0  0  0  0
 26 29  1  0  0  0  0
 24 25  1  0  0  0  0
 24 26  1  0  0  0  0
M  END
$$$$
default_name
  -OEChem-01062215323D

 29 29  0     1  0  0  0  0  0999 V2000
   -3.6042   -3.5728    1.4576 H   0  0  0  0  0  0  0  0  0  0  0  0
   -3.5202   -2.6488    0.8866 C   0  0  0  0  0  0  0  0  0  0  0  0
   -4.2052   -1.9048    1.2896 H   0  0  0  0  0  0  0  0  0  0  0  0
   -3.7552   -2.8428   -0.1584 H   0  0  0  0  0  0  0  0  0  0  0  0
   -2.1052   -2.1358    0.9946 C   0  0  0  0  0  0  0  0  0  0  0  0
   -1.2852   -2.7288    1.6826 O   0  0  0  0  0  0  0  0  0  0  0  0
   -1.8202   -1.0288    0.3146 N   0  0  0  0  0  0  0  0  0  0  0  0
   -2.5542   -0.5788   -0.2104 H   0  0  0  0  0  0  0  0  0  0  0  0
   -0.5102   -0.3728    0.3086 C   0  0  1  0  0  0  0  0  0  0  0  0
    0.2628   -1.1368    0.2142 H   0  0  0  0  0  0  0  0  0  0  0  0
   -0.4165    0.5566   -0.9157 C   0  0  0  0  0  0  0  0  0  0  0  0
   -1.2355    1.2772   -0.8808 H   0  0  0  0  0  0  0  0  0  0  0  0
    0.5218    1.1124   -0.8693 H   0  0  0  0  0  0  0  0  0  0  0  0
   -0.4754   -0.1726   -2.2329 C   0  0  0  0  0  0  0  0  0  0  0  0
    0.5373   -0.9164   -2.7996 N   0  0  0  0  0  0  0  0  0  0  0  0
    1.4776   -1.0086   -2.4454 H   0  0  0  0  0  0  0  0  0  0  0  0
    0.0552   -1.4950   -3.9124 C   0  0  0  0  0  0  0  0  0  0  0  0
    0.6184   -2.1375   -4.5782 H   0  0  0  0  0  0  0  0  0  0  0  0
   -1.2336   -1.1672   -4.0853 N   0  0  0  0  0  0  0  0  0  0  0  0
   -1.5810   -0.3239   -3.0267 C   0  0  0  0  0  0  0  0  0  0  0  0
   -2.5583    0.1042   -2.8450 H   0  0  0  0  0  0  0  0  0  0  0  0
   -0.2695    0.3795    1.6284 C   0  0  0  0  0  0  0  0  0  0  0  0
    0.8654    0.7434    1.9353 O   0  0  0  0  0  0  0  0  0  0  0  0
   -1.3305    0.5969    2.4156 N   0  0  0  0  0  0  0  0  0  0  0  0
   -2.2188    0.2198    2.1196 H   0  0  0  0  0  0  0  0  0  0  0  0
   -1.2784    1.2986    3.6955 C   0  0  0  0  0  0  0  0  0  0  0  0
   -0.9065    2.3146    3.5449 H   0  0  0  0  0  0  0  0  0  0  0  0
   -2.2734    1.3430    4.1393 H   0  0  0  0  0  0  0  0  0  0  0  0
   -0.6032    0.7784    4.3765 H   0  0  0  0  0  0  0  0  0  0  0  0
  5  6  2  0  0  0  0
  5  7  1  0  0  0  0
  2  3  1  0  0  0  0
  2  4  1  0  0  0  0
  2  5  1  0  0  0  0
  1  2  1  0  0  0  0
 22 23  2  0  0  0  0
 22 24  1  0  0  0  0
 20 21  1  0  0  0  0
 19 20  1  0  0  0  0
 17 18  1  0  0  0  0
 17 19  2  0  0  0  0
 15 16  1  0  0  0  0
 15 17  1  0  0  0  0
 14 15  1  0  0  0  0
 14 20  2  0  0  0  0
 11 12  1  0  0  0  0
 11 13  1  0  0  0  0
 11 14  1  0  0  0  0
  9 10  1  0  0  0  0
  9 11  1  0  0  0  0
  9 22  1  0  0  0  0
  7  8  1  0  0  0  0
  7  9  1  0  0  0  0
 26 27  1  0  0  0  0
 26 28  1  0  0  0  0
 26 29  1  0  0  0  0
 24 25  1  0  0  0  0
 24 26  1  0  0  0  0
M  END
$$$$
default_name
  -OEChem-01062215323D

 29 29  0     1  0  0  0  0  0999 V2000
   -3.6042   -3.5728    1.4576 H   0  0  0  0  0  0  0  0  0  0  0  0
   -3.5202   -2.6488    0.8866 C   0  0  0  0  0  0  0  0  0  0  0  0
   -4.2052   -1.9048    1.2896 H   0  0  0  0  0  0  0  0  0  0  0  0
   -3.7552   -2.8428   -0.1584 H   0  0  0  0  0  0  0  0  0  0  0  0
   -2.1052   -2.1358    0.9946 C   0  0  0  0  0  0  0  0  0  0  0  0
   -1.2852   -2.7288    1.6826 O   0  0  0  0  0  0  0  0  0  0  0  0
   -1.8202   -1.0288    0.3146 N   0  0  0  0  0  0  0  0  0  0  0  0
   -2.5542   -0.5788   -0.2104 H   0  0  0  0  0  0  0  0  0  0  0  0
   -0.5102   -0.3728    0.3086 C   0  0  1  0  0  0  0  0  0  0  0  0
    0.2628   -1.1368    0.2142 H   0  0  0  0  0  0  0  0  0  0  0  0
   -0.4165    0.5566   -0.9157 C   0  0  0  0  0  0  0  0  0  0  0  0
   -1.2355    1.2772   -0.8808 H   0  0  0  0  0  0  0  0  0  0  0  0
    0.5218    1.1124   -0.8693 H   0  0  0  0  0  0  0  0  0  0  0  0
   -0.4754   -0.1726   -2.2329 C   0  0  0  0  0  0  0  0  0  0  0  0
    0.5373   -0.9164   -2.7996 N   0  0  0  0  0  0  0  0  0  0  0  0
    1.4776   -1.0086   -2.4454 H   0  0  0  0  0  0  0  0  0  0  0  0
    0.0552   -1.4950   -3.9124 C   0  0  0  0  0  0  0  0  0  0  0  0
    0.6184   -2.1375   -4.5782 H   0  0  0  0  0  0  0  0  0  0  0  0
   -1.2336   -1.1672   -4.0853 N   0  0  0  0  0  0  0  0  0  0  0  0
   -1.5810   -0.3239   -3.0267 C   0  0  0  0  0  0  0  0  0  0  0  0
   -2.5583    0.1042   -2.8450 H   0  0  0  0  0  0  0  0  0  0  0  0
   -0.2695    0.3795    1.6284 C   0  0  0  0  0  0  0  0  0  0  0  0
    0.7881    0.9810    1.8140 O   0  0  0  0  0  0  0  0  0  0  0  0
   -1.2397    0.3323    2.5499 N   0  0  0  0  0  0  0  0  0  0  0  0
   -2.0546   -0.2269    2.3443 H   0  0  0  0  0  0  0  0  0  0  0  0
   -1.1755    0.9939    3.8504 C   0  0  0  0  0  0  0  0  0  0  0  0
   -1.0587    2.0711    3.7114 H   0  0  0  0  0  0  0  0  0  0  0  0
   -2.0890    0.8020    4.4141 H   0  0  0  0  0  0  0  0  0  0  0  0
   -0.3192    0.6210    4.4144 H   0  0  0  0  0  0  0  0  0  0  0  0
  5  6  2  0  0  0  0
  5  7  1  0  0  0  0
  2  3  1  0  0  0  0
  2  4  1  0  0  0  0
  2  5  1  0  0  0  0
  1  2  1  0  0  0  0
 22 23  2  0  0  0  0
 22 24  1  0  0  0  0
 20 21  1  0  0  0  0
 19 20  1  0  0  0  0
 17 18  1  0  0  0  0
 17 19  2  0  0  0  0
 15 16  1  0  0  0  0
 15 17  1  0  0  0  0
 14 15  1  0  0  0  0
 14 20  2  0  0  0  0
 11 12  1  0  0  0  0
 11 13  1  0  0  0  0
 11 14  1  0  0  0  0
  9 10  1  0  0  0  0
  9 11  1  0  0  0  0
  9 22  1  0  0  0  0
  7  8  1  0  0  0  0
  7  9  1  0  0  0  0
 26 27  1  0  0  0  0
 26 28  1  0  0  0  0
 26 29  1  0  0  0  0
 24 25  1  0  0  0  0
 24 26  1  0  0  0  0
M  END
$$$$
default_name
  -OEChem-01062215323D

 29 29  0     1  0  0  0  0  0999 V2000
   -3.6042   -3.5728    1.4576 H   0  0  0  0  0  0  0  0  0  0  0  0
   -3.5202   -2.6488    0.8866 C   0  0  0  0  0  0  0  0  0  0  0  0
   -4.2052   -1.9048    1.2896 H   0  0  0  0  0  0  0  0  0  0  0  0
   -3.7552   -2.8428   -0.1584 H   0  0  0  0  0  0  0  0  0  0  0  0
   -2.1052   -2.1358    0.9946 C   0  0  0  0  0  0  0  0  0  0  0  0
   -1.2852   -2.7288    1.6826 O   0  0  0  0  0  0  0  0  0  0  0  0
   -1.8202   -1.0288    0.3146 N   0  0  0  0  0  0  0  0  0  0  0  0
   -2.5542   -0.5788   -0.2104 H   0  0  0  0  0  0  0  0  0  0  0  0
   -0.5102   -0.3728    0.3086 C   0  0  1  0  0  0  0  0  0  0  0  0
    0.2628   -1.1368    0.2142 H   0  0  0  0  0  0  0  0  0  0  0  0
   -0.4165    0.5566   -0.9157 C   0  0  0  0  0  0  0  0  0  0  0  0
   -1.2355    1.2772   -0.8808 H   0  0  0  0  0  0  0  0  0  0  0  0
    0.5218    1.1124   -0.8693 H   0  0  0  0  0  0  0  0  0  0  0  0
   -0.4754   -0.1726   -2.2329 C   0  0  0  0  0  0  0  0  0  0  0  0
    0.5373   -0.9164   -2.7996 N   0  0  0  0  0  0  0  0  0  0  0  0
    1.4776   -1.0086   -2.4454 H   0  0  0  0  0  0  0  0  0  0  0  0
    0.0552   -1.4950   -3.9124 C   0  0  0  0  0  0  0  0  0  0  0  0
    0.6184   -2.1375   -4.5782 H   0  0  0  0  0  0  0  0  0  0  0  0
   -1.2336   -1.1672   -4.0853 N   0  0  0  0  0  0  0  0  0  0  0  0
   -1.5810   -0.3239   -3.0267 C   0  0  0  0  0  0  0  0  0  0  0  0
   -2.5583    0.1042   -2.8450 H   0  0  0  0  0  0  0  0  0  0  0  0
   -0.2695    0.3795    1.6284 C   0  0  0  0  0  0  0  0  0  0  0  0
    0.6453    1.1982    1.7163 O   0  0  0  0  0  0  0  0  0  0  0  0
   -1.0762    0.0914    2.6574 N   0  0  0  0  0  0  0  0  0  0  0  0
   -1.7682   -0.6310    2.5224 H   0  0  0  0  0  0  0  0  0  0  0  0
   -0.9888    0.7162    3.9746 C   0  0  0  0  0  0  0  0  0  0  0  0
   -1.1305    1.7953    3.8817 H   0  0  0  0  0  0  0  0  0  0  0  0
   -1.7558    0.3093    4.6342 H   0  0  0  0  0  0  0  0  0  0  0  0
   -0.0051    0.5306    4.4087 H   0  0  0  0  0  0  0  0  0  0  0  0
  5  6  2  0  0  0  0
  5  7  1  0  0  0  0
  2  3  1  0  0  0  0
  2  4  1  0  0  0  0
  2  5  1  0  0  0  0
  1  2  1  0  0  0  0
 22 23  2  0  0  0  0
 22 24  1  0  0  0  0
 20 21  1  0  0  0  0
 19 20  1  0  0  0  0
 17 18  1  0  0  0  0
 17 19  2  0  0  0  0
 15 16  1  0  0  0  0
 15 17  1  0  0  0  0
 14 15  1  0  0  0  0
 14 20  2  0  0  0  0
 11 12  1  0  0  0  0
 11 13  1  0  0  0  0
 11 14  1  0  0  0  0
  9 10  1  0  0  0  0
  9 11  1  0  0  0  0
  9 22  1  0  0  0  0
  7  8  1  0  0  0  0
  7  9  1  0  0  0  0
 26 27  1  0  0  0  0
 26 28  1  0  0  0  0
 26 29  1  0  0  0  0
 24 25  1  0  0  0  0
 24 26  1  0  0  0  0
M  END
$$$$
default_name
  -OEChem-01062215323D

 29 29  0     1  0  0  0  0  0999 V2000
   -3.6042   -3.5728    1.4576 H   0  0  0  0  0  0  0  0  0  0  0  0
   -3.5202   -2.6488    0.8866 C   0  0  0  0  0  0  0  0  0  0  0  0
   -4.2052   -1.9048    1.2896 H   0  0  0  0  0  0  0  0  0  0  0  0
   -3.7552   -2.8428   -0.1584 H   0  0  0  0  0  0  0  0  0  0  0  0
   -2.1052   -2.1358    0.9946 C   0  0  0  0  0  0  0  0  0  0  0  0
   -1.2852   -2.7288    1.6826 O   0  0  0  0  0  0  0  0  0  0  0  0
   -1.8202   -1.0288    0.3146 N   0  0  0  0  0  0  0  0  0  0  0  0
   -2.5542   -0.5788   -0.2104 H   0  0  0  0  0  0  0  0  0  0  0  0
   -0.5102   -0.3728    0.3086 C   0  0  1  0  0  0  0  0  0  0  0  0
    0.2628   -1.1368    0.2142 H   0  0  0  0  0  0  0  0  0  0  0  0
   -0.4165    0.5566   -0.9157 C   0  0  0  0  0  0  0  0  0  0  0  0
   -1.2355    1.2772   -0.8808 H   0  0  0  0  0  0  0  0  0  0  0  0
    0.5218    1.1124   -0.8693 H   0  0  0  0  0  0  0  0  0  0  0  0
   -0.4754   -0.1726   -2.2329 C   0  0  0  0  0  0  0  0  0  0  0  0
    0.5373   -0.9164   -2.7996 N   0  0  0  0  0  0  0  0  0  0  0  0
    1.4776   -1.0086   -2.4454 H   0  0  0  0  0  0  0  0  0  0  0  0
    0.0552   -1.4950   -3.9124 C   0  0  0  0  0  0  0  0  0  0  0  0
    0.6184   -2.1375   -4.5782 H   0  0  0  0  0  0  0  0  0  0  0  0
   -1.2336   -1.1672   -4.0853 N   0  0  0  0  0  0  0  0  0  0  0  0
   -1.5810   -0.3239   -3.0267 C   0  0  0  0  0  0  0  0  0  0  0  0
   -2.5583    0.1042   -2.8450 H   0  0  0  0  0  0  0  0  0  0  0  0
   -0.2695    0.3795    1.6284 C   0  0  0  0  0  0  0  0  0  0  0  0
    0.4467    1.3802    1.6487 O   0  0  0  0  0  0  0  0  0  0  0  0
   -0.8512   -0.1094    2.7308 N   0  0  0  0  0  0  0  0  0  0  0  0
   -1.3794   -0.9650    2.6418 H   0  0  0  0  0  0  0  0  0  0  0  0
   -0.7311    0.4844    4.0597 C   0  0  0  0  0  0  0  0  0  0  0  0
   -1.1171    1.5061    4.0441 H   0  0  0  0  0  0  0  0  0  0  0  0
   -1.2968   -0.1016    4.7847 H   0  0  0  0  0  0  0  0  0  0  0  0
    0.3176    0.5133    4.3597 H   0  0  0  0  0  0  0  0  0  0  0  0
  5  6  2  0  0  0  0
  5  7  1  0  0  0  0
  2  3  1  0  0  0  0
  2  4  1  0  0  0  0
  2  5  1  0  0  0  0
  1  2  1  0  0  0  0
 22 23  2  0  0  0  0
 22 24  1  0  0  0  0
 20 21  1  0  0  0  0
 19 20  1  0  0  0  0
 17 18  1  0  0  0  0
 17 19  2  0  0  0  0
 15 16  1  0  0  0  0
 15 17  1  0  0  0  0
 14 15  1  0  0  0  0
 14 20  2  0  0  0  0
 11 12  1  0  0  0  0
 11 13  1  0  0  0  0
 11 14  1  0  0  0  0
  9 10  1  0  0  0  0
  9 11  1  0  0  0  0
  9 22  1  0  0  0  0
  7  8  1  0  0  0  0
  7  9  1  0  0  0  0
 26 27  1  0  0  0  0
 26 28  1  0  0  0  0
 26 29  1  0  0  0  0
 24 25  1  0  0  0  0
 24 26  1  0  0  0  0
M  END
$$$$
default_name
  -OEChem-01062215323D

 29 29  0     1  0  0  0  0  0999 V2000
   -3.6042   -3.5728    1.4576 H   0  0  0  0  0  0  0  0  0  0  0  0
   -3.5202   -2.6488    0.8866 C   0  0  0  0  0  0  0  0  0  0  0  0
   -4.2052   -1.9048    1.2896 H   0  0  0  0  0  0  0  0  0  0  0  0
   -3.7552   -2.8428   -0.1584 H   0  0  0  0  0  0  0  0  0  0  0  0
   -2.1052   -2.1358    0.9946 C   0  0  0  0  0  0  0  0  0  0  0  0
   -1.2852   -2.7288    1.6826 O   0  0  0  0  0  0  0  0  0  0  0  0
   -1.8202   -1.0288    0.3146 N   0  0  0  0  0  0  0  0  0  0  0  0
   -2.5542   -0.5788   -0.2104 H   0  0  0  0  0  0  0  0  0  0  0  0
   -0.5102   -0.3728    0.3086 C   0  0  1  0  0  0  0  0  0  0  0  0
    0.2628   -1.1368    0.2142 H   0  0  0  0  0  0  0  0  0  0  0  0
   -0.4165    0.5566   -0.9157 C   0  0  0  0  0  0  0  0  0  0  0  0
   -1.2355    1.2772   -0.8808 H   0  0  0  0  0  0  0  0  0  0  0  0
    0.5218    1.1124   -0.8693 H   0  0  0  0  0  0  0  0  0  0  0  0
   -0.4754   -0.1726   -2.2329 C   0  0  0  0  0  0  0  0  0  0  0  0
    0.5373   -0.9164   -2.7996 N   0  0  0  0  0  0  0  0  0  0  0  0
    1.4776   -1.0086   -2.4454 H   0  0  0  0  0  0  0  0  0  0  0  0
    0.0552   -1.4950   -3.9124 C   0  0  0  0  0  0  0  0  0  0  0  0
    0.6184   -2.1375   -4.5782 H   0  0  0  0  0  0  0  0  0  0  0  0
   -1.2336   -1.1672   -4.0853 N   0  0  0  0  0  0  0  0  0  0  0  0
   -1.5810   -0.3239   -3.0267 C   0  0  0  0  0  0  0  0  0  0  0  0
   -2.5583    0.1042   -2.8450 H   0  0  0  0  0  0  0  0  0  0  0  0
   -0.2695    0.3795    1.6284 C   0  0  0  0  0  0  0  0  0  0  0  0
    0.2059    1.5147    1.6160 O   0  0  0  0  0  0  0  0  0  0  0  0
   -0.5800   -0.2563    2.7650 N   0  0  0  0  0  0  0  0  0  0  0  0
   -0.9145   -1.2061    2.6945 H   0  0  0  0  0  0  0  0  0  0  0  0
   -0.4199    0.3143    4.1000 C   0  0  0  0  0  0  0  0  0  0  0  0
   -1.0193    1.2232    4.1875 H   0  0  0  0  0  0  0  0  0  0  0  0
   -0.7430   -0.4027    4.8553 H   0  0  0  0  0  0  0  0  0  0  0  0
    0.6269    0.5702    4.2709 H   0  0  0  0  0  0  0  0  0  0  0  0
  5  6  2  0  0  0  0
  5  7  1  0  0  0  0
  2  3  1  0  0  0  0
  2  4  1  0  0  0  0
  2  5  1  0  0  0  0
  1  2  1  0  0  0  0
 22 23  2  0  0  0  0
 22 24  1  0  0  0  0
 20 21  1  0  0  0  0
 19 20  1  0  0  0  0
 17 18  1  0  0  0  0
 17 19  2  0  0  0  0
 15 16  1  0  0  0  0
 15 17  1  0  0  0  0
 14 15  1  0  0  0  0
 14 20  2  0  0  0  0
 11 12  1  0  0  0  0
 11 13  1  0  0  0  0
 11 14  1  0  0  0  0
  9 10  1  0  0  0  0
  9 11  1  0  0  0  0
  9 22  1  0  0  0  0
  7  8  1  0  0  0  0
  7  9  1  0  0  0  0
 26 27  1  0  0  0  0
 26 28  1  0  0  0  0
 26 29  1  0  0  0  0
 24 25  1  0  0  0  0
 24 26  1  0  0  0  0
M  END
$$$$
default_name
  -OEChem-01062215323D

 29 29  0     1  0  0  0  0  0999 V2000
   -3.6042   -3.5728    1.4576 H   0  0  0  0  0  0  0  0  0  0  0  0
   -3.5202   -2.6488    0.8866 C   0  0  0  0  0  0  0  0  0  0  0  0
   -4.2052   -1.9048    1.2896 H   0  0  0  0  0  0  0  0  0  0  0  0
   -3.7552   -2.8428   -0.1584 H   0  0  0  0  0  0  0  0  0  0  0  0
   -2.1052   -2.1358    0.9946 C   0  0  0  0  0  0  0  0  0  0  0  0
   -1.2852   -2.7288    1.6826 O   0  0  0  0  0  0  0  0  0  0  0  0
   -1.8202   -1.0288    0.3146 N   0  0  0  0  0  0  0  0  0  0  0  0
   -2.5542   -0.5788   -0.2104 H   0  0  0  0  0  0  0  0  0  0  0  0
   -0.5102   -0.3728    0.3086 C   0  0  1  0  0  0  0  0  0  0  0  0
    0.2628   -1.1368    0.2142 H   0  0  0  0  0  0  0  0  0  0  0  0
   -0.4165    0.5566   -0.9157 C   0  0  0  0  0  0  0  0  0  0  0  0
   -1.2355    1.2772   -0.8808 H   0  0  0  0  0  0  0  0  0  0  0  0
    0.5218    1.1124   -0.8693 H   0  0  0  0  0  0  0  0  0  0  0  0
   -0.4754   -0.1726   -2.2329 C   0  0  0  0  0  0  0  0  0  0  0  0
    0.5373   -0.9164   -2.7996 N   0  0  0  0  0  0  0  0  0  0  0  0
    1.4776   -1.0086   -2.4454 H   0  0  0  0  0  0  0  0  0  0  0  0
    0.0552   -1.4950   -3.9124 C   0  0  0  0  0  0  0  0  0  0  0  0
    0.6184   -2.1375   -4.5782 H   0  0  0  0  0  0  0  0  0  0  0  0
   -1.2336   -1.1672   -4.0853 N   0  0  0  0  0  0  0  0  0  0  0  0
   -1.5810   -0.3239   -3.0267 C   0  0  0  0  0  0  0  0  0  0  0  0
   -2.5583    0.1042   -2.8450 H   0  0  0  0  0  0  0  0  0  0  0  0
   -0.2695    0.3795    1.6284 C   0  0  0  0  0  0  0  0  0  0  0  0
   -0.0606    1.5924    1.6203 O   0  0  0  0  0  0  0  0  0  0  0  0
   -0.2810   -0.3393    2.7579 N   0  0  0  0  0  0  0  0  0  0  0  0
   -0.4052   -1.3378    2.6767 H   0  0  0  0  0  0  0  0  0  0  0  0
   -0.0764    0.2174    4.0925 C   0  0  0  0  0  0  0  0  0  0  0  0
   -0.8439    0.9658    4.3023 H   0  0  0  0  0  0  0  0  0  0  0  0
   -0.1324   -0.5734    4.8412 H   0  0  0  0  0  0  0  0  0  0  0  0
    0.9019    0.6974    4.1482 H   0  0  0  0  0  0  0  0  0  0  0  0
  5  6  2  0  0  0  0
  5  7  1  0  0  0  0
  2  3  1  0  0  0  0
  2  4  1  0  0  0  0
  2  5  1  0  0  0  0
  1  2  1  0  0  0  0
 22 23  2  0  0  0  0
 22 24  1  0  0  0  0
 20 21  1  0  0  0  0
 19 20  1  0  0  0  0
 17 18  1  0  0  0  0
 17 19  2  0  0  0  0
 15 16  1  0  0  0  0
 15 17  1  0  0  0  0
 14 15  1  0  0  0  0
 14 20  2  0  0  0  0
 11 12  1  0  0  0  0
 11 13  1  0  0  0  0
 11 14  1  0  0  0  0
  9 10  1  0  0  0  0
  9 11  1  0  0  0  0
  9 22  1  0  0  0  0
  7  8  1  0  0  0  0
  7  9  1  0  0  0  0
 26 27  1  0  0  0  0
 26 28  1  0  0  0  0
 26 29  1  0  0  0  0
 24 25  1  0  0  0  0
 24 26  1  0  0  0  0
M  END
$$$$
default_name
  -OEChem-01062215323D

 29 29  0     1  0  0  0  0  0999 V2000
   -3.6042   -3.5728    1.4576 H   0  0  0  0  0  0  0  0  0  0  0  0
   -3.5202   -2.6488    0.8866 C   0  0  0  0  0  0  0  0  0  0  0  0
   -4.2052   -1.9048    1.2896 H   0  0  0  0  0  0  0  0  0  0  0  0
   -3.7552   -2.8428   -0.1584 H   0  0  0  0  0  0  0  0  0  0  0  0
   -2.1052   -2.1358    0.9946 C   0  0  0  0  0  0  0  0  0  0  0  0
   -1.2852   -2.7288    1.6826 O   0  0  0  0  0  0  0  0  0  0  0  0
   -1.8202   -1.0288    0.3146 N   0  0  0  0  0  0  0  0  0  0  0  0
   -2.5542   -0.5788   -0.2104 H   0  0  0  0  0  0  0  0  0  0  0  0
   -0.5102   -0.3728    0.3086 C   0  0  1  0  0  0  0  0  0  0  0  0
    0.2628   -1.1368    0.2142 H   0  0  0  0  0  0  0  0  0  0  0  0
   -0.4165    0.5566   -0.9157 C   0  0  0  0  0  0  0  0  0  0  0  0
   -1.2355    1.2772   -0.8808 H   0  0  0  0  0  0  0  0  0  0  0  0
    0.5218    1.1124   -0.8693 H   0  0  0  0  0  0  0  0  0  0  0  0
   -0.4754   -0.1726   -2.2329 C   0  0  0  0  0  0  0  0  0  0  0  0
    0.5373   -0.9164   -2.7996 N   0  0  0  0  0  0  0  0  0  0  0  0
    1.4776   -1.0086   -2.4454 H   0  0  0  0  0  0  0  0  0  0  0  0
    0.0552   -1.4950   -3.9124 C   0  0  0  0  0  0  0  0  0  0  0  0
    0.6184   -2.1375   -4.5782 H   0  0  0  0  0  0  0  0  0  0  0  0
   -1.2336   -1.1672   -4.0853 N   0  0  0  0  0  0  0  0  0  0  0  0
   -1.5810   -0.3239   -3.0267 C   0  0  0  0  0  0  0  0  0  0  0  0
   -2.5583    0.1042   -2.8450 H   0  0  0  0  0  0  0  0  0  0  0  0
   -0.2695    0.3795    1.6284 C   0  0  0  0  0  0  0  0  0  0  0  0
   -0.3348    1.6081    1.6614 O   0  0  0  0  0  0  0  0  0  0  0  0
    0.0253   -0.3529    2.7097 N   0  0  0  0  0  0  0  0  0  0  0  0
    0.1137   -1.3512    2.5897 H   0  0  0  0  0  0  0  0  0  0  0  0
    0.2760    0.2005    4.0379 C   0  0  0  0  0  0  0  0  0  0  0  0
   -0.6028    0.7515    4.3804 H   0  0  0  0  0  0  0  0  0  0  0  0
    0.4936   -0.6020    4.7434 H   0  0  0  0  0  0  0  0  0  0  0  0
    1.1237    0.8864    4.0001 H   0  0  0  0  0  0  0  0  0  0  0  0
  5  6  2  0  0  0  0
  5  7  1  0  0  0  0
  2  3  1  0  0  0  0
  2  4  1  0  0  0  0
  2  5  1  0  0  0  0
  1  2  1  0  0  0  0
 22 23  2  0  0  0  0
 22 24  1  0  0  0  0
 20 21  1  0  0  0  0
 19 20  1  0  0  0  0
 17 18  1  0  0  0  0
 17 19  2  0  0  0  0
 15 16  1  0  0  0  0
 15 17  1  0  0  0  0
 14 15  1  0  0  0  0
 14 20  2  0  0  0  0
 11 12  1  0  0  0  0
 11 13  1  0  0  0  0
 11 14  1  0  0  0  0
  9 10  1  0  0  0  0
  9 11  1  0  0  0  0
  9 22  1  0  0  0  0
  7  8  1  0  0  0  0
  7  9  1  0  0  0  0
 26 27  1  0  0  0  0
 26 28  1  0  0  0  0
 26 29  1  0  0  0  0
 24 25  1  0  0  0  0
 24 26  1  0  0  0  0
M  END
$$$$
default_name
  -OEChem-01062215323D

 29 29  0     1  0  0  0  0  0999 V2000
   -3.6042   -3.5728    1.4576 H   0  0  0  0  0  0  0  0  0  0  0  0
   -3.5202   -2.6488    0.8866 C   0  0  0  0  0  0  0  0  0  0  0  0
   -4.2052   -1.9048    1.2896 H   0  0  0  0  0  0  0  0  0  0  0  0
   -3.7552   -2.8428   -0.1584 H   0  0  0  0  0  0  0  0  0  0  0  0
   -2.1052   -2.1358    0.9946 C   0  0  0  0  0  0  0  0  0  0  0  0
   -1.2852   -2.7288    1.6826 O   0  0  0  0  0  0  0  0  0  0  0  0
   -1.8202   -1.0288    0.3146 N   0  0  0  0  0  0  0  0  0  0  0  0
   -2.5542   -0.5788   -0.2104 H   0  0  0  0  0  0  0  0  0  0  0  0
   -0.5102   -0.3728    0.3086 C   0  0  1  0  0  0  0  0  0  0  0  0
    0.2628   -1.1368    0.2142 H   0  0  0  0  0  0  0  0  0  0  0  0
   -0.4165    0.5566   -0.9157 C   0  0  0  0  0  0  0  0  0  0  0  0
   -1.2355    1.2772   -0.8808 H   0  0  0  0  0  0  0  0  0  0  0  0
    0.5218    1.1124   -0.8693 H   0  0  0  0  0  0  0  0  0  0  0  0
   -0.4754   -0.1726   -2.2329 C   0  0  0  0  0  0  0  0  0  0  0  0
    0.5373   -0.9164   -2.7996 N   0  0  0  0  0  0  0  0  0  0  0  0
    1.4776   -1.0086   -2.4454 H   0  0  0  0  0  0  0  0  0  0  0  0
    0.0552   -1.4950   -3.9124 C   0  0  0  0  0  0  0  0  0  0  0  0
    0.6184   -2.1375   -4.5782 H   0  0  0  0  0  0  0  0  0  0  0  0
   -1.2336   -1.1672   -4.0853 N   0  0  0  0  0  0  0  0  0  0  0  0
   -1.5810   -0.3239   -3.0267 C   0  0  0  0  0  0  0  0  0  0  0  0
   -2.5583    0.1042   -2.8450 H   0  0  0  0  0  0  0  0  0  0  0  0
   -0.2695    0.3795    1.6284 C   0  0  0  0  0  0  0  0  0  0  0  0
   -0.5980    1.5607    1.7364 O   0  0  0  0  0  0  0  0  0  0  0  0
    0.3180   -0.2960    2.6239 N   0  0  0  0  0  0  0  0  0  0  0  0
    0.6069   -1.2455    2.4395 H   0  0  0  0  0  0  0  0  0  0  0  0
    0.6132    0.2645    3.9399 C   0  0  0  0  0  0  0  0  0  0  0  0
   -0.3124    0.5948    4.4168 H   0  0  0  0  0  0  0  0  0  0  0  0
    1.0922   -0.4867    4.5685 H   0  0  0  0  0  0  0  0  0  0  0  0
    1.2772    1.1241    3.8365 H   0  0  0  0  0  0  0  0  0  0  0  0
  5  6  2  0  0  0  0
  5  7  1  0  0  0  0
  2  3  1  0  0  0  0
  2  4  1  0  0  0  0
  2  5  1  0  0  0  0
  1  2  1  0  0  0  0
 22 23  2  0  0  0  0
 22 24  1  0  0  0  0
 20 21  1  0  0  0  0
 19 20  1  0  0  0  0
 17 18  1  0  0  0  0
 17 19  2  0  0  0  0
 15 16  1  0  0  0  0
 15 17  1  0  0  0  0
 14 15  1  0  0  0  0
 14 20  2  0  0  0  0
 11 12  1  0  0  0  0
 11 13  1  0  0  0  0
 11 14  1  0  0  0  0
  9 10  1  0  0  0  0
  9 11  1  0  0  0  0
  9 22  1  0  0  0  0
  7  8  1  0  0  0  0
  7  9  1  0  0  0  0
 26 27  1  0  0  0  0
 26 28  1  0  0  0  0
 26 29  1  0  0  0  0
 24 25  1  0  0  0  0
 24 26  1  0  0  0  0
M  END
$$$$
default_name
  -OEChem-01062215323D

 29 29  0     1  0  0  0  0  0999 V2000
   -3.6042   -3.5728    1.4576 H   0  0  0  0  0  0  0  0  0  0  0  0
   -3.5202   -2.6488    0.8866 C   0  0  0  0  0  0  0  0  0  0  0  0
   -4.2052   -1.9048    1.2896 H   0  0  0  0  0  0  0  0  0  0  0  0
   -3.7552   -2.8428   -0.1584 H   0  0  0  0  0  0  0  0  0  0  0  0
   -2.1052   -2.1358    0.9946 C   0  0  0  0  0  0  0  0  0  0  0  0
   -1.2852   -2.7288    1.6826 O   0  0  0  0  0  0  0  0  0  0  0  0
   -1.8202   -1.0288    0.3146 N   0  0  0  0  0  0  0  0  0  0  0  0
   -2.5542   -0.5788   -0.2104 H   0  0  0  0  0  0  0  0  0  0  0  0
   -0.5102   -0.3728    0.3086 C   0  0  1  0  0  0  0  0  0  0  0  0
    0.2628   -1.1368    0.2142 H   0  0  0  0  0  0  0  0  0  0  0  0
   -0.4165    0.5566   -0.9157 C   0  0  0  0  0  0  0  0  0  0  0  0
   -1.2355    1.2772   -0.8808 H   0  0  0  0  0  0  0  0  0  0  0  0
    0.5218    1.1124   -0.8693 H   0  0  0  0  0  0  0  0  0  0  0  0
   -0.4754   -0.1726   -2.2329 C   0  0  0  0  0  0  0  0  0  0  0  0
    0.5373   -0.9164   -2.7996 N   0  0  0  0  0  0  0  0  0  0  0  0
    1.4776   -1.0086   -2.4454 H   0  0  0  0  0  0  0  0  0  0  0  0
    0.0552   -1.4950   -3.9124 C   0  0  0  0  0  0  0  0  0  0  0  0
    0.6184   -2.1375   -4.5782 H   0  0  0  0  0  0  0  0  0  0  0  0
   -1.2336   -1.1672   -4.0853 N   0  0  0  0  0  0  0  0  0  0  0  0
   -1.5810   -0.3239   -3.0267 C   0  0  0  0  0  0  0  0  0  0  0  0
   -2.5583    0.1042   -2.8450 H   0  0  0  0  0  0  0  0  0  0  0  0
   -0.2695    0.3795    1.6284 C   0  0  0  0  0  0  0  0  0  0  0  0
   -0.8322    1.4535    1.8402 O   0  0  0  0  0  0  0  0  0  0  0  0
    0.5773   -0.1725    2.5062 N   0  0  0  0  0  0  0  0  0  0  0  0
    1.0408   -1.0276    2.2362 H   0  0  0  0  0  0  0  0  0  0  0  0
    0.9122    0.4053    3.8051 C   0  0  0  0  0  0  0  0  0  0  0  0
    0.0075    0.5066    4.4087 H   0  0  0  0  0  0  0  0  0  0  0  0
    1.6227   -0.2353    4.3284 H   0  0  0  0  0  0  0  0  0  0  0  0
    1.3520    1.3945    3.6688 H   0  0  0  0  0  0  0  0  0  0  0  0
  5  6  2  0  0  0  0
  5  7  1  0  0  0  0
  2  3  1  0  0  0  0
  2  4  1  0  0  0  0
  2  5  1  0  0  0  0
  1  2  1  0  0  0  0
 22 23  2  0  0  0  0
 22 24  1  0  0  0  0
 20 21  1  0  0  0  0
 19 20  1  0  0  0  0
 17 18  1  0  0  0  0
 17 19  2  0  0  0  0
 15 16  1  0  0  0  0
 15 17  1  0  0  0  0
 14 15  1  0  0  0  0
 14 20  2  0  0  0  0
 11 12  1  0  0  0  0
 11 13  1  0  0  0  0
 11 14  1  0  0  0  0
  9 10  1  0  0  0  0
  9 11  1  0  0  0  0
  9 22  1  0  0  0  0
  7  8  1  0  0  0  0
  7  9  1  0  0  0  0
 26 27  1  0  0  0  0
 26 28  1  0  0  0  0
 26 29  1  0  0  0  0
 24 25  1  0  0  0  0
 24 26  1  0  0  0  0
M  END
$$$$
default_name
  -OEChem-01062215323D

 29 29  0     1  0  0  0  0  0999 V2000
   -3.6042   -3.5728    1.4576 H   0  0  0  0  0  0  0  0  0  0  0  0
   -3.5202   -2.6488    0.8866 C   0  0  0  0  0  0  0  0  0  0  0  0
   -4.2052   -1.9048    1.2896 H   0  0  0  0  0  0  0  0  0  0  0  0
   -3.7552   -2.8428   -0.1584 H   0  0  0  0  0  0  0  0  0  0  0  0
   -2.1052   -2.1358    0.9946 C   0  0  0  0  0  0  0  0  0  0  0  0
   -1.2852   -2.7288    1.6826 O   0  0  0  0  0  0  0  0  0  0  0  0
   -1.8202   -1.0288    0.3146 N   0  0  0  0  0  0  0  0  0  0  0  0
   -2.5542   -0.5788   -0.2104 H   0  0  0  0  0  0  0  0  0  0  0  0
   -0.5102   -0.3728    0.3086 C   0  0  1  0  0  0  0  0  0  0  0  0
    0.2628   -1.1368    0.2142 H   0  0  0  0  0  0  0  0  0  0  0  0
   -0.4165    0.5566   -0.9157 C   0  0  0  0  0  0  0  0  0  0  0  0
   -1.2355    1.2772   -0.8808 H   0  0  0  0  0  0  0  0  0  0  0  0
    0.5218    1.1124   -0.8693 H   0  0  0  0  0  0  0  0  0  0  0  0
   -0.4754   -0.1726   -2.2329 C   0  0  0  0  0  0  0  0  0  0  0  0
    0.5373   -0.9164   -2.7996 N   0  0  0  0  0  0  0  0  0  0  0  0
    1.4776   -1.0086   -2.4454 H   0  0  0  0  0  0  0  0  0  0  0  0
    0.0552   -1.4950   -3.9124 C   0  0  0  0  0  0  0  0  0  0  0  0
    0.6184   -2.1375   -4.5782 H   0  0  0  0  0  0  0  0  0  0  0  0
   -1.2336   -1.1672   -4.0853 N   0  0  0  0  0  0  0  0  0  0  0  0
   -1.5810   -0.3239   -3.0267 C   0  0  0  0  0  0  0  0  0  0  0  0
   -2.5583    0.1042   -2.8450 H   0  0  0  0  0  0  0  0  0  0  0  0
   -0.2695    0.3795    1.6284 C   0  0  0  0  0  0  0  0  0  0  0  0
   -1.0214    1.2937    1.9658 O   0  0  0  0  0  0  0  0  0  0  0  0
    0.7855    0.0091    2.3648 N   0  0  0  0  0  0  0  0  0  0  0  0
    1.3858   -0.7126    1.9937 H   0  0  0  0  0  0  0  0  0  0  0  0
    1.1528    0.6131    3.6428 C   0  0  0  0  0  0  0  0  0  0  0  0
    0.3350    0.4927    4.3569 H   0  0  0  0  0  0  0  0  0  0  0  0
    2.0489    0.1350    4.0396 H   0  0  0  0  0  0  0  0  0  0  0  0
    1.3429    1.6791    3.5082 H   0  0  0  0  0  0  0  0  0  0  0  0
  5  6  2  0  0  0  0
  5  7  1  0  0  0  0
  2  3  1  0  0  0  0
  2  4  1  0  0  0  0
  2  5  1  0  0  0  0
  1  2  1  0  0  0  0
 22 23  2  0  0  0  0
 22 24  1  0  0  0  0
 20 21  1  0  0  0  0
 19 20  1  0  0  0  0
 17 18  1  0  0  0  0
 17 19  2  0  0  0  0
 15 16  1  0  0  0  0
 15 17  1  0  0  0  0
 14 15  1  0  0  0  0
 14 20  2  0  0  0  0
 11 12  1  0  0  0  0
 11 13  1  0  0  0  0
 11 14  1  0  0  0  0
  9 10  1  0  0  0  0
  9 11  1  0  0  0  0
  9 22  1  0  0  0  0
  7  8  1  0  0  0  0
  7  9  1  0  0  0  0
 26 27  1  0  0  0  0
 26 28  1  0  0  0  0
 26 29  1  0  0  0  0
 24 25  1  0  0  0  0
 24 26  1  0  0  0  0
M  END
$$$$
default_name
  -OEChem-01062215323D

 29 29  0     1  0  0  0  0  0999 V2000
   -3.6042   -3.5728    1.4576 H   0  0  0  0  0  0  0  0  0  0  0  0
   -3.5202   -2.6488    0.8866 C   0  0  0  0  0  0  0  0  0  0  0  0
   -4.2052   -1.9048    1.2896 H   0  0  0  0  0  0  0  0  0  0  0  0
   -3.7552   -2.8428   -0.1584 H   0  0  0  0  0  0  0  0  0  0  0  0
   -2.1052   -2.1358    0.9946 C   0  0  0  0  0  0  0  0  0  0  0  0
   -1.2852   -2.7288    1.6826 O   0  0  0  0  0  0  0  0  0  0  0  0
   -1.8202   -1.0288    0.3146 N   0  0  0  0  0  0  0  0  0  0  0  0
   -2.5542   -0.5788   -0.2104 H   0  0  0  0  0  0  0  0  0  0  0  0
   -0.5102   -0.3728    0.3086 C   0  0  1  0  0  0  0  0  0  0  0  0
    0.2628   -1.1368    0.2142 H   0  0  0  0  0  0  0  0  0  0  0  0
   -0.4165    0.5566   -0.9157 C   0  0  0  0  0  0  0  0  0  0  0  0
   -1.2355    1.2772   -0.8808 H   0  0  0  0  0  0  0  0  0  0  0  0
    0.5218    1.1124   -0.8693 H   0  0  0  0  0  0  0  0  0  0  0  0
   -0.4754   -0.1726   -2.2329 C   0  0  0  0  0  0  0  0  0  0  0  0
    0.5373   -0.9164   -2.7996 N   0  0  0  0  0  0  0  0  0  0  0  0
    1.4776   -1.0086   -2.4454 H   0  0  0  0  0  0  0  0  0  0  0  0
    0.0552   -1.4950   -3.9124 C   0  0  0  0  0  0  0  0  0  0  0  0
    0.6184   -2.1375   -4.5782 H   0  0  0  0  0  0  0  0  0  0  0  0
   -1.2336   -1.1672   -4.0853 N   0  0  0  0  0  0  0  0  0  0  0  0
   -1.5810   -0.3239   -3.0267 C   0  0  0  0  0  0  0  0  0  0  0  0
   -2.5583    0.1042   -2.8450 H   0  0  0  0  0  0  0  0  0  0  0  0
   -0.2695    0.3795    1.6284 C   0  0  0  0  0  0  0  0  0  0  0  0
   -1.1528    1.0922    2.1046 O   0  0  0  0  0  0  0  0  0  0  0  0
    0.9283    0.2364    2.2091 N   0  0  0  0  0  0  0  0  0  0  0  0
    1.6184   -0.3220    1.7286 H   0  0  0  0  0  0  0  0  0  0  0  0
    1.3184    0.8739    3.4640 C   0  0  0  0  0  0  0  0  0  0  0  0
    0.6480    0.5541    4.2648 H   0  0  0  0  0  0  0  0  0  0  0  0
    2.3417    0.5991    3.7217 H   0  0  0  0  0  0  0  0  0  0  0  0
    1.2506    1.9585    3.3658 H   0  0  0  0  0  0  0  0  0  0  0  0
  5  6  2  0  0  0  0
  5  7  1  0  0  0  0
  2  3  1  0  0  0  0
  2  4  1  0  0  0  0
  2  5  1  0  0  0  0
  1  2  1  0  0  0  0
 22 23  2  0  0  0  0
 22 24  1  0  0  0  0
 20 21  1  0  0  0  0
 19 20  1  0  0  0  0
 17 18  1  0  0  0  0
 17 19  2  0  0  0  0
 15 16  1  0  0  0  0
 15 17  1  0  0  0  0
 14 15  1  0  0  0  0
 14 20  2  0  0  0  0
 11 12  1  0  0  0  0
 11 13  1  0  0  0  0
 11 14  1  0  0  0  0
  9 10  1  0  0  0  0
  9 11  1  0  0  0  0
  9 22  1  0  0  0  0
  7  8  1  0  0  0  0
  7  9  1  0  0  0  0
 26 27  1  0  0  0  0
 26 28  1  0  0  0  0
 26 29  1  0  0  0  0
 24 25  1  0  0  0  0
 24 26  1  0  0  0  0
M  END
$$$$
default_name
  -OEChem-01062215323D

 29 29  0     1  0  0  0  0  0999 V2000
   -3.6042   -3.5728    1.4576 H   0  0  0  0  0  0  0  0  0  0  0  0
   -3.5202   -2.6488    0.8866 C   0  0  0  0  0  0  0  0  0  0  0  0
   -4.2052   -1.9048    1.2896 H   0  0  0  0  0  0  0  0  0  0  0  0
   -3.7552   -2.8428   -0.1584 H   0  0  0  0  0  0  0  0  0  0  0  0
   -2.1052   -2.1358    0.9946 C   0  0  0  0  0  0  0  0  0  0  0  0
   -1.2852   -2.7288    1.6826 O   0  0  0  0  0  0  0  0  0  0  0  0
   -1.8202   -1.0288    0.3146 N   0  0  0  0  0  0  0  0  0  0  0  0
   -2.5542   -0.5788   -0.2104 H   0  0  0  0  0  0  0  0  0  0  0  0
   -0.5102   -0.3728    0.3086 C   0  0  1  0  0  0  0  0  0  0  0  0
    0.2628   -1.1368    0.2142 H   0  0  0  0  0  0  0  0  0  0  0  0
   -0.4165    0.5566   -0.9157 C   0  0  0  0  0  0  0  0  0  0  0  0
   -1.2355    1.2772   -0.8808 H   0  0  0  0  0  0  0  0  0  0  0  0
    0.5218    1.1124   -0.8693 H   0  0  0  0  0  0  0  0  0  0  0  0
   -0.4754   -0.1726   -2.2329 C   0  0  0  0  0  0  0  0  0  0  0  0
    0.5373   -0.9164   -2.7996 N   0  0  0  0  0  0  0  0  0  0  0  0
    1.4776   -1.0086   -2.4454 H   0  0  0  0  0  0  0  0  0  0  0  0
    0.0552   -1.4950   -3.9124 C   0  0  0  0  0  0  0  0  0  0  0  0
    0.6184   -2.1375   -4.5782 H   0  0  0  0  0  0  0  0  0  0  0  0
   -1.2336   -1.1672   -4.0853 N   0  0  0  0  0  0  0  0  0  0  0  0
   -1.5810   -0.3239   -3.0267 C   0  0  0  0  0  0  0  0  0  0  0  0
   -2.5583    0.1042   -2.8450 H   0  0  0  0  0  0  0  0  0  0  0  0
   -0.2695    0.3795    1.6284 C   0  0  0  0  0  0  0  0  0  0  0  0
   -1.2174    0.8628    2.2471 O   0  0  0  0  0  0  0  0  0  0  0  0
    0.9960    0.4941    2.0499 N   0  0  0  0  0  0  0  0  0  0  0  0
    1.7228    0.1178    1.4589 H   0  0  0  0  0  0  0  0  0  0  0  0
    1.3979    1.1698    3.2808 C   0  0  0  0  0  0  0  0  0  0  0  0
    0.9250    0.6866    4.1388 H   0  0  0  0  0  0  0  0  0  0  0  0
    2.4813    1.1253    3.3963 H   0  0  0  0  0  0  0  0  0  0  0  0
    1.0814    2.2136    3.2513 H   0  0  0  0  0  0  0  0  0  0  0  0
  5  6  2  0  0  0  0
  5  7  1  0  0  0  0
  2  3  1  0  0  0  0
  2  4  1  0  0  0  0
  2  5  1  0  0  0  0
  1  2  1  0  0  0  0
 22 23  2  0  0  0  0
 22 24  1  0  0  0  0
 20 21  1  0  0  0  0
 19 20  1  0  0  0  0
 17 18  1  0  0  0  0
 17 19  2  0  0  0  0
 15 16  1  0  0  0  0
 15 17  1  0  0  0  0
 14 15  1  0  0  0  0
 14 20  2  0  0  0  0
 11 12  1  0  0  0  0
 11 13  1  0  0  0  0
 11 14  1  0  0  0  0
  9 10  1  0  0  0  0
  9 11  1  0  0  0  0
  9 22  1  0  0  0  0
  7  8  1  0  0  0  0
  7  9  1  0  0  0  0
 26 27  1  0  0  0  0
 26 28  1  0  0  0  0
 26 29  1  0  0  0  0
 24 25  1  0  0  0  0
 24 26  1  0  0  0  0
M  END
$$$$
default_name
  -OEChem-01062215323D

 29 29  0     1  0  0  0  0  0999 V2000
   -3.6042   -3.5728    1.4576 H   0  0  0  0  0  0  0  0  0  0  0  0
   -3.5202   -2.6488    0.8866 C   0  0  0  0  0  0  0  0  0  0  0  0
   -4.2052   -1.9048    1.2896 H   0  0  0  0  0  0  0  0  0  0  0  0
   -3.7552   -2.8428   -0.1584 H   0  0  0  0  0  0  0  0  0  0  0  0
   -2.1052   -2.1358    0.9946 C   0  0  0  0  0  0  0  0  0  0  0  0
   -1.2852   -2.7288    1.6826 O   0  0  0  0  0  0  0  0  0  0  0  0
   -1.8202   -1.0288    0.3146 N   0  0  0  0  0  0  0  0  0  0  0  0
   -2.5542   -0.5788   -0.2104 H   0  0  0  0  0  0  0  0  0  0  0  0
   -0.5102   -0.3728    0.3086 C   0  0  1  0  0  0  0  0  0  0  0  0
    0.2628   -1.1368    0.2142 H   0  0  0  0  0  0  0  0  0  0  0  0
   -0.4165    0.5566   -0.9157 C   0  0  0  0  0  0  0  0  0  0  0  0
   -1.2355    1.2772   -0.8808 H   0  0  0  0  0  0  0  0  0  0  0  0
    0.5218    1.1124   -0.8693 H   0  0  0  0  0  0  0  0  0  0  0  0
   -0.4754   -0.1726   -2.2329 C   0  0  0  0  0  0  0  0  0  0  0  0
    0.5373   -0.9164   -2.7996 N   0  0  0  0  0  0  0  0  0  0  0  0
    1.4776   -1.0086   -2.4454 H   0  0  0  0  0  0  0  0  0  0  0  0
    0.0552   -1.4950   -3.9124 C   0  0  0  0  0  0  0  0  0  0  0  0
    0.6184   -2.1375   -4.5782 H   0  0  0  0  0  0  0  0  0  0  0  0
   -1.2336   -1.1672   -4.0853 N   0  0  0  0  0  0  0  0  0  0  0  0
   -1.5810   -0.3239   -3.0267 C   0  0  0  0  0  0  0  0  0  0  0  0
   -2.5583    0.1042   -2.8450 H   0  0  0  0  0  0  0  0  0  0  0  0
   -0.2695    0.3795    1.6284 C   0  0  0  0  0  0  0  0  0  0  0  0
   -1.2108    0.6210    2.3837 O   0  0  0  0  0  0  0  0  0  0  0  0
    0.9841    0.7644    1.8980 N   0  0  0  0  0  0  0  0  0  0  0  0
    1.6917    0.5767    1.2030 H   0  0  0  0  0  0  0  0  0  0  0  0
    1.3858    1.4807    3.1058 C   0  0  0  0  0  0  0  0  0  0  0  0
    1.1471    0.8813    3.9873 H   0  0  0  0  0  0  0  0  0  0  0  0
    2.4580    1.6778    3.0857 H   0  0  0  0  0  0  0  0  0  0  0  0
    0.8468    2.4271    3.1724 H   0  0  0  0  0  0  0  0  0  0  0  0
  5  6  2  0  0  0  0
  5  7  1  0  0  0  0
  2  3  1  0  0  0  0
  2  4  1  0  0  0  0
  2  5  1  0  0  0  0
  1  2  1  0  0  0  0
 22 23  2  0  0  0  0
 22 24  1  0  0  0  0
 20 21  1  0  0  0  0
 19 20  1  0  0  0  0
 17 18  1  0  0  0  0
 17 19  2  0  0  0  0
 15 16  1  0  0  0  0
 15 17  1  0  0  0  0
 14 15  1  0  0  0  0
 14 20  2  0  0  0  0
 11 12  1  0  0  0  0
 11 13  1  0  0  0  0
 11 14  1  0  0  0  0
  9 10  1  0  0  0  0
  9 11  1  0  0  0  0
  9 22  1  0  0  0  0
  7  8  1  0  0  0  0
  7  9  1  0  0  0  0
 26 27  1  0  0  0  0
 26 28  1  0  0  0  0
 26 29  1  0  0  0  0
 24 25  1  0  0  0  0
 24 26  1  0  0  0  0
M  END
$$$$
default_name
  -OEChem-01062215323D

 29 29  0     1  0  0  0  0  0999 V2000
   -3.6042   -3.5728    1.4576 H   0  0  0  0  0  0  0  0  0  0  0  0
   -3.5202   -2.6488    0.8866 C   0  0  0  0  0  0  0  0  0  0  0  0
   -4.2052   -1.9048    1.2896 H   0  0  0  0  0  0  0  0  0  0  0  0
   -3.7552   -2.8428   -0.1584 H   0  0  0  0  0  0  0  0  0  0  0  0
   -2.1052   -2.1358    0.9946 C   0  0  0  0  0  0  0  0  0  0  0  0
   -1.2852   -2.7288    1.6826 O   0  0  0  0  0  0  0  0  0  0  0  0
   -1.8202   -1.0288    0.3146 N   0  0  0  0  0  0  0  0  0  0  0  0
   -2.5542   -0.5788   -0.2104 H   0  0  0  0  0  0  0  0  0  0  0  0
   -0.5102   -0.3728    0.3086 C   0  0  1  0  0  0  0  0  0  0  0  0
    0.2354   -1.0844   -0.0490 H   0  0  0  0  0  0  0  0  0  0  0  0
   -0.5452    0.8158   -0.6698 C   0  0  0  0  0  0  0  0  0  0  0  0
   -1.3439    1.4984   -0.3744 H   0  0  0  0  0  0  0  0  0  0  0  0
    0.4002    1.3576   -0.6053 H   0  0  0  0  0  0  0  0  0  0  0  0
   -0.7669    0.4107   -2.1040 C   0  0  0  0  0  0  0  0  0  0  0  0
    0.1623   -0.1689   -2.9410 N   0  0  0  0  0  0  0  0  0  0  0  0
    1.1358   -0.3288   -2.7293 H   0  0  0  0  0  0  0  0  0  0  0  0
   -0.4538   -0.4802   -4.0938 C   0  0  0  0  0  0  0  0  0  0  0  0
    0.0190   -0.9440   -4.9509 H   0  0  0  0  0  0  0  0  0  0  0  0
   -1.7490   -0.1375   -4.0355 N   0  0  0  0  0  0  0  0  0  0  0  0
   -1.9591    0.4334   -2.7775 C   0  0  0  0  0  0  0  0  0  0  0  0
   -2.9024    0.7954   -2.3896 H   0  0  0  0  0  0  0  0  0  0  0  0
   -0.1073    0.0565    1.7296 C   0  0  0  0  0  0  0  0  0  0  0  0
   -0.8638   -0.1534    2.6774 O   0  0  0  0  0  0  0  0  0  0  0  0
    1.0728    0.6717    1.8756 N   0  0  0  0  0  0  0  0  0  0  0  0
    1.6116    0.8560    1.0422 H   0  0  0  0  0  0  0  0  0  0  0  0
    1.6082    1.1375    3.1522 C   0  0  0  0  0  0  0  0  0  0  0  0
    1.7155    0.2938    3.8376 H   0  0  0  0  0  0  0  0  0  0  0  0
    2.5823    1.6040    3.0023 H   0  0  0  0  0  0  0  0  0  0  0  0
    0.9261    1.8632    3.5979 H   0  0  0  0  0  0  0  0  0  0  0  0
  5  6  2  0  0  0  0
  5  7  1  0  0  0  0
  2  3  1  0  0  0  0
  2  4  1  0  0  0  0
  2  5  1  0  0  0  0
  1  2  1  0  0  0  0
 22 23  2  0  0  0  0
 22 24  1  0  0  0  0
 20 21  1  0  0  0  0
 19 20  1  0  0  0  0
 17 18  1  0  0  0  0
 17 19  2  0  0  0  0
 15 16  1  0  0  0  0
 15 17  1  0  0  0  0
 14 15  1  0  0  0  0
 14 20  2  0  0  0  0
 11 12  1  0  0  0  0
 11 13  1  0  0  0  0
 11 14  1  0  0  0  0
  9 10  1  0  0  0  0
  9 11  1  0  0  0  0
  9 22  1  0  0  0  0
  7  8  1  0  0  0  0
  7  9  1  0  0  0  0
 26 27  1  0  0  0  0
 26 28  1  0  0  0  0
 26 29  1  0  0  0  0
 24 25  1  0  0  0  0
 24 26  1  0  0  0  0
M  END
$$$$
default_name
  -OEChem-01062215323D

 29 29  0     1  0  0  0  0  0999 V2000
   -3.6042   -3.5728    1.4576 H   0  0  0  0  0  0  0  0  0  0  0  0
   -3.5202   -2.6488    0.8866 C   0  0  0  0  0  0  0  0  0  0  0  0
   -4.2052   -1.9048    1.2896 H   0  0  0  0  0  0  0  0  0  0  0  0
   -3.7552   -2.8428   -0.1584 H   0  0  0  0  0  0  0  0  0  0  0  0
   -2.1052   -2.1358    0.9946 C   0  0  0  0  0  0  0  0  0  0  0  0
   -1.2852   -2.7288    1.6826 O   0  0  0  0  0  0  0  0  0  0  0  0
   -1.8202   -1.0288    0.3146 N   0  0  0  0  0  0  0  0  0  0  0  0
   -2.5542   -0.5788   -0.2104 H   0  0  0  0  0  0  0  0  0  0  0  0
   -0.5102   -0.3728    0.3086 C   0  0  1  0  0  0  0  0  0  0  0  0
    0.2354   -1.0844   -0.0490 H   0  0  0  0  0  0  0  0  0  0  0  0
   -0.5452    0.8158   -0.6698 C   0  0  0  0  0  0  0  0  0  0  0  0
   -1.3439    1.4984   -0.3744 H   0  0  0  0  0  0  0  0  0  0  0  0
    0.4002    1.3576   -0.6053 H   0  0  0  0  0  0  0  0  0  0  0  0
   -0.7669    0.4107   -2.1040 C   0  0  0  0  0  0  0  0  0  0  0  0
    0.1623   -0.1689   -2.9410 N   0  0  0  0  0  0  0  0  0  0  0  0
    1.1358   -0.3288   -2.7293 H   0  0  0  0  0  0  0  0  0  0  0  0
   -0.4538   -0.4802   -4.0938 C   0  0  0  0  0  0  0  0  0  0  0  0
    0.0190   -0.9440   -4.9509 H   0  0  0  0  0  0  0  0  0  0  0  0
   -1.7490   -0.1375   -4.0355 N   0  0  0  0  0  0  0  0  0  0  0  0
   -1.9591    0.4334   -2.7775 C   0  0  0  0  0  0  0  0  0  0  0  0
   -2.9024    0.7954   -2.3896 H   0  0  0  0  0  0  0  0  0  0  0  0
   -0.1073    0.0565    1.7296 C   0  0  0  0  0  0  0  0  0  0  0  0
   -0.7139   -0.3855    2.7050 O   0  0  0  0  0  0  0  0  0  0  0  0
    0.9015    0.9289    1.8465 N   0  0  0  0  0  0  0  0  0  0  0  0
    1.3126    1.2867    0.9968 H   0  0  0  0  0  0  0  0  0  0  0  0
    1.4125    1.4340    3.1181 C   0  0  0  0  0  0  0  0  0  0  0  0
    1.7712    0.6023    3.7286 H   0  0  0  0  0  0  0  0  0  0  0  0
    2.2332    2.1301    2.9424 H   0  0  0  0  0  0  0  0  0  0  0  0
    0.6162    1.9458    3.6608 H   0  0  0  0  0  0  0  0  0  0  0  0
  5  6  2  0  0  0  0
  5  7  1  0  0  0  0
  2  3  1  0  0  0  0
  2  4  1  0  0  0  0
  2  5  1  0  0  0  0
  1  2  1  0  0  0  0
 22 23  2  0  0  0  0
 22 24  1  0  0  0  0
 20 21  1  0  0  0  0
 19 20  1  0  0  0  0
 17 18  1  0  0  0  0
 17 19  2  0  0  0  0
 15 16  1  0  0  0  0
 15 17  1  0  0  0  0
 14 15  1  0  0  0  0
 14 20  2  0  0  0  0
 11 12  1  0  0  0  0
 11 13  1  0  0  0  0
 11 14  1  0  0  0  0
  9 10  1  0  0  0  0
  9 11  1  0  0  0  0
  9 22  1  0  0  0  0
  7  8  1  0  0  0  0
  7  9  1  0  0  0  0
 26 27  1  0  0  0  0
 26 28  1  0  0  0  0
 26 29  1  0  0  0  0
 24 25  1  0  0  0  0
 24 26  1  0  0  0  0
M  END
$$$$
default_name
  -OEChem-01062215323D

 29 29  0     1  0  0  0  0  0999 V2000
   -3.6042   -3.5728    1.4576 H   0  0  0  0  0  0  0  0  0  0  0  0
   -3.5202   -2.6488    0.8866 C   0  0  0  0  0  0  0  0  0  0  0  0
   -4.2052   -1.9048    1.2896 H   0  0  0  0  0  0  0  0  0  0  0  0
   -3.7552   -2.8428   -0.1584 H   0  0  0  0  0  0  0  0  0  0  0  0
   -2.1052   -2.1358    0.9946 C   0  0  0  0  0  0  0  0  0  0  0  0
   -1.2852   -2.7288    1.6826 O   0  0  0  0  0  0  0  0  0  0  0  0
   -1.8202   -1.0288    0.3146 N   0  0  0  0  0  0  0  0  0  0  0  0
   -2.5542   -0.5788   -0.2104 H   0  0  0  0  0  0  0  0  0  0  0  0
   -0.5102   -0.3728    0.3086 C   0  0  1  0  0  0  0  0  0  0  0  0
    0.2354   -1.0844   -0.0490 H   0  0  0  0  0  0  0  0  0  0  0  0
   -0.5452    0.8158   -0.6698 C   0  0  0  0  0  0  0  0  0  0  0  0
   -1.3439    1.4984   -0.3744 H   0  0  0  0  0  0  0  0  0  0  0  0
    0.4002    1.3576   -0.6053 H   0  0  0  0  0  0  0  0  0  0  0  0
   -0.7669    0.4107   -2.1040 C   0  0  0  0  0  0  0  0  0  0  0  0
    0.1623   -0.1689   -2.9410 N   0  0  0  0  0  0  0  0  0  0  0  0
    1.1358   -0.3288   -2.7293 H   0  0  0  0  0  0  0  0  0  0  0  0
   -0.4538   -0.4802   -4.0938 C   0  0  0  0  0  0  0  0  0  0  0  0
    0.0190   -0.9440   -4.9509 H   0  0  0  0  0  0  0  0  0  0  0  0
   -1.7490   -0.1375   -4.0355 N   0  0  0  0  0  0  0  0  0  0  0  0
   -1.9591    0.4334   -2.7775 C   0  0  0  0  0  0  0  0  0  0  0  0
   -2.9024    0.7954   -2.3896 H   0  0  0  0  0  0  0  0  0  0  0  0
   -0.1073    0.0565    1.7296 C   0  0  0  0  0  0  0  0  0  0  0  0
   -0.5115   -0.5757    2.7051 O   0  0  0  0  0  0  0  0  0  0  0  0
    0.6725    1.1383    1.8482 N   0  0  0  0  0  0  0  0  0  0  0  0
    0.9174    1.6344    1.0038 H   0  0  0  0  0  0  0  0  0  0  0  0
    1.1501    1.6760    3.1194 C   0  0  0  0  0  0  0  0  0  0  0  0
    1.7433    0.9211    3.6402 H   0  0  0  0  0  0  0  0  0  0  0  0
    1.7659    2.5588    2.9453 H   0  0  0  0  0  0  0  0  0  0  0  0
    0.3016    1.9473    3.7495 H   0  0  0  0  0  0  0  0  0  0  0  0
  5  6  2  0  0  0  0
  5  7  1  0  0  0  0
  2  3  1  0  0  0  0
  2  4  1  0  0  0  0
  2  5  1  0  0  0  0
  1  2  1  0  0  0  0
 22 23  2  0  0  0  0
 22 24  1  0  0  0  0
 20 21  1  0  0  0  0
 19 20  1  0  0  0  0
 17 18  1  0  0  0  0
 17 19  2  0  0  0  0
 15 16  1  0  0  0  0
 15 17  1  0  0  0  0
 14 15  1  0  0  0  0
 14 20  2  0  0  0  0
 11 12  1  0  0  0  0
 11 13  1  0  0  0  0
 11 14  1  0  0  0  0
  9 10  1  0  0  0  0
  9 11  1  0  0  0  0
  9 22  1  0  0  0  0
  7  8  1  0  0  0  0
  7  9  1  0  0  0  0
 26 27  1  0  0  0  0
 26 28  1  0  0  0  0
 26 29  1  0  0  0  0
 24 25  1  0  0  0  0
 24 26  1  0  0  0  0
M  END
$$$$
default_name
  -OEChem-01062215323D

 29 29  0     1  0  0  0  0  0999 V2000
   -3.6042   -3.5728    1.4576 H   0  0  0  0  0  0  0  0  0  0  0  0
   -3.5202   -2.6488    0.8866 C   0  0  0  0  0  0  0  0  0  0  0  0
   -4.2052   -1.9048    1.2896 H   0  0  0  0  0  0  0  0  0  0  0  0
   -3.7552   -2.8428   -0.1584 H   0  0  0  0  0  0  0  0  0  0  0  0
   -2.1052   -2.1358    0.9946 C   0  0  0  0  0  0  0  0  0  0  0  0
   -1.2852   -2.7288    1.6826 O   0  0  0  0  0  0  0  0  0  0  0  0
   -1.8202   -1.0288    0.3146 N   0  0  0  0  0  0  0  0  0  0  0  0
   -2.5542   -0.5788   -0.2104 H   0  0  0  0  0  0  0  0  0  0  0  0
   -0.5102   -0.3728    0.3086 C   0  0  1  0  0  0  0  0  0  0  0  0
    0.2354   -1.0844   -0.0490 H   0  0  0  0  0  0  0  0  0  0  0  0
   -0.5452    0.8158   -0.6698 C   0  0  0  0  0  0  0  0  0  0  0  0
   -1.3439    1.4984   -0.3744 H   0  0  0  0  0  0  0  0  0  0  0  0
    0.4002    1.3576   -0.6053 H   0  0  0  0  0  0  0  0  0  0  0  0
   -0.7669    0.4107   -2.1040 C   0  0  0  0  0  0  0  0  0  0  0  0
    0.1623   -0.1689   -2.9410 N   0  0  0  0  0  0  0  0  0  0  0  0
    1.1358   -0.3288   -2.7293 H   0  0  0  0  0  0  0  0  0  0  0  0
   -0.4538   -0.4802   -4.0938 C   0  0  0  0  0  0  0  0  0  0  0  0
    0.0190   -0.9440   -4.9509 H   0  0  0  0  0  0  0  0  0  0  0  0
   -1.7490   -0.1375   -4.0355 N   0  0  0  0  0  0  0  0  0  0  0  0
   -1.9591    0.4334   -2.7775 C   0  0  0  0  0  0  0  0  0  0  0  0
   -2.9024    0.7954   -2.3896 H   0  0  0  0  0  0  0  0  0  0  0  0
   -0.1073    0.0565    1.7296 C   0  0  0  0  0  0  0  0  0  0  0  0
   -0.2706   -0.7111    2.6777 O   0  0  0  0  0  0  0  0  0  0  0  0
    0.4013    1.2857    1.8805 N   0  0  0  0  0  0  0  0  0  0  0  0
    0.4532    1.8752    1.0627 H   0  0  0  0  0  0  0  0  0  0  0  0
    0.8388    1.8469    3.1560 C   0  0  0  0  0  0  0  0  0  0  0  0
    1.6338    1.2283    3.5785 H   0  0  0  0  0  0  0  0  0  0  0  0
    1.2122    2.8610    3.0110 H   0  0  0  0  0  0  0  0  0  0  0  0
    0.0038    1.8675    3.8581 H   0  0  0  0  0  0  0  0  0  0  0  0
  5  6  2  0  0  0  0
  5  7  1  0  0  0  0
  2  3  1  0  0  0  0
  2  4  1  0  0  0  0
  2  5  1  0  0  0  0
  1  2  1  0  0  0  0
 22 23  2  0  0  0  0
 22 24  1  0  0  0  0
 20 21  1  0  0  0  0
 19 20  1  0  0  0  0
 17 18  1  0  0  0  0
 17 19  2  0  0  0  0
 15 16  1  0  0  0  0
 15 17  1  0  0  0  0
 14 15  1  0  0  0  0
 14 20  2  0  0  0  0
 11 12  1  0  0  0  0
 11 13  1  0  0  0  0
 11 14  1  0  0  0  0
  9 10  1  0  0  0  0
  9 11  1  0  0  0  0
  9 22  1  0  0  0  0
  7  8  1  0  0  0  0
  7  9  1  0  0  0  0
 26 27  1  0  0  0  0
 26 28  1  0  0  0  0
 26 29  1  0  0  0  0
 24 25  1  0  0  0  0
 24 26  1  0  0  0  0
M  END
$$$$
default_name
  -OEChem-01062215323D

 29 29  0     1  0  0  0  0  0999 V2000
   -3.6042   -3.5728    1.4576 H   0  0  0  0  0  0  0  0  0  0  0  0
   -3.5202   -2.6488    0.8866 C   0  0  0  0  0  0  0  0  0  0  0  0
   -4.2052   -1.9048    1.2896 H   0  0  0  0  0  0  0  0  0  0  0  0
   -3.7552   -2.8428   -0.1584 H   0  0  0  0  0  0  0  0  0  0  0  0
   -2.1052   -2.1358    0.9946 C   0  0  0  0  0  0  0  0  0  0  0  0
   -1.2852   -2.7288    1.6826 O   0  0  0  0  0  0  0  0  0  0  0  0
   -1.8202   -1.0288    0.3146 N   0  0  0  0  0  0  0  0  0  0  0  0
   -2.5542   -0.5788   -0.2104 H   0  0  0  0  0  0  0  0  0  0  0  0
   -0.5102   -0.3728    0.3086 C   0  0  1  0  0  0  0  0  0  0  0  0
    0.2354   -1.0844   -0.0490 H   0  0  0  0  0  0  0  0  0  0  0  0
   -0.5452    0.8158   -0.6698 C   0  0  0  0  0  0  0  0  0  0  0  0
   -1.3439    1.4984   -0.3744 H   0  0  0  0  0  0  0  0  0  0  0  0
    0.4002    1.3576   -0.6053 H   0  0  0  0  0  0  0  0  0  0  0  0
   -0.7669    0.4107   -2.1040 C   0  0  0  0  0  0  0  0  0  0  0  0
    0.1623   -0.1689   -2.9410 N   0  0  0  0  0  0  0  0  0  0  0  0
    1.1358   -0.3288   -2.7293 H   0  0  0  0  0  0  0  0  0  0  0  0
   -0.4538   -0.4802   -4.0938 C   0  0  0  0  0  0  0  0  0  0  0  0
    0.0190   -0.9440   -4.9509 H   0  0  0  0  0  0  0  0  0  0  0  0
   -1.7490   -0.1375   -4.0355 N   0  0  0  0  0  0  0  0  0  0  0  0
   -1.9591    0.4334   -2.7775 C   0  0  0  0  0  0  0  0  0  0  0  0
   -2.9024    0.7954   -2.3896 H   0  0  0  0  0  0  0  0  0  0  0  0
   -0.1073    0.0565    1.7296 C   0  0  0  0  0  0  0  0  0  0  0  0
   -0.0075   -0.7823    2.6246 O   0  0  0  0  0  0  0  0  0  0  0  0
    0.1065    1.3611    1.9413 N   0  0  0  0  0  0  0  0  0  0  0  0
   -0.0486    1.9928    1.1694 H   0  0  0  0  0  0  0  0  0  0  0  0
    0.5000    1.9351    3.2255 C   0  0  0  0  0  0  0  0  0  0  0  0
    1.4501    1.5030    3.5476 H   0  0  0  0  0  0  0  0  0  0  0  0
    0.6099    3.0161    3.1349 H   0  0  0  0  0  0  0  0  0  0  0  0
   -0.2569    1.7119    3.9790 H   0  0  0  0  0  0  0  0  0  0  0  0
  5  6  2  0  0  0  0
  5  7  1  0  0  0  0
  2  3  1  0  0  0  0
  2  4  1  0  0  0  0
  2  5  1  0  0  0  0
  1  2  1  0  0  0  0
 22 23  2  0  0  0  0
 22 24  1  0  0  0  0
 20 21  1  0  0  0  0
 19 20  1  0  0  0  0
 17 18  1  0  0  0  0
 17 19  2  0  0  0  0
 15 16  1  0  0  0  0
 15 17  1  0  0  0  0
 14 15  1  0  0  0  0
 14 20  2  0  0  0  0
 11 12  1  0  0  0  0
 11 13  1  0  0  0  0
 11 14  1  0  0  0  0
  9 10  1  0  0  0  0
  9 11  1  0  0  0  0
  9 22  1  0  0  0  0
  7  8  1  0  0  0  0
  7  9  1  0  0  0  0
 26 27  1  0  0  0  0
 26 28  1  0  0  0  0
 26 29  1  0  0  0  0
 24 25  1  0  0  0  0
 24 26  1  0  0  0  0
M  END
$$$$
default_name
  -OEChem-01062215323D

 29 29  0     1  0  0  0  0  0999 V2000
   -3.6042   -3.5728    1.4576 H   0  0  0  0  0  0  0  0  0  0  0  0
   -3.5202   -2.6488    0.8866 C   0  0  0  0  0  0  0  0  0  0  0  0
   -4.2052   -1.9048    1.2896 H   0  0  0  0  0  0  0  0  0  0  0  0
   -3.7552   -2.8428   -0.1584 H   0  0  0  0  0  0  0  0  0  0  0  0
   -2.1052   -2.1358    0.9946 C   0  0  0  0  0  0  0  0  0  0  0  0
   -1.2852   -2.7288    1.6826 O   0  0  0  0  0  0  0  0  0  0  0  0
   -1.8202   -1.0288    0.3146 N   0  0  0  0  0  0  0  0  0  0  0  0
   -2.5542   -0.5788   -0.2104 H   0  0  0  0  0  0  0  0  0  0  0  0
   -0.5102   -0.3728    0.3086 C   0  0  1  0  0  0  0  0  0  0  0  0
    0.2354   -1.0844   -0.0490 H   0  0  0  0  0  0  0  0  0  0  0  0
   -0.5452    0.8158   -0.6698 C   0  0  0  0  0  0  0  0  0  0  0  0
   -1.3439    1.4984   -0.3744 H   0  0  0  0  0  0  0  0  0  0  0  0
    0.4002    1.3576   -0.6053 H   0  0  0  0  0  0  0  0  0  0  0  0
   -0.7669    0.4107   -2.1040 C   0  0  0  0  0  0  0  0  0  0  0  0
    0.1623   -0.1689   -2.9410 N   0  0  0  0  0  0  0  0  0  0  0  0
    1.1358   -0.3288   -2.7293 H   0  0  0  0  0  0  0  0  0  0  0  0
   -0.4538   -0.4802   -4.0938 C   0  0  0  0  0  0  0  0  0  0  0  0
    0.0190   -0.9440   -4.9509 H   0  0  0  0  0  0  0  0  0  0  0  0
   -1.7490   -0.1375   -4.0355 N   0  0  0  0  0  0  0  0  0  0  0  0
   -1.9591    0.4334   -2.7775 C   0  0  0  0  0  0  0  0  0  0  0  0
   -2.9024    0.7954   -2.3896 H   0  0  0  0  0  0  0  0  0  0  0  0
   -0.1073    0.0565    1.7296 C   0  0  0  0  0  0  0  0  0  0  0  0
    0.2599   -0.7847    2.5495 O   0  0  0  0  0  0  0  0  0  0  0  0
   -0.1919    1.3593    2.0265 N   0  0  0  0  0  0  0  0  0  0  0  0
   -0.5537    1.9792    1.3168 H   0  0  0  0  0  0  0  0  0  0  0  0
    0.1566    1.9345    3.3230 C   0  0  0  0  0  0  0  0  0  0  0  0
    1.2047    1.7265    3.5496 H   0  0  0  0  0  0  0  0  0  0  0  0
   -0.0001    3.0135    3.3087 H   0  0  0  0  0  0  0  0  0  0  0  0
   -0.4628    1.4910    4.1041 H   0  0  0  0  0  0  0  0  0  0  0  0
  5  6  2  0  0  0  0
  5  7  1  0  0  0  0
  2  3  1  0  0  0  0
  2  4  1  0  0  0  0
  2  5  1  0  0  0  0
  1  2  1  0  0  0  0
 22 23  2  0  0  0  0
 22 24  1  0  0  0  0
 20 21  1  0  0  0  0
 19 20  1  0  0  0  0
 17 18  1  0  0  0  0
 17 19  2  0  0  0  0
 15 16  1  0  0  0  0
 15 17  1  0  0  0  0
 14 15  1  0  0  0  0
 14 20  2  0  0  0  0
 11 12  1  0  0  0  0
 11 13  1  0  0  0  0
 11 14  1  0  0  0  0
  9 10  1  0  0  0  0
  9 11  1  0  0  0  0
  9 22  1  0  0  0  0
  7  8  1  0  0  0  0
  7  9  1  0  0  0  0
 26 27  1  0  0  0  0
 26 28  1  0  0  0  0
 26 29  1  0  0  0  0
 24 25  1  0  0  0  0
 24 26  1  0  0  0  0
M  END
$$$$
default_name
  -OEChem-01062215323D

 29 29  0     1  0  0  0  0  0999 V2000
   -3.6042   -3.5728    1.4576 H   0  0  0  0  0  0  0  0  0  0  0  0
   -3.5202   -2.6488    0.8866 C   0  0  0  0  0  0  0  0  0  0  0  0
   -4.2052   -1.9048    1.2896 H   0  0  0  0  0  0  0  0  0  0  0  0
   -3.7552   -2.8428   -0.1584 H   0  0  0  0  0  0  0  0  0  0  0  0
   -2.1052   -2.1358    0.9946 C   0  0  0  0  0  0  0  0  0  0  0  0
   -1.2852   -2.7288    1.6826 O   0  0  0  0  0  0  0  0  0  0  0  0
   -1.8202   -1.0288    0.3146 N   0  0  0  0  0  0  0  0  0  0  0  0
   -2.5542   -0.5788   -0.2104 H   0  0  0  0  0  0  0  0  0  0  0  0
   -0.5102   -0.3728    0.3086 C   0  0  1  0  0  0  0  0  0  0  0  0
    0.2354   -1.0844   -0.0490 H   0  0  0  0  0  0  0  0  0  0  0  0
   -0.5452    0.8158   -0.6698 C   0  0  0  0  0  0  0  0  0  0  0  0
   -1.3439    1.4984   -0.3744 H   0  0  0  0  0  0  0  0  0  0  0  0
    0.4002    1.3576   -0.6053 H   0  0  0  0  0  0  0  0  0  0  0  0
   -0.7669    0.4107   -2.1040 C   0  0  0  0  0  0  0  0  0  0  0  0
    0.1623   -0.1689   -2.9410 N   0  0  0  0  0  0  0  0  0  0  0  0
    1.1358   -0.3288   -2.7293 H   0  0  0  0  0  0  0  0  0  0  0  0
   -0.4538   -0.4802   -4.0938 C   0  0  0  0  0  0  0  0  0  0  0  0
    0.0190   -0.9440   -4.9509 H   0  0  0  0  0  0  0  0  0  0  0  0
   -1.7490   -0.1375   -4.0355 N   0  0  0  0  0  0  0  0  0  0  0  0
   -1.9591    0.4334   -2.7775 C   0  0  0  0  0  0  0  0  0  0  0  0
   -2.9024    0.7954   -2.3896 H   0  0  0  0  0  0  0  0  0  0  0  0
   -0.1073    0.0565    1.7296 C   0  0  0  0  0  0  0  0  0  0  0  0
    0.5133   -0.7179    2.4575 O   0  0  0  0  0  0  0  0  0  0  0  0
   -0.4736    1.2804    2.1302 N   0  0  0  0  0  0  0  0  0  0  0  0
   -1.0277    1.8353    1.4946 H   0  0  0  0  0  0  0  0  0  0  0  0
   -0.1679    1.8452    3.4420 C   0  0  0  0  0  0  0  0  0  0  0  0
    0.9144    1.8837    3.5845 H   0  0  0  0  0  0  0  0  0  0  0  0
   -0.5760    2.8533    3.5204 H   0  0  0  0  0  0  0  0  0  0  0  0
   -0.5998    1.2199    4.2249 H   0  0  0  0  0  0  0  0  0  0  0  0
  5  6  2  0  0  0  0
  5  7  1  0  0  0  0
  2  3  1  0  0  0  0
  2  4  1  0  0  0  0
  2  5  1  0  0  0  0
  1  2  1  0  0  0  0
 22 23  2  0  0  0  0
 22 24  1  0  0  0  0
 20 21  1  0  0  0  0
 19 20  1  0  0  0  0
 17 18  1  0  0  0  0
 17 19  2  0  0  0  0
 15 16  1  0  0  0  0
 15 17  1  0  0  0  0
 14 15  1  0  0  0  0
 14 20  2  0  0  0  0
 11 12  1  0  0  0  0
 11 13  1  0  0  0  0
 11 14  1  0  0  0  0
  9 10  1  0  0  0  0
  9 11  1  0  0  0  0
  9 22  1  0  0  0  0
  7  8  1  0  0  0  0
  7  9  1  0  0  0  0
 26 27  1  0  0  0  0
 26 28  1  0  0  0  0
 26 29  1  0  0  0  0
 24 25  1  0  0  0  0
 24 26  1  0  0  0  0
M  END
$$$$
default_name
  -OEChem-01062215323D

 29 29  0     1  0  0  0  0  0999 V2000
   -3.6042   -3.5728    1.4576 H   0  0  0  0  0  0  0  0  0  0  0  0
   -3.5202   -2.6488    0.8866 C   0  0  0  0  0  0  0  0  0  0  0  0
   -4.2052   -1.9048    1.2896 H   0  0  0  0  0  0  0  0  0  0  0  0
   -3.7552   -2.8428   -0.1584 H   0  0  0  0  0  0  0  0  0  0  0  0
   -2.1052   -2.1358    0.9946 C   0  0  0  0  0  0  0  0  0  0  0  0
   -1.2852   -2.7288    1.6826 O   0  0  0  0  0  0  0  0  0  0  0  0
   -1.8202   -1.0288    0.3146 N   0  0  0  0  0  0  0  0  0  0  0  0
   -2.5542   -0.5788   -0.2104 H   0  0  0  0  0  0  0  0  0  0  0  0
   -0.5102   -0.3728    0.3086 C   0  0  1  0  0  0  0  0  0  0  0  0
    0.2354   -1.0844   -0.0490 H   0  0  0  0  0  0  0  0  0  0  0  0
   -0.5452    0.8158   -0.6698 C   0  0  0  0  0  0  0  0  0  0  0  0
   -1.3439    1.4984   -0.3744 H   0  0  0  0  0  0  0  0  0  0  0  0
    0.4002    1.3576   -0.6053 H   0  0  0  0  0  0  0  0  0  0  0  0
   -0.7669    0.4107   -2.1040 C   0  0  0  0  0  0  0  0  0  0  0  0
    0.1623   -0.1689   -2.9410 N   0  0  0  0  0  0  0  0  0  0  0  0
    1.1358   -0.3288   -2.7293 H   0  0  0  0  0  0  0  0  0  0  0  0
   -0.4538   -0.4802   -4.0938 C   0  0  0  0  0  0  0  0  0  0  0  0
    0.0190   -0.9440   -4.9509 H   0  0  0  0  0  0  0  0  0  0  0  0
   -1.7490   -0.1375   -4.0355 N   0  0  0  0  0  0  0  0  0  0  0  0
   -1.9591    0.4334   -2.7775 C   0  0  0  0  0  0  0  0  0  0  0  0
   -2.9024    0.7954   -2.3896 H   0  0  0  0  0  0  0  0  0  0  0  0
   -0.1073    0.0565    1.7296 C   0  0  0  0  0  0  0  0  0  0  0  0
    0.7354   -0.5866    2.3549 O   0  0  0  0  0  0  0  0  0  0  0  0
   -0.7193    1.1298    2.2454 N   0  0  0  0  0  0  0  0  0  0  0  0
   -1.4383    1.5709    1.6909 H   0  0  0  0  0  0  0  0  0  0  0  0
   -0.4514    1.6733    3.5743 C   0  0  0  0  0  0  0  0  0  0  0  0
    0.5989    1.9637    3.6497 H   0  0  0  0  0  0  0  0  0  0  0  0
   -1.0788    2.5465    3.7556 H   0  0  0  0  0  0  0  0  0  0  0  0
   -0.6586    0.9171    4.3330 H   0  0  0  0  0  0  0  0  0  0  0  0
  5  6  2  0  0  0  0
  5  7  1  0  0  0  0
  2  3  1  0  0  0  0
  2  4  1  0  0  0  0
  2  5  1  0  0  0  0
  1  2  1  0  0  0  0
 22 23  2  0  0  0  0
 22 24  1  0  0  0  0
 20 21  1  0  0  0  0
 19 20  1  0  0  0  0
 17 18  1  0  0  0  0
 17 19  2  0  0  0  0
 15 16  1  0  0  0  0
 15 17  1  0  0  0  0
 14 15  1  0  0  0  0
 14 20  2  0  0  0  0
 11 12  1  0  0  0  0
 11 13  1  0  0  0  0
 11 14  1  0  0  0  0
  9 10  1  0  0  0  0
  9 11  1  0  0  0  0
  9 22  1  0  0  0  0
  7  8  1  0  0  0  0
  7  9  1  0  0  0  0
 26 27  1  0  0  0  0
 26 28  1  0  0  0  0
 26 29  1  0  0  0  0
 24 25  1  0  0  0  0
 24 26  1  0  0  0  0
M  END
$$$$
default_name
  -OEChem-01062215323D

 29 29  0     1  0  0  0  0  0999 V2000
   -3.6042   -3.5728    1.4576 H   0  0  0  0  0  0  0  0  0  0  0  0
   -3.5202   -2.6488    0.8866 C   0  0  0  0  0  0  0  0  0  0  0  0
   -4.2052   -1.9048    1.2896 H   0  0  0  0  0  0  0  0  0  0  0  0
   -3.7552   -2.8428   -0.1584 H   0  0  0  0  0  0  0  0  0  0  0  0
   -2.1052   -2.1358    0.9946 C   0  0  0  0  0  0  0  0  0  0  0  0
   -1.2852   -2.7288    1.6826 O   0  0  0  0  0  0  0  0  0  0  0  0
   -1.8202   -1.0288    0.3146 N   0  0  0  0  0  0  0  0  0  0  0  0
   -2.5542   -0.5788   -0.2104 H   0  0  0  0  0  0  0  0  0  0  0  0
   -0.5102   -0.3728    0.3086 C   0  0  1  0  0  0  0  0  0  0  0  0
    0.2354   -1.0844   -0.0490 H   0  0  0  0  0  0  0  0  0  0  0  0
   -0.5452    0.8158   -0.6698 C   0  0  0  0  0  0  0  0  0  0  0  0
   -1.3439    1.4984   -0.3744 H   0  0  0  0  0  0  0  0  0  0  0  0
    0.4002    1.3576   -0.6053 H   0  0  0  0  0  0  0  0  0  0  0  0
   -0.7669    0.4107   -2.1040 C   0  0  0  0  0  0  0  0  0  0  0  0
    0.1623   -0.1689   -2.9410 N   0  0  0  0  0  0  0  0  0  0  0  0
    1.1358   -0.3288   -2.7293 H   0  0  0  0  0  0  0  0  0  0  0  0
   -0.4538   -0.4802   -4.0938 C   0  0  0  0  0  0  0  0  0  0  0  0
    0.0190   -0.9440   -4.9509 H   0  0  0  0  0  0  0  0  0  0  0  0
   -1.7490   -0.1375   -4.0355 N   0  0  0  0  0  0  0  0  0  0  0  0
   -1.9591    0.4334   -2.7775 C   0  0  0  0  0  0  0  0  0  0  0  0
   -2.9024    0.7954   -2.3896 H   0  0  0  0  0  0  0  0  0  0  0  0
   -0.1073    0.0565    1.7296 C   0  0  0  0  0  0  0  0  0  0  0  0
    0.9111   -0.3997    2.2486 O   0  0  0  0  0  0  0  0  0  0  0  0
   -0.9124    0.9178    2.3642 N   0  0  0  0  0  0  0  0  0  0  0  0
   -1.7575    1.2041    1.8923 H   0  0  0  0  0  0  0  0  0  0  0  0
   -0.6746    1.4306    3.7109 C   0  0  0  0  0  0  0  0  0  0  0  0
    0.2798    1.9611    3.7410 H   0  0  0  0  0  0  0  0  0  0  0  0
   -1.4741    2.1140    3.9984 H   0  0  0  0  0  0  0  0  0  0  0  0
   -0.6353    0.6033    4.4212 H   0  0  0  0  0  0  0  0  0  0  0  0
  5  6  2  0  0  0  0
  5  7  1  0  0  0  0
  2  3  1  0  0  0  0
  2  4  1  0  0  0  0
  2  5  1  0  0  0  0
  1  2  1  0  0  0  0
 22 23  2  0  0  0  0
 22 24  1  0  0  0  0
 20 21  1  0  0  0  0
 19 20  1  0  0  0  0
 17 18  1  0  0  0  0
 17 19  2  0  0  0  0
 15 16  1  0  0  0  0
 15 17  1  0  0  0  0
 14 15  1  0  0  0  0
 14 20  2  0  0  0  0
 11 12  1  0  0  0  0
 11 13  1  0  0  0  0
 11 14  1  0  0  0  0
  9 10  1  0  0  0  0
  9 11  1  0  0  0  0
  9 22  1  0  0  0  0
  7  8  1  0  0  0  0
  7  9  1  0  0  0  0
 26 27  1  0  0  0  0
 26 28  1  0  0  0  0
 26 29  1  0  0  0  0
 24 25  1  0  0  0  0
 24 26  1  0  0  0  0
M  END
$$$$
default_name
  -OEChem-01062215323D

 29 29  0     1  0  0  0  0  0999 V2000
   -3.6042   -3.5728    1.4576 H   0  0  0  0  0  0  0  0  0  0  0  0
   -3.5202   -2.6488    0.8866 C   0  0  0  0  0  0  0  0  0  0  0  0
   -4.2052   -1.9048    1.2896 H   0  0  0  0  0  0  0  0  0  0  0  0
   -3.7552   -2.8428   -0.1584 H   0  0  0  0  0  0  0  0  0  0  0  0
   -2.1052   -2.1358    0.9946 C   0  0  0  0  0  0  0  0  0  0  0  0
   -1.2852   -2.7288    1.6826 O   0  0  0  0  0  0  0  0  0  0  0  0
   -1.8202   -1.0288    0.3146 N   0  0  0  0  0  0  0  0  0  0  0  0
   -2.5542   -0.5788   -0.2104 H   0  0  0  0  0  0  0  0  0  0  0  0
   -0.5102   -0.3728    0.3086 C   0  0  1  0  0  0  0  0  0  0  0  0
    0.2354   -1.0844   -0.0490 H   0  0  0  0  0  0  0  0  0  0  0  0
   -0.5452    0.8158   -0.6698 C   0  0  0  0  0  0  0  0  0  0  0  0
   -1.3439    1.4984   -0.3744 H   0  0  0  0  0  0  0  0  0  0  0  0
    0.4002    1.3576   -0.6053 H   0  0  0  0  0  0  0  0  0  0  0  0
   -0.7669    0.4107   -2.1040 C   0  0  0  0  0  0  0  0  0  0  0  0
    0.1623   -0.1689   -2.9410 N   0  0  0  0  0  0  0  0  0  0  0  0
    1.1358   -0.3288   -2.7293 H   0  0  0  0  0  0  0  0  0  0  0  0
   -0.4538   -0.4802   -4.0938 C   0  0  0  0  0  0  0  0  0  0  0  0
    0.0190   -0.9440   -4.9509 H   0  0  0  0  0  0  0  0  0  0  0  0
   -1.7490   -0.1375   -4.0355 N   0  0  0  0  0  0  0  0  0  0  0  0
   -1.9591    0.4334   -2.7775 C   0  0  0  0  0  0  0  0  0  0  0  0
   -2.9024    0.7954   -2.3896 H   0  0  0  0  0  0  0  0  0  0  0  0
   -0.1073    0.0565    1.7296 C   0  0  0  0  0  0  0  0  0  0  0  0
    1.0285   -0.1699    2.1459 O   0  0  0  0  0  0  0  0  0  0  0  0
   -1.0395    0.6588    2.4785 N   0  0  0  0  0  0  0  0  0  0  0  0
   -1.9636    0.7597    2.0849 H   0  0  0  0  0  0  0  0  0  0  0  0
   -0.8222    1.1334    3.8425 C   0  0  0  0  0  0  0  0  0  0  0  0
   -0.0212    1.8761    3.8521 H   0  0  0  0  0  0  0  0  0  0  0  0
   -1.7349    1.5853    4.2320 H   0  0  0  0  0  0  0  0  0  0  0  0
   -0.5312    0.2997    4.4834 H   0  0  0  0  0  0  0  0  0  0  0  0
  5  6  2  0  0  0  0
  5  7  1  0  0  0  0
  2  3  1  0  0  0  0
  2  4  1  0  0  0  0
  2  5  1  0  0  0  0
  1  2  1  0  0  0  0
 22 23  2  0  0  0  0
 22 24  1  0  0  0  0
 20 21  1  0  0  0  0
 19 20  1  0  0  0  0
 17 18  1  0  0  0  0
 17 19  2  0  0  0  0
 15 16  1  0  0  0  0
 15 17  1  0  0  0  0
 14 15  1  0  0  0  0
 14 20  2  0  0  0  0
 11 12  1  0  0  0  0
 11 13  1  0  0  0  0
 11 14  1  0  0  0  0
  9 10  1  0  0  0  0
  9 11  1  0  0  0  0
  9 22  1  0  0  0  0
  7  8  1  0  0  0  0
  7  9  1  0  0  0  0
 26 27  1  0  0  0  0
 26 28  1  0  0  0  0
 26 29  1  0  0  0  0
 24 25  1  0  0  0  0
 24 26  1  0  0  0  0
M  END
$$$$
default_name
  -OEChem-01062215323D

 29 29  0     1  0  0  0  0  0999 V2000
   -3.6042   -3.5728    1.4576 H   0  0  0  0  0  0  0  0  0  0  0  0
   -3.5202   -2.6488    0.8866 C   0  0  0  0  0  0  0  0  0  0  0  0
   -4.2052   -1.9048    1.2896 H   0  0  0  0  0  0  0  0  0  0  0  0
   -3.7552   -2.8428   -0.1584 H   0  0  0  0  0  0  0  0  0  0  0  0
   -2.1052   -2.1358    0.9946 C   0  0  0  0  0  0  0  0  0  0  0  0
   -1.2852   -2.7288    1.6826 O   0  0  0  0  0  0  0  0  0  0  0  0
   -1.8202   -1.0288    0.3146 N   0  0  0  0  0  0  0  0  0  0  0  0
   -2.5542   -0.5788   -0.2104 H   0  0  0  0  0  0  0  0  0  0  0  0
   -0.5102   -0.3728    0.3086 C   0  0  1  0  0  0  0  0  0  0  0  0
    0.2354   -1.0844   -0.0490 H   0  0  0  0  0  0  0  0  0  0  0  0
   -0.5452    0.8158   -0.6698 C   0  0  0  0  0  0  0  0  0  0  0  0
   -1.3439    1.4984   -0.3744 H   0  0  0  0  0  0  0  0  0  0  0  0
    0.4002    1.3576   -0.6053 H   0  0  0  0  0  0  0  0  0  0  0  0
   -0.7669    0.4107   -2.1040 C   0  0  0  0  0  0  0  0  0  0  0  0
    0.1623   -0.1689   -2.9410 N   0  0  0  0  0  0  0  0  0  0  0  0
    1.1358   -0.3288   -2.7293 H   0  0  0  0  0  0  0  0  0  0  0  0
   -0.4538   -0.4802   -4.0938 C   0  0  0  0  0  0  0  0  0  0  0  0
    0.0190   -0.9440   -4.9509 H   0  0  0  0  0  0  0  0  0  0  0  0
   -1.7490   -0.1375   -4.0355 N   0  0  0  0  0  0  0  0  0  0  0  0
   -1.9591    0.4334   -2.7775 C   0  0  0  0  0  0  0  0  0  0  0  0
   -2.9024    0.7954   -2.3896 H   0  0  0  0  0  0  0  0  0  0  0  0
   -0.1073    0.0565    1.7296 C   0  0  0  0  0  0  0  0  0  0  0  0
    1.0796    0.0871    2.0538 O   0  0  0  0  0  0  0  0  0  0  0  0
   -1.0922    0.3705    2.5805 N   0  0  0  0  0  0  0  0  0  0  0  0
   -2.0425    0.2682    2.2558 H   0  0  0  0  0  0  0  0  0  0  0  0
   -0.8843    0.8022    3.9602 C   0  0  0  0  0  0  0  0  0  0  0  0
   -0.2837    1.7144    3.9753 H   0  0  0  0  0  0  0  0  0  0  0  0
   -1.8436    0.9964    4.4408 H   0  0  0  0  0  0  0  0  0  0  0  0
   -0.3537    0.0271    4.5154 H   0  0  0  0  0  0  0  0  0  0  0  0
  5  6  2  0  0  0  0
  5  7  1  0  0  0  0
  2  3  1  0  0  0  0
  2  4  1  0  0  0  0
  2  5  1  0  0  0  0
  1  2  1  0  0  0  0
 22 23  2  0  0  0  0
 22 24  1  0  0  0  0
 20 21  1  0  0  0  0
 19 20  1  0  0  0  0
 17 18  1  0  0  0  0
 17 19  2  0  0  0  0
 15 16  1  0  0  0  0
 15 17  1  0  0  0  0
 14 15  1  0  0  0  0
 14 20  2  0  0  0  0
 11 12  1  0  0  0  0
 11 13  1  0  0  0  0
 11 14  1  0  0  0  0
  9 10  1  0  0  0  0
  9 11  1  0  0  0  0
  9 22  1  0  0  0  0
  7  8  1  0  0  0  0
  7  9  1  0  0  0  0
 26 27  1  0  0  0  0
 26 28  1  0  0  0  0
 26 29  1  0  0  0  0
 24 25  1  0  0  0  0
 24 26  1  0  0  0  0
M  END
$$$$
default_name
  -OEChem-01062215323D

 29 29  0     1  0  0  0  0  0999 V2000
   -3.6042   -3.5728    1.4576 H   0  0  0  0  0  0  0  0  0  0  0  0
   -3.5202   -2.6488    0.8866 C   0  0  0  0  0  0  0  0  0  0  0  0
   -4.2052   -1.9048    1.2896 H   0  0  0  0  0  0  0  0  0  0  0  0
   -3.7552   -2.8428   -0.1584 H   0  0  0  0  0  0  0  0  0  0  0  0
   -2.1052   -2.1358    0.9946 C   0  0  0  0  0  0  0  0  0  0  0  0
   -1.2852   -2.7288    1.6826 O   0  0  0  0  0  0  0  0  0  0  0  0
   -1.8202   -1.0288    0.3146 N   0  0  0  0  0  0  0  0  0  0  0  0
   -2.5542   -0.5788   -0.2104 H   0  0  0  0  0  0  0  0  0  0  0  0
   -0.5102   -0.3728    0.3086 C   0  0  1  0  0  0  0  0  0  0  0  0
    0.2354   -1.0844   -0.0490 H   0  0  0  0  0  0  0  0  0  0  0  0
   -0.5452    0.8158   -0.6698 C   0  0  0  0  0  0  0  0  0  0  0  0
   -1.3439    1.4984   -0.3744 H   0  0  0  0  0  0  0  0  0  0  0  0
    0.4002    1.3576   -0.6053 H   0  0  0  0  0  0  0  0  0  0  0  0
   -0.7669    0.4107   -2.1040 C   0  0  0  0  0  0  0  0  0  0  0  0
    0.1623   -0.1689   -2.9410 N   0  0  0  0  0  0  0  0  0  0  0  0
    1.1358   -0.3288   -2.7293 H   0  0  0  0  0  0  0  0  0  0  0  0
   -0.4538   -0.4802   -4.0938 C   0  0  0  0  0  0  0  0  0  0  0  0
    0.0190   -0.9440   -4.9509 H   0  0  0  0  0  0  0  0  0  0  0  0
   -1.7490   -0.1375   -4.0355 N   0  0  0  0  0  0  0  0  0  0  0  0
   -1.9591    0.4334   -2.7775 C   0  0  0  0  0  0  0  0  0  0  0  0
   -2.9024    0.7954   -2.3896 H   0  0  0  0  0  0  0  0  0  0  0  0
   -0.1073    0.0565    1.7296 C   0  0  0  0  0  0  0  0  0  0  0  0
    1.0608    0.3538    1.9785 O   0  0  0  0  0  0  0  0  0  0  0  0
   -1.0667    0.0724    2.6633 N   0  0  0  0  0  0  0  0  0  0  0  0
   -1.9888   -0.2370    2.3932 H   0  0  0  0  0  0  0  0  0  0  0  0
   -0.8566    0.4594    4.0559 C   0  0  0  0  0  0  0  0  0  0  0  0
   -0.4896    1.4872    4.1023 H   0  0  0  0  0  0  0  0  0  0  0  0
   -1.7927    0.3874    4.6103 H   0  0  0  0  0  0  0  0  0  0  0  0
   -0.1147   -0.1958    4.5150 H   0  0  0  0  0  0  0  0  0  0  0  0
  5  6  2  0  0  0  0
  5  7  1  0  0  0  0
  2  3  1  0  0  0  0
  2  4  1  0  0  0  0
  2  5  1  0  0  0  0
  1  2  1  0  0  0  0
 22 23  2  0  0  0  0
 22 24  1  0  0  0  0
 20 21  1  0  0  0  0
 19 20  1  0  0  0  0
 17 18  1  0  0  0  0
 17 19  2  0  0  0  0
 15 16  1  0  0  0  0
 15 17  1  0  0  0  0
 14 15  1  0  0  0  0
 14 20  2  0  0  0  0
 11 12  1  0  0  0  0
 11 13  1  0  0  0  0
 11 14  1  0  0  0  0
  9 10  1  0  0  0  0
  9 11  1  0  0  0  0
  9 22  1  0  0  0  0
  7  8  1  0  0  0  0
  7  9  1  0  0  0  0
 26 27  1  0  0  0  0
 26 28  1  0  0  0  0
 26 29  1  0  0  0  0
 24 25  1  0  0  0  0
 24 26  1  0  0  0  0
M  END
$$$$
default_name
  -OEChem-01062215323D

 29 29  0     1  0  0  0  0  0999 V2000
   -3.6042   -3.5728    1.4576 H   0  0  0  0  0  0  0  0  0  0  0  0
   -3.5202   -2.6488    0.8866 C   0  0  0  0  0  0  0  0  0  0  0  0
   -4.2052   -1.9048    1.2896 H   0  0  0  0  0  0  0  0  0  0  0  0
   -3.7552   -2.8428   -0.1584 H   0  0  0  0  0  0  0  0  0  0  0  0
   -2.1052   -2.1358    0.9946 C   0  0  0  0  0  0  0  0  0  0  0  0
   -1.2852   -2.7288    1.6826 O   0  0  0  0  0  0  0  0  0  0  0  0
   -1.8202   -1.0288    0.3146 N   0  0  0  0  0  0  0  0  0  0  0  0
   -2.5542   -0.5788   -0.2104 H   0  0  0  0  0  0  0  0  0  0  0  0
   -0.5102   -0.3728    0.3086 C   0  0  1  0  0  0  0  0  0  0  0  0
    0.2354   -1.0844   -0.0490 H   0  0  0  0  0  0  0  0  0  0  0  0
   -0.5452    0.8158   -0.6698 C   0  0  0  0  0  0  0  0  0  0  0  0
   -1.3439    1.4984   -0.3744 H   0  0  0  0  0  0  0  0  0  0  0  0
    0.4002    1.3576   -0.6053 H   0  0  0  0  0  0  0  0  0  0  0  0
   -0.7669    0.4107   -2.1040 C   0  0  0  0  0  0  0  0  0  0  0  0
    0.1623   -0.1689   -2.9410 N   0  0  0  0  0  0  0  0  0  0  0  0
    1.1358   -0.3288   -2.7293 H   0  0  0  0  0  0  0  0  0  0  0  0
   -0.4538   -0.4802   -4.0938 C   0  0  0  0  0  0  0  0  0  0  0  0
    0.0190   -0.9440   -4.9509 H   0  0  0  0  0  0  0  0  0  0  0  0
   -1.7490   -0.1375   -4.0355 N   0  0  0  0  0  0  0  0  0  0  0  0
   -1.9591    0.4334   -2.7775 C   0  0  0  0  0  0  0  0  0  0  0  0
   -2.9024    0.7954   -2.3896 H   0  0  0  0  0  0  0  0  0  0  0  0
   -0.1073    0.0565    1.7296 C   0  0  0  0  0  0  0  0  0  0  0  0
    0.9734    0.6119    1.9253 O   0  0  0  0  0  0  0  0  0  0  0  0
   -0.9649   -0.2149    2.7213 N   0  0  0  0  0  0  0  0  0  0  0  0
   -1.8062   -0.7215    2.4878 H   0  0  0  0  0  0  0  0  0  0  0  0
   -0.7409    0.1285    4.1231 C   0  0  0  0  0  0  0  0  0  0  0  0
   -0.6251    1.2099    4.2245 H   0  0  0  0  0  0  0  0  0  0  0  0
   -1.5856   -0.2002    4.7291 H   0  0  0  0  0  0  0  0  0  0  0  0
    0.1694   -0.3541    4.4823 H   0  0  0  0  0  0  0  0  0  0  0  0
  5  6  2  0  0  0  0
  5  7  1  0  0  0  0
  2  3  1  0  0  0  0
  2  4  1  0  0  0  0
  2  5  1  0  0  0  0
  1  2  1  0  0  0  0
 22 23  2  0  0  0  0
 22 24  1  0  0  0  0
 20 21  1  0  0  0  0
 19 20  1  0  0  0  0
 17 18  1  0  0  0  0
 17 19  2  0  0  0  0
 15 16  1  0  0  0  0
 15 17  1  0  0  0  0
 14 15  1  0  0  0  0
 14 20  2  0  0  0  0
 11 12  1  0  0  0  0
 11 13  1  0  0  0  0
 11 14  1  0  0  0  0
  9 10  1  0  0  0  0
  9 11  1  0  0  0  0
  9 22  1  0  0  0  0
  7  8  1  0  0  0  0
  7  9  1  0  0  0  0
 26 27  1  0  0  0  0
 26 28  1  0  0  0  0
 26 29  1  0  0  0  0
 24 25  1  0  0  0  0
 24 26  1  0  0  0  0
M  END
$$$$
default_name
  -OEChem-01062215323D

 29 29  0     1  0  0  0  0  0999 V2000
   -3.6042   -3.5728    1.4576 H   0  0  0  0  0  0  0  0  0  0  0  0
   -3.5202   -2.6488    0.8866 C   0  0  0  0  0  0  0  0  0  0  0  0
   -4.2052   -1.9048    1.2896 H   0  0  0  0  0  0  0  0  0  0  0  0
   -3.7552   -2.8428   -0.1584 H   0  0  0  0  0  0  0  0  0  0  0  0
   -2.1052   -2.1358    0.9946 C   0  0  0  0  0  0  0  0  0  0  0  0
   -1.2852   -2.7288    1.6826 O   0  0  0  0  0  0  0  0  0  0  0  0
   -1.8202   -1.0288    0.3146 N   0  0  0  0  0  0  0  0  0  0  0  0
   -2.5542   -0.5788   -0.2104 H   0  0  0  0  0  0  0  0  0  0  0  0
   -0.5102   -0.3728    0.3086 C   0  0  1  0  0  0  0  0  0  0  0  0
    0.2354   -1.0844   -0.0490 H   0  0  0  0  0  0  0  0  0  0  0  0
   -0.5452    0.8158   -0.6698 C   0  0  0  0  0  0  0  0  0  0  0  0
   -1.3439    1.4984   -0.3744 H   0  0  0  0  0  0  0  0  0  0  0  0
    0.4002    1.3576   -0.6053 H   0  0  0  0  0  0  0  0  0  0  0  0
   -0.7669    0.4107   -2.1040 C   0  0  0  0  0  0  0  0  0  0  0  0
    0.1623   -0.1689   -2.9410 N   0  0  0  0  0  0  0  0  0  0  0  0
    1.1358   -0.3288   -2.7293 H   0  0  0  0  0  0  0  0  0  0  0  0
   -0.4538   -0.4802   -4.0938 C   0  0  0  0  0  0  0  0  0  0  0  0
    0.0190   -0.9440   -4.9509 H   0  0  0  0  0  0  0  0  0  0  0  0
   -1.7490   -0.1375   -4.0355 N   0  0  0  0  0  0  0  0  0  0  0  0
   -1.9591    0.4334   -2.7775 C   0  0  0  0  0  0  0  0  0  0  0  0
   -2.9024    0.7954   -2.3896 H   0  0  0  0  0  0  0  0  0  0  0  0
   -0.1073    0.0565    1.7296 C   0  0  0  0  0  0  0  0  0  0  0  0
    0.8234    0.8440    1.8977 O   0  0  0  0  0  0  0  0  0  0  0  0
   -0.7936   -0.4721    2.7504 N   0  0  0  0  0  0  0  0  0  0  0  0
   -1.5072   -1.1523    2.5332 H   0  0  0  0  0  0  0  0  0  0  0  0
   -0.5452   -0.1681    4.1572 C   0  0  0  0  0  0  0  0  0  0  0  0
   -0.6808    0.9013    4.3335 H   0  0  0  0  0  0  0  0  0  0  0  0
   -1.2366   -0.7263    4.7891 H   0  0  0  0  0  0  0  0  0  0  0  0
    0.4793   -0.4367    4.4194 H   0  0  0  0  0  0  0  0  0  0  0  0
  5  6  2  0  0  0  0
  5  7  1  0  0  0  0
  2  3  1  0  0  0  0
  2  4  1  0  0  0  0
  2  5  1  0  0  0  0
  1  2  1  0  0  0  0
 22 23  2  0  0  0  0
 22 24  1  0  0  0  0
 20 21  1  0  0  0  0
 19 20  1  0  0  0  0
 17 18  1  0  0  0  0
 17 19  2  0  0  0  0
 15 16  1  0  0  0  0
 15 17  1  0  0  0  0
 14 15  1  0  0  0  0
 14 20  2  0  0  0  0
 11 12  1  0  0  0  0
 11 13  1  0  0  0  0
 11 14  1  0  0  0  0
  9 10  1  0  0  0  0
  9 11  1  0  0  0  0
  9 22  1  0  0  0  0
  7  8  1  0  0  0  0
  7  9  1  0  0  0  0
 26 27  1  0  0  0  0
 26 28  1  0  0  0  0
 26 29  1  0  0  0  0
 24 25  1  0  0  0  0
 24 26  1  0  0  0  0
M  END
$$$$
default_name
  -OEChem-01062215323D

 29 29  0     1  0  0  0  0  0999 V2000
   -3.6042   -3.5728    1.4576 H   0  0  0  0  0  0  0  0  0  0  0  0
   -3.5202   -2.6488    0.8866 C   0  0  0  0  0  0  0  0  0  0  0  0
   -4.2052   -1.9048    1.2896 H   0  0  0  0  0  0  0  0  0  0  0  0
   -3.7552   -2.8428   -0.1584 H   0  0  0  0  0  0  0  0  0  0  0  0
   -2.1052   -2.1358    0.9946 C   0  0  0  0  0  0  0  0  0  0  0  0
   -1.2852   -2.7288    1.6826 O   0  0  0  0  0  0  0  0  0  0  0  0
   -1.8202   -1.0288    0.3146 N   0  0  0  0  0  0  0  0  0  0  0  0
   -2.5542   -0.5788   -0.2104 H   0  0  0  0  0  0  0  0  0  0  0  0
   -0.5102   -0.3728    0.3086 C   0  0  1  0  0  0  0  0  0  0  0  0
    0.2354   -1.0844   -0.0490 H   0  0  0  0  0  0  0  0  0  0  0  0
   -0.5452    0.8158   -0.6698 C   0  0  0  0  0  0  0  0  0  0  0  0
   -1.3439    1.4984   -0.3744 H   0  0  0  0  0  0  0  0  0  0  0  0
    0.4002    1.3576   -0.6053 H   0  0  0  0  0  0  0  0  0  0  0  0
   -0.7669    0.4107   -2.1040 C   0  0  0  0  0  0  0  0  0  0  0  0
    0.1623   -0.1689   -2.9410 N   0  0  0  0  0  0  0  0  0  0  0  0
    1.1358   -0.3288   -2.7293 H   0  0  0  0  0  0  0  0  0  0  0  0
   -0.4538   -0.4802   -4.0938 C   0  0  0  0  0  0  0  0  0  0  0  0
    0.0190   -0.9440   -4.9509 H   0  0  0  0  0  0  0  0  0  0  0  0
   -1.7490   -0.1375   -4.0355 N   0  0  0  0  0  0  0  0  0  0  0  0
   -1.9591    0.4334   -2.7775 C   0  0  0  0  0  0  0  0  0  0  0  0
   -2.9024    0.7954   -2.3896 H   0  0  0  0  0  0  0  0  0  0  0  0
   -0.1073    0.0565    1.7296 C   0  0  0  0  0  0  0  0  0  0  0  0
    0.6211    1.0343    1.8976 O   0  0  0  0  0  0  0  0  0  0  0  0
   -0.5646   -0.6815    2.7487 N   0  0  0  0  0  0  0  0  0  0  0  0
   -1.1120   -1.4999    2.5262 H   0  0  0  0  0  0  0  0  0  0  0  0
   -0.2827   -0.4101    4.1559 C   0  0  0  0  0  0  0  0  0  0  0  0
   -0.6529    0.5826    4.4219 H   0  0  0  0  0  0  0  0  0  0  0  0
   -0.7693   -1.1551    4.7861 H   0  0  0  0  0  0  0  0  0  0  0  0
    0.7939   -0.4382    4.3306 H   0  0  0  0  0  0  0  0  0  0  0  0
  5  6  2  0  0  0  0
  5  7  1  0  0  0  0
  2  3  1  0  0  0  0
  2  4  1  0  0  0  0
  2  5  1  0  0  0  0
  1  2  1  0  0  0  0
 22 23  2  0  0  0  0
 22 24  1  0  0  0  0
 20 21  1  0  0  0  0
 19 20  1  0  0  0  0
 17 18  1  0  0  0  0
 17 19  2  0  0  0  0
 15 16  1  0  0  0  0
 15 17  1  0  0  0  0
 14 15  1  0  0  0  0
 14 20  2  0  0  0  0
 11 12  1  0  0  0  0
 11 13  1  0  0  0  0
 11 14  1  0  0  0  0
  9 10  1  0  0  0  0
  9 11  1  0  0  0  0
  9 22  1  0  0  0  0
  7  8  1  0  0  0  0
  7  9  1  0  0  0  0
 26 27  1  0  0  0  0
 26 28  1  0  0  0  0
 26 29  1  0  0  0  0
 24 25  1  0  0  0  0
 24 26  1  0  0  0  0
M  END
$$$$
default_name
  -OEChem-01062215323D

 29 29  0     1  0  0  0  0  0999 V2000
   -3.6042   -3.5728    1.4576 H   0  0  0  0  0  0  0  0  0  0  0  0
   -3.5202   -2.6488    0.8866 C   0  0  0  0  0  0  0  0  0  0  0  0
   -4.2052   -1.9048    1.2896 H   0  0  0  0  0  0  0  0  0  0  0  0
   -3.7552   -2.8428   -0.1584 H   0  0  0  0  0  0  0  0  0  0  0  0
   -2.1052   -2.1358    0.9946 C   0  0  0  0  0  0  0  0  0  0  0  0
   -1.2852   -2.7288    1.6826 O   0  0  0  0  0  0  0  0  0  0  0  0
   -1.8202   -1.0288    0.3146 N   0  0  0  0  0  0  0  0  0  0  0  0
   -2.5542   -0.5788   -0.2104 H   0  0  0  0  0  0  0  0  0  0  0  0
   -0.5102   -0.3728    0.3086 C   0  0  1  0  0  0  0  0  0  0  0  0
    0.2354   -1.0844   -0.0490 H   0  0  0  0  0  0  0  0  0  0  0  0
   -0.5452    0.8158   -0.6698 C   0  0  0  0  0  0  0  0  0  0  0  0
   -1.3439    1.4984   -0.3744 H   0  0  0  0  0  0  0  0  0  0  0  0
    0.4002    1.3576   -0.6053 H   0  0  0  0  0  0  0  0  0  0  0  0
   -0.7669    0.4107   -2.1040 C   0  0  0  0  0  0  0  0  0  0  0  0
    0.1623   -0.1689   -2.9410 N   0  0  0  0  0  0  0  0  0  0  0  0
    1.1358   -0.3288   -2.7293 H   0  0  0  0  0  0  0  0  0  0  0  0
   -0.4538   -0.4802   -4.0938 C   0  0  0  0  0  0  0  0  0  0  0  0
    0.0190   -0.9440   -4.9509 H   0  0  0  0  0  0  0  0  0  0  0  0
   -1.7490   -0.1375   -4.0355 N   0  0  0  0  0  0  0  0  0  0  0  0
   -1.9591    0.4334   -2.7775 C   0  0  0  0  0  0  0  0  0  0  0  0
   -2.9024    0.7954   -2.3896 H   0  0  0  0  0  0  0  0  0  0  0  0
   -0.1073    0.0565    1.7296 C   0  0  0  0  0  0  0  0  0  0  0  0
    0.3801    1.1696    1.9250 O   0  0  0  0  0  0  0  0  0  0  0  0
   -0.2934   -0.8290    2.7164 N   0  0  0  0  0  0  0  0  0  0  0  0
   -0.6478   -1.7408    2.4673 H   0  0  0  0  0  0  0  0  0  0  0  0
    0.0285   -0.5810    4.1192 C   0  0  0  0  0  0  0  0  0  0  0  0
   -0.5434    0.2754    4.4837 H   0  0  0  0  0  0  0  0  0  0  0  0
   -0.2156   -1.4573    4.7204 H   0  0  0  0  0  0  0  0  0  0  0  0
    1.0917   -0.3584    4.2221 H   0  0  0  0  0  0  0  0  0  0  0  0
  5  6  2  0  0  0  0
  5  7  1  0  0  0  0
  2  3  1  0  0  0  0
  2  4  1  0  0  0  0
  2  5  1  0  0  0  0
  1  2  1  0  0  0  0
 22 23  2  0  0  0  0
 22 24  1  0  0  0  0
 20 21  1  0  0  0  0
 19 20  1  0  0  0  0
 17 18  1  0  0  0  0
 17 19  2  0  0  0  0
 15 16  1  0  0  0  0
 15 17  1  0  0  0  0
 14 15  1  0  0  0  0
 14 20  2  0  0  0  0
 11 12  1  0  0  0  0
 11 13  1  0  0  0  0
 11 14  1  0  0  0  0
  9 10  1  0  0  0  0
  9 11  1  0  0  0  0
  9 22  1  0  0  0  0
  7  8  1  0  0  0  0
  7  9  1  0  0  0  0
 26 27  1  0  0  0  0
 26 28  1  0  0  0  0
 26 29  1  0  0  0  0
 24 25  1  0  0  0  0
 24 26  1  0  0  0  0
M  END
$$$$
default_name
  -OEChem-01062215323D

 29 29  0     1  0  0  0  0  0999 V2000
   -3.6042   -3.5728    1.4576 H   0  0  0  0  0  0  0  0  0  0  0  0
   -3.5202   -2.6488    0.8866 C   0  0  0  0  0  0  0  0  0  0  0  0
   -4.2052   -1.9048    1.2896 H   0  0  0  0  0  0  0  0  0  0  0  0
   -3.7552   -2.8428   -0.1584 H   0  0  0  0  0  0  0  0  0  0  0  0
   -2.1052   -2.1358    0.9946 C   0  0  0  0  0  0  0  0  0  0  0  0
   -1.2852   -2.7288    1.6826 O   0  0  0  0  0  0  0  0  0  0  0  0
   -1.8202   -1.0288    0.3146 N   0  0  0  0  0  0  0  0  0  0  0  0
   -2.5542   -0.5788   -0.2104 H   0  0  0  0  0  0  0  0  0  0  0  0
   -0.5102   -0.3728    0.3086 C   0  0  1  0  0  0  0  0  0  0  0  0
    0.2354   -1.0844   -0.0490 H   0  0  0  0  0  0  0  0  0  0  0  0
   -0.5452    0.8158   -0.6698 C   0  0  0  0  0  0  0  0  0  0  0  0
   -1.3439    1.4984   -0.3744 H   0  0  0  0  0  0  0  0  0  0  0  0
    0.4002    1.3576   -0.6053 H   0  0  0  0  0  0  0  0  0  0  0  0
   -0.7669    0.4107   -2.1040 C   0  0  0  0  0  0  0  0  0  0  0  0
    0.1623   -0.1689   -2.9410 N   0  0  0  0  0  0  0  0  0  0  0  0
    1.1358   -0.3288   -2.7293 H   0  0  0  0  0  0  0  0  0  0  0  0
   -0.4538   -0.4802   -4.0938 C   0  0  0  0  0  0  0  0  0  0  0  0
    0.0190   -0.9440   -4.9509 H   0  0  0  0  0  0  0  0  0  0  0  0
   -1.7490   -0.1375   -4.0355 N   0  0  0  0  0  0  0  0  0  0  0  0
   -1.9591    0.4334   -2.7775 C   0  0  0  0  0  0  0  0  0  0  0  0
   -2.9024    0.7954   -2.3896 H   0  0  0  0  0  0  0  0  0  0  0  0
   -0.1073    0.0565    1.7296 C   0  0  0  0  0  0  0  0  0  0  0  0
    0.1170    1.2409    1.9781 O   0  0  0  0  0  0  0  0  0  0  0  0
    0.0014   -0.9043    2.6555 N   0  0  0  0  0  0  0  0  0  0  0  0
   -0.1460   -1.8584    2.3605 H   0  0  0  0  0  0  0  0  0  0  0  0
    0.3674   -0.6691    4.0498 C   0  0  0  0  0  0  0  0  0  0  0  0
   -0.3597    0.0007    4.5146 H   0  0  0  0  0  0  0  0  0  0  0  0
    0.3868   -1.6124    4.5965 H   0  0  0  0  0  0  0  0  0  0  0  0
    1.3525   -0.2028    4.1011 H   0  0  0  0  0  0  0  0  0  0  0  0
  5  6  2  0  0  0  0
  5  7  1  0  0  0  0
  2  3  1  0  0  0  0
  2  4  1  0  0  0  0
  2  5  1  0  0  0  0
  1  2  1  0  0  0  0
 22 23  2  0  0  0  0
 22 24  1  0  0  0  0
 20 21  1  0  0  0  0
 19 20  1  0  0  0  0
 17 18  1  0  0  0  0
 17 19  2  0  0  0  0
 15 16  1  0  0  0  0
 15 17  1  0  0  0  0
 14 15  1  0  0  0  0
 14 20  2  0  0  0  0
 11 12  1  0  0  0  0
 11 13  1  0  0  0  0
 11 14  1  0  0  0  0
  9 10  1  0  0  0  0
  9 11  1  0  0  0  0
  9 22  1  0  0  0  0
  7  8  1  0  0  0  0
  7  9  1  0  0  0  0
 26 27  1  0  0  0  0
 26 28  1  0  0  0  0
 26 29  1  0  0  0  0
 24 25  1  0  0  0  0
 24 26  1  0  0  0  0
M  END
$$$$
default_name
  -OEChem-01062215323D

 29 29  0     1  0  0  0  0  0999 V2000
   -3.6042   -3.5728    1.4576 H   0  0  0  0  0  0  0  0  0  0  0  0
   -3.5202   -2.6488    0.8866 C   0  0  0  0  0  0  0  0  0  0  0  0
   -4.2052   -1.9048    1.2896 H   0  0  0  0  0  0  0  0  0  0  0  0
   -3.7552   -2.8428   -0.1584 H   0  0  0  0  0  0  0  0  0  0  0  0
   -2.1052   -2.1358    0.9946 C   0  0  0  0  0  0  0  0  0  0  0  0
   -1.2852   -2.7288    1.6826 O   0  0  0  0  0  0  0  0  0  0  0  0
   -1.8202   -1.0288    0.3146 N   0  0  0  0  0  0  0  0  0  0  0  0
   -2.5542   -0.5788   -0.2104 H   0  0  0  0  0  0  0  0  0  0  0  0
   -0.5102   -0.3728    0.3086 C   0  0  1  0  0  0  0  0  0  0  0  0
    0.2354   -1.0844   -0.0490 H   0  0  0  0  0  0  0  0  0  0  0  0
   -0.5452    0.8158   -0.6698 C   0  0  0  0  0  0  0  0  0  0  0  0
   -1.3439    1.4984   -0.3744 H   0  0  0  0  0  0  0  0  0  0  0  0
    0.4002    1.3576   -0.6053 H   0  0  0  0  0  0  0  0  0  0  0  0
   -0.7669    0.4107   -2.1040 C   0  0  0  0  0  0  0  0  0  0  0  0
    0.1623   -0.1689   -2.9410 N   0  0  0  0  0  0  0  0  0  0  0  0
    1.1358   -0.3288   -2.7293 H   0  0  0  0  0  0  0  0  0  0  0  0
   -0.4538   -0.4802   -4.0938 C   0  0  0  0  0  0  0  0  0  0  0  0
    0.0190   -0.9440   -4.9509 H   0  0  0  0  0  0  0  0  0  0  0  0
   -1.7490   -0.1375   -4.0355 N   0  0  0  0  0  0  0  0  0  0  0  0
   -1.9591    0.4334   -2.7775 C   0  0  0  0  0  0  0  0  0  0  0  0
   -2.9024    0.7954   -2.3896 H   0  0  0  0  0  0  0  0  0  0  0  0
   -0.1073    0.0565    1.7296 C   0  0  0  0  0  0  0  0  0  0  0  0
   -0.1503    1.2432    2.0532 O   0  0  0  0  0  0  0  0  0  0  0  0
    0.2999   -0.9025    2.5704 N   0  0  0  0  0  0  0  0  0  0  0  0
    0.3591   -1.8448    2.2132 H   0  0  0  0  0  0  0  0  0  0  0  0
    0.7107   -0.6686    3.9523 C   0  0  0  0  0  0  0  0  0  0  0  0
   -0.1143   -0.2229    4.5125 H   0  0  0  0  0  0  0  0  0  0  0  0
    0.9967   -1.6097    4.4228 H   0  0  0  0  0  0  0  0  0  0  0  0
    1.5584    0.0181    3.9760 H   0  0  0  0  0  0  0  0  0  0  0  0
  5  6  2  0  0  0  0
  5  7  1  0  0  0  0
  2  3  1  0  0  0  0
  2  4  1  0  0  0  0
  2  5  1  0  0  0  0
  1  2  1  0  0  0  0
 22 23  2  0  0  0  0
 22 24  1  0  0  0  0
 20 21  1  0  0  0  0
 19 20  1  0  0  0  0
 17 18  1  0  0  0  0
 17 19  2  0  0  0  0
 15 16  1  0  0  0  0
 15 17  1  0  0  0  0
 14 15  1  0  0  0  0
 14 20  2  0  0  0  0
 11 12  1  0  0  0  0
 11 13  1  0  0  0  0
 11 14  1  0  0  0  0
  9 10  1  0  0  0  0
  9 11  1  0  0  0  0
  9 22  1  0  0  0  0
  7  8  1  0  0  0  0
  7  9  1  0  0  0  0
 26 27  1  0  0  0  0
 26 28  1  0  0  0  0
 26 29  1  0  0  0  0
 24 25  1  0  0  0  0
 24 26  1  0  0  0  0
M  END
$$$$
default_name
  -OEChem-01062215323D

 29 29  0     1  0  0  0  0  0999 V2000
   -3.6042   -3.5728    1.4576 H   0  0  0  0  0  0  0  0  0  0  0  0
   -3.5202   -2.6488    0.8866 C   0  0  0  0  0  0  0  0  0  0  0  0
   -4.2052   -1.9048    1.2896 H   0  0  0  0  0  0  0  0  0  0  0  0
   -3.7552   -2.8428   -0.1584 H   0  0  0  0  0  0  0  0  0  0  0  0
   -2.1052   -2.1358    0.9946 C   0  0  0  0  0  0  0  0  0  0  0  0
   -1.2852   -2.7288    1.6826 O   0  0  0  0  0  0  0  0  0  0  0  0
   -1.8202   -1.0288    0.3146 N   0  0  0  0  0  0  0  0  0  0  0  0
   -2.5542   -0.5788   -0.2104 H   0  0  0  0  0  0  0  0  0  0  0  0
   -0.5102   -0.3728    0.3086 C   0  0  1  0  0  0  0  0  0  0  0  0
    0.2354   -1.0844   -0.0490 H   0  0  0  0  0  0  0  0  0  0  0  0
   -0.5452    0.8158   -0.6698 C   0  0  0  0  0  0  0  0  0  0  0  0
   -1.3439    1.4984   -0.3744 H   0  0  0  0  0  0  0  0  0  0  0  0
    0.4002    1.3576   -0.6053 H   0  0  0  0  0  0  0  0  0  0  0  0
   -0.7669    0.4107   -2.1040 C   0  0  0  0  0  0  0  0  0  0  0  0
    0.1623   -0.1689   -2.9410 N   0  0  0  0  0  0  0  0  0  0  0  0
    1.1358   -0.3288   -2.7293 H   0  0  0  0  0  0  0  0  0  0  0  0
   -0.4538   -0.4802   -4.0938 C   0  0  0  0  0  0  0  0  0  0  0  0
    0.0190   -0.9440   -4.9509 H   0  0  0  0  0  0  0  0  0  0  0  0
   -1.7490   -0.1375   -4.0355 N   0  0  0  0  0  0  0  0  0  0  0  0
   -1.9591    0.4334   -2.7775 C   0  0  0  0  0  0  0  0  0  0  0  0
   -2.9024    0.7954   -2.3896 H   0  0  0  0  0  0  0  0  0  0  0  0
   -0.1073    0.0565    1.7296 C   0  0  0  0  0  0  0  0  0  0  0  0
   -0.4037    1.1764    2.1452 O   0  0  0  0  0  0  0  0  0  0  0  0
    0.5815   -0.8236    2.4667 N   0  0  0  0  0  0  0  0  0  0  0  0
    0.8331   -1.7009    2.0353 H   0  0  0  0  0  0  0  0  0  0  0  0
    1.0352   -0.5793    3.8333 C   0  0  0  0  0  0  0  0  0  0  0  0
    0.1760   -0.3800    4.4777 H   0  0  0  0  0  0  0  0  0  0  0  0
    1.5727   -1.4496    4.2111 H   0  0  0  0  0  0  0  0  0  0  0  0
    1.6954    0.2892    3.8553 H   0  0  0  0  0  0  0  0  0  0  0  0
  5  6  2  0  0  0  0
  5  7  1  0  0  0  0
  2  3  1  0  0  0  0
  2  4  1  0  0  0  0
  2  5  1  0  0  0  0
  1  2  1  0  0  0  0
 22 23  2  0  0  0  0
 22 24  1  0  0  0  0
 20 21  1  0  0  0  0
 19 20  1  0  0  0  0
 17 18  1  0  0  0  0
 17 19  2  0  0  0  0
 15 16  1  0  0  0  0
 15 17  1  0  0  0  0
 14 15  1  0  0  0  0
 14 20  2  0  0  0  0
 11 12  1  0  0  0  0
 11 13  1  0  0  0  0
 11 14  1  0  0  0  0
  9 10  1  0  0  0  0
  9 11  1  0  0  0  0
  9 22  1  0  0  0  0
  7  8  1  0  0  0  0
  7  9  1  0  0  0  0
 26 27  1  0  0  0  0
 26 28  1  0  0  0  0
 26 29  1  0  0  0  0
 24 25  1  0  0  0  0
 24 26  1  0  0  0  0
M  END
$$$$
default_name
  -OEChem-01062215323D

 29 29  0     1  0  0  0  0  0999 V2000
   -3.6042   -3.5728    1.4576 H   0  0  0  0  0  0  0  0  0  0  0  0
   -3.5202   -2.6488    0.8866 C   0  0  0  0  0  0  0  0  0  0  0  0
   -4.2052   -1.9048    1.2896 H   0  0  0  0  0  0  0  0  0  0  0  0
   -3.7552   -2.8428   -0.1584 H   0  0  0  0  0  0  0  0  0  0  0  0
   -2.1052   -2.1358    0.9946 C   0  0  0  0  0  0  0  0  0  0  0  0
   -1.2852   -2.7288    1.6826 O   0  0  0  0  0  0  0  0  0  0  0  0
   -1.8202   -1.0288    0.3146 N   0  0  0  0  0  0  0  0  0  0  0  0
   -2.5542   -0.5788   -0.2104 H   0  0  0  0  0  0  0  0  0  0  0  0
   -0.5102   -0.3728    0.3086 C   0  0  1  0  0  0  0  0  0  0  0  0
    0.2354   -1.0844   -0.0490 H   0  0  0  0  0  0  0  0  0  0  0  0
   -0.5452    0.8158   -0.6698 C   0  0  0  0  0  0  0  0  0  0  0  0
   -1.3439    1.4984   -0.3744 H   0  0  0  0  0  0  0  0  0  0  0  0
    0.4002    1.3576   -0.6053 H   0  0  0  0  0  0  0  0  0  0  0  0
   -0.7669    0.4107   -2.1040 C   0  0  0  0  0  0  0  0  0  0  0  0
    0.1623   -0.1689   -2.9410 N   0  0  0  0  0  0  0  0  0  0  0  0
    1.1358   -0.3288   -2.7293 H   0  0  0  0  0  0  0  0  0  0  0  0
   -0.4538   -0.4802   -4.0938 C   0  0  0  0  0  0  0  0  0  0  0  0
    0.0190   -0.9440   -4.9509 H   0  0  0  0  0  0  0  0  0  0  0  0
   -1.7490   -0.1375   -4.0355 N   0  0  0  0  0  0  0  0  0  0  0  0
   -1.9591    0.4334   -2.7775 C   0  0  0  0  0  0  0  0  0  0  0  0
   -2.9024    0.7954   -2.3896 H   0  0  0  0  0  0  0  0  0  0  0  0
   -0.1073    0.0565    1.7296 C   0  0  0  0  0  0  0  0  0  0  0  0
   -0.6258    1.0451    2.2479 O   0  0  0  0  0  0  0  0  0  0  0  0
    0.8272   -0.6730    2.3515 N   0  0  0  0  0  0  0  0  0  0  0  0
    1.2437   -1.4365    1.8390 H   0  0  0  0  0  0  0  0  0  0  0  0
    1.3187   -0.4074    3.7010 C   0  0  0  0  0  0  0  0  0  0  0  0
    0.4915   -0.4600    4.4124 H   0  0  0  0  0  0  0  0  0  0  0  0
    2.0755   -1.1428    3.9758 H   0  0  0  0  0  0  0  0  0  0  0  0
    1.7542    0.5920    3.7471 H   0  0  0  0  0  0  0  0  0  0  0  0
  5  6  2  0  0  0  0
  5  7  1  0  0  0  0
  2  3  1  0  0  0  0
  2  4  1  0  0  0  0
  2  5  1  0  0  0  0
  1  2  1  0  0  0  0
 22 23  2  0  0  0  0
 22 24  1  0  0  0  0
 20 21  1  0  0  0  0
 19 20  1  0  0  0  0
 17 18  1  0  0  0  0
 17 19  2  0  0  0  0
 15 16  1  0  0  0  0
 15 17  1  0  0  0  0
 14 15  1  0  0  0  0
 14 20  2  0  0  0  0
 11 12  1  0  0  0  0
 11 13  1  0  0  0  0
 11 14  1  0  0  0  0
  9 10  1  0  0  0  0
  9 11  1  0  0  0  0
  9 22  1  0  0  0  0
  7  8  1  0  0  0  0
  7  9  1  0  0  0  0
 26 27  1  0  0  0  0
 26 28  1  0  0  0  0
 26 29  1  0  0  0  0
 24 25  1  0  0  0  0
 24 26  1  0  0  0  0
M  END
$$$$
default_name
  -OEChem-01062215323D

 29 29  0     1  0  0  0  0  0999 V2000
   -3.6042   -3.5728    1.4576 H   0  0  0  0  0  0  0  0  0  0  0  0
   -3.5202   -2.6488    0.8866 C   0  0  0  0  0  0  0  0  0  0  0  0
   -4.2052   -1.9048    1.2896 H   0  0  0  0  0  0  0  0  0  0  0  0
   -3.7552   -2.8428   -0.1584 H   0  0  0  0  0  0  0  0  0  0  0  0
   -2.1052   -2.1358    0.9946 C   0  0  0  0  0  0  0  0  0  0  0  0
   -1.2852   -2.7288    1.6826 O   0  0  0  0  0  0  0  0  0  0  0  0
   -1.8202   -1.0288    0.3146 N   0  0  0  0  0  0  0  0  0  0  0  0
   -2.5542   -0.5788   -0.2104 H   0  0  0  0  0  0  0  0  0  0  0  0
   -0.5102   -0.3728    0.3086 C   0  0  1  0  0  0  0  0  0  0  0  0
    0.2354   -1.0844   -0.0490 H   0  0  0  0  0  0  0  0  0  0  0  0
   -0.5452    0.8158   -0.6698 C   0  0  0  0  0  0  0  0  0  0  0  0
   -1.3439    1.4984   -0.3744 H   0  0  0  0  0  0  0  0  0  0  0  0
    0.4002    1.3576   -0.6053 H   0  0  0  0  0  0  0  0  0  0  0  0
   -0.7669    0.4107   -2.1040 C   0  0  0  0  0  0  0  0  0  0  0  0
    0.1623   -0.1689   -2.9410 N   0  0  0  0  0  0  0  0  0  0  0  0
    1.1358   -0.3288   -2.7293 H   0  0  0  0  0  0  0  0  0  0  0  0
   -0.4538   -0.4802   -4.0938 C   0  0  0  0  0  0  0  0  0  0  0  0
    0.0190   -0.9440   -4.9509 H   0  0  0  0  0  0  0  0  0  0  0  0
   -1.7490   -0.1375   -4.0355 N   0  0  0  0  0  0  0  0  0  0  0  0
   -1.9591    0.4334   -2.7775 C   0  0  0  0  0  0  0  0  0  0  0  0
   -2.9024    0.7954   -2.3896 H   0  0  0  0  0  0  0  0  0  0  0  0
   -0.1073    0.0565    1.7296 C   0  0  0  0  0  0  0  0  0  0  0  0
   -0.8016    0.8582    2.3542 O   0  0  0  0  0  0  0  0  0  0  0  0
    1.0203   -0.4610    2.2327 N   0  0  0  0  0  0  0  0  0  0  0  0
    1.5629   -1.0696    1.6377 H   0  0  0  0  0  0  0  0  0  0  0  0
    1.5419   -0.1646    3.5644 C   0  0  0  0  0  0  0  0  0  0  0  0
    0.8106   -0.4574    4.3211 H   0  0  0  0  0  0  0  0  0  0  0  0
    2.4707   -0.7103    3.7331 H   0  0  0  0  0  0  0  0  0  0  0  0
    1.7308    0.9058    3.6589 H   0  0  0  0  0  0  0  0  0  0  0  0
  5  6  2  0  0  0  0
  5  7  1  0  0  0  0
  2  3  1  0  0  0  0
  2  4  1  0  0  0  0
  2  5  1  0  0  0  0
  1  2  1  0  0  0  0
 22 23  2  0  0  0  0
 22 24  1  0  0  0  0
 20 21  1  0  0  0  0
 19 20  1  0  0  0  0
 17 18  1  0  0  0  0
 17 19  2  0  0  0  0
 15 16  1  0  0  0  0
 15 17  1  0  0  0  0
 14 15  1  0  0  0  0
 14 20  2  0  0  0  0
 11 12  1  0  0  0  0
 11 13  1  0  0  0  0
 11 14  1  0  0  0  0
  9 10  1  0  0  0  0
  9 11  1  0  0  0  0
  9 22  1  0  0  0  0
  7  8  1  0  0  0  0
  7  9  1  0  0  0  0
 26 27  1  0  0  0  0
 26 28  1  0  0  0  0
 26 29  1  0  0  0  0
 24 25  1  0  0  0  0
 24 26  1  0  0  0  0
M  END
$$$$
default_name
  -OEChem-01062215323D

 29 29  0     1  0  0  0  0  0999 V2000
   -3.6042   -3.5728    1.4576 H   0  0  0  0  0  0  0  0  0  0  0  0
   -3.5202   -2.6488    0.8866 C   0  0  0  0  0  0  0  0  0  0  0  0
   -4.2052   -1.9048    1.2896 H   0  0  0  0  0  0  0  0  0  0  0  0
   -3.7552   -2.8428   -0.1584 H   0  0  0  0  0  0  0  0  0  0  0  0
   -2.1052   -2.1358    0.9946 C   0  0  0  0  0  0  0  0  0  0  0  0
   -1.2852   -2.7288    1.6826 O   0  0  0  0  0  0  0  0  0  0  0  0
   -1.8202   -1.0288    0.3146 N   0  0  0  0  0  0  0  0  0  0  0  0
   -2.5542   -0.5788   -0.2104 H   0  0  0  0  0  0  0  0  0  0  0  0
   -0.5102   -0.3728    0.3086 C   0  0  1  0  0  0  0  0  0  0  0  0
    0.2354   -1.0844   -0.0490 H   0  0  0  0  0  0  0  0  0  0  0  0
   -0.5452    0.8158   -0.6698 C   0  0  0  0  0  0  0  0  0  0  0  0
   -1.3439    1.4984   -0.3744 H   0  0  0  0  0  0  0  0  0  0  0  0
    0.4002    1.3576   -0.6053 H   0  0  0  0  0  0  0  0  0  0  0  0
   -0.7669    0.4107   -2.1040 C   0  0  0  0  0  0  0  0  0  0  0  0
    0.1623   -0.1689   -2.9410 N   0  0  0  0  0  0  0  0  0  0  0  0
    1.1358   -0.3288   -2.7293 H   0  0  0  0  0  0  0  0  0  0  0  0
   -0.4538   -0.4802   -4.0938 C   0  0  0  0  0  0  0  0  0  0  0  0
    0.0190   -0.9440   -4.9509 H   0  0  0  0  0  0  0  0  0  0  0  0
   -1.7490   -0.1375   -4.0355 N   0  0  0  0  0  0  0  0  0  0  0  0
   -1.9591    0.4334   -2.7775 C   0  0  0  0  0  0  0  0  0  0  0  0
   -2.9024    0.7954   -2.3896 H   0  0  0  0  0  0  0  0  0  0  0  0
   -0.1073    0.0565    1.7296 C   0  0  0  0  0  0  0  0  0  0  0  0
   -0.9190    0.6284    2.4569 O   0  0  0  0  0  0  0  0  0  0  0  0
    1.1474   -0.2020    2.1184 N   0  0  0  0  0  0  0  0  0  0  0  0
    1.7690   -0.6253    1.4450 H   0  0  0  0  0  0  0  0  0  0  0  0
    1.6896    0.1325    3.4327 C   0  0  0  0  0  0  0  0  0  0  0  0
    1.1117   -0.3724    4.2101 H   0  0  0  0  0  0  0  0  0  0  0  0
    2.7316   -0.1815    3.4994 H   0  0  0  0  0  0  0  0  0  0  0  0
    1.6268    1.2094    3.5967 H   0  0  0  0  0  0  0  0  0  0  0  0
  5  6  2  0  0  0  0
  5  7  1  0  0  0  0
  2  3  1  0  0  0  0
  2  4  1  0  0  0  0
  2  5  1  0  0  0  0
  1  2  1  0  0  0  0
 22 23  2  0  0  0  0
 22 24  1  0  0  0  0
 20 21  1  0  0  0  0
 19 20  1  0  0  0  0
 17 18  1  0  0  0  0
 17 19  2  0  0  0  0
 15 16  1  0  0  0  0
 15 17  1  0  0  0  0
 14 15  1  0  0  0  0
 14 20  2  0  0  0  0
 11 12  1  0  0  0  0
 11 13  1  0  0  0  0
 11 14  1  0  0  0  0
  9 10  1  0  0  0  0
  9 11  1  0  0  0  0
  9 22  1  0  0  0  0
  7  8  1  0  0  0  0
  7  9  1  0  0  0  0
 26 27  1  0  0  0  0
 26 28  1  0  0  0  0
 26 29  1  0  0  0  0
 24 25  1  0  0  0  0
 24 26  1  0  0  0  0
M  END
$$$$
default_name
  -OEChem-01062215323D

 29 29  0     1  0  0  0  0  0999 V2000
   -3.6042   -3.5728    1.4576 H   0  0  0  0  0  0  0  0  0  0  0  0
   -3.5202   -2.6488    0.8866 C   0  0  0  0  0  0  0  0  0  0  0  0
   -4.2052   -1.9048    1.2896 H   0  0  0  0  0  0  0  0  0  0  0  0
   -3.7552   -2.8428   -0.1584 H   0  0  0  0  0  0  0  0  0  0  0  0
   -2.1052   -2.1358    0.9946 C   0  0  0  0  0  0  0  0  0  0  0  0
   -1.2852   -2.7288    1.6826 O   0  0  0  0  0  0  0  0  0  0  0  0
   -1.8202   -1.0288    0.3146 N   0  0  0  0  0  0  0  0  0  0  0  0
   -2.5542   -0.5788   -0.2104 H   0  0  0  0  0  0  0  0  0  0  0  0
   -0.5102   -0.3728    0.3086 C   0  0  1  0  0  0  0  0  0  0  0  0
    0.2354   -1.0844   -0.0490 H   0  0  0  0  0  0  0  0  0  0  0  0
   -0.5452    0.8158   -0.6698 C   0  0  0  0  0  0  0  0  0  0  0  0
   -1.3439    1.4984   -0.3744 H   0  0  0  0  0  0  0  0  0  0  0  0
    0.4002    1.3576   -0.6053 H   0  0  0  0  0  0  0  0  0  0  0  0
   -0.7669    0.4107   -2.1040 C   0  0  0  0  0  0  0  0  0  0  0  0
    0.1623   -0.1689   -2.9410 N   0  0  0  0  0  0  0  0  0  0  0  0
    1.1358   -0.3288   -2.7293 H   0  0  0  0  0  0  0  0  0  0  0  0
   -0.4538   -0.4802   -4.0938 C   0  0  0  0  0  0  0  0  0  0  0  0
    0.0190   -0.9440   -4.9509 H   0  0  0  0  0  0  0  0  0  0  0  0
   -1.7490   -0.1375   -4.0355 N   0  0  0  0  0  0  0  0  0  0  0  0
   -1.9591    0.4334   -2.7775 C   0  0  0  0  0  0  0  0  0  0  0  0
   -2.9024    0.7954   -2.3896 H   0  0  0  0  0  0  0  0  0  0  0  0
   -0.1073    0.0565    1.7296 C   0  0  0  0  0  0  0  0  0  0  0  0
   -0.9700    0.3715    2.5490 O   0  0  0  0  0  0  0  0  0  0  0  0
    1.2001    0.0863    2.0164 N   0  0  0  0  0  0  0  0  0  0  0  0
    1.8479   -0.1337    1.2742 H   0  0  0  0  0  0  0  0  0  0  0  0
    1.7516    0.4637    3.3151 C   0  0  0  0  0  0  0  0  0  0  0  0
    1.3741   -0.2108    4.0869 H   0  0  0  0  0  0  0  0  0  0  0  0
    2.8403    0.4074    3.2907 H   0  0  0  0  0  0  0  0  0  0  0  0
    1.4492    1.4820    3.5647 H   0  0  0  0  0  0  0  0  0  0  0  0
  5  6  2  0  0  0  0
  5  7  1  0  0  0  0
  2  3  1  0  0  0  0
  2  4  1  0  0  0  0
  2  5  1  0  0  0  0
  1  2  1  0  0  0  0
 22 23  2  0  0  0  0
 22 24  1  0  0  0  0
 20 21  1  0  0  0  0
 19 20  1  0  0  0  0
 17 18  1  0  0  0  0
 17 19  2  0  0  0  0
 15 16  1  0  0  0  0
 15 17  1  0  0  0  0
 14 15  1  0  0  0  0
 14 20  2  0  0  0  0
 11 12  1  0  0  0  0
 11 13  1  0  0  0  0
 11 14  1  0  0  0  0
  9 10  1  0  0  0  0
  9 11  1  0  0  0  0
  9 22  1  0  0  0  0
  7  8  1  0  0  0  0
  7  9  1  0  0  0  0
 26 27  1  0  0  0  0
 26 28  1  0  0  0  0
 26 29  1  0  0  0  0
 24 25  1  0  0  0  0
 24 26  1  0  0  0  0
M  END
$$$$
default_name
  -OEChem-01062215323D

 29 29  0     1  0  0  0  0  0999 V2000
   -3.6042   -3.5728    1.4576 H   0  0  0  0  0  0  0  0  0  0  0  0
   -3.5202   -2.6488    0.8866 C   0  0  0  0  0  0  0  0  0  0  0  0
   -4.2052   -1.9048    1.2896 H   0  0  0  0  0  0  0  0  0  0  0  0
   -3.7552   -2.8428   -0.1584 H   0  0  0  0  0  0  0  0  0  0  0  0
   -2.1052   -2.1358    0.9946 C   0  0  0  0  0  0  0  0  0  0  0  0
   -1.2852   -2.7288    1.6826 O   0  0  0  0  0  0  0  0  0  0  0  0
   -1.8202   -1.0288    0.3146 N   0  0  0  0  0  0  0  0  0  0  0  0
   -2.5542   -0.5788   -0.2104 H   0  0  0  0  0  0  0  0  0  0  0  0
   -0.5102   -0.3728    0.3086 C   0  0  1  0  0  0  0  0  0  0  0  0
    0.2354   -1.0844   -0.0490 H   0  0  0  0  0  0  0  0  0  0  0  0
   -0.5452    0.8158   -0.6698 C   0  0  0  0  0  0  0  0  0  0  0  0
   -1.3439    1.4984   -0.3744 H   0  0  0  0  0  0  0  0  0  0  0  0
    0.4002    1.3576   -0.6053 H   0  0  0  0  0  0  0  0  0  0  0  0
   -0.7669    0.4107   -2.1040 C   0  0  0  0  0  0  0  0  0  0  0  0
    0.1623   -0.1689   -2.9410 N   0  0  0  0  0  0  0  0  0  0  0  0
    1.1358   -0.3288   -2.7293 H   0  0  0  0  0  0  0  0  0  0  0  0
   -0.4538   -0.4802   -4.0938 C   0  0  0  0  0  0  0  0  0  0  0  0
    0.0190   -0.9440   -4.9509 H   0  0  0  0  0  0  0  0  0  0  0  0
   -1.7490   -0.1375   -4.0355 N   0  0  0  0  0  0  0  0  0  0  0  0
   -1.9591    0.4334   -2.7775 C   0  0  0  0  0  0  0  0  0  0  0  0
   -2.9024    0.7954   -2.3896 H   0  0  0  0  0  0  0  0  0  0  0  0
   -0.1073    0.0565    1.7296 C   0  0  0  0  0  0  0  0  0  0  0  0
   -0.9512    0.1048    2.6242 O   0  0  0  0  0  0  0  0  0  0  0  0
    1.1746    0.3843    1.9336 N   0  0  0  0  0  0  0  0  0  0  0  0
    1.7942    0.3715    1.1368 H   0  0  0  0  0  0  0  0  0  0  0  0
    1.7239    0.8065    3.2194 C   0  0  0  0  0  0  0  0  0  0  0  0
    1.5801    0.0164    3.9598 H   0  0  0  0  0  0  0  0  0  0  0  0
    2.7894    1.0164    3.1211 H   0  0  0  0  0  0  0  0  0  0  0  0
    1.2103    1.7049    3.5651 H   0  0  0  0  0  0  0  0  0  0  0  0
  5  6  2  0  0  0  0
  5  7  1  0  0  0  0
  2  3  1  0  0  0  0
  2  4  1  0  0  0  0
  2  5  1  0  0  0  0
  1  2  1  0  0  0  0
 22 23  2  0  0  0  0
 22 24  1  0  0  0  0
 20 21  1  0  0  0  0
 19 20  1  0  0  0  0
 17 18  1  0  0  0  0
 17 19  2  0  0  0  0
 15 16  1  0  0  0  0
 15 17  1  0  0  0  0
 14 15  1  0  0  0  0
 14 20  2  0  0  0  0
 11 12  1  0  0  0  0
 11 13  1  0  0  0  0
 11 14  1  0  0  0  0
  9 10  1  0  0  0  0
  9 11  1  0  0  0  0
  9 22  1  0  0  0  0
  7  8  1  0  0  0  0
  7  9  1  0  0  0  0
 26 27  1  0  0  0  0
 26 28  1  0  0  0  0
 26 29  1  0  0  0  0
 24 25  1  0  0  0  0
 24 26  1  0  0  0  0
M  END
$$$$
default_name
  -OEChem-01062215323D

 29 29  0     1  0  0  0  0  0999 V2000
   -3.6042   -3.5728    1.4576 H   0  0  0  0  0  0  0  0  0  0  0  0
   -3.5202   -2.6488    0.8866 C   0  0  0  0  0  0  0  0  0  0  0  0
   -4.2052   -1.9048    1.2896 H   0  0  0  0  0  0  0  0  0  0  0  0
   -3.7552   -2.8428   -0.1584 H   0  0  0  0  0  0  0  0  0  0  0  0
   -2.1052   -2.1358    0.9946 C   0  0  0  0  0  0  0  0  0  0  0  0
   -1.2852   -2.7288    1.6826 O   0  0  0  0  0  0  0  0  0  0  0  0
   -1.8202   -1.0288    0.3146 N   0  0  0  0  0  0  0  0  0  0  0  0
   -2.5542   -0.5788   -0.2104 H   0  0  0  0  0  0  0  0  0  0  0  0
   -0.5102   -0.3728    0.3086 C   0  0  1  0  0  0  0  0  0  0  0  0
    0.1784   -0.9729   -0.2880 H   0  0  0  0  0  0  0  0  0  0  0  0
   -0.6407    1.0095   -0.3574 C   0  0  0  0  0  0  0  0  0  0  0  0
   -1.3898    1.5951    0.1785 H   0  0  0  0  0  0  0  0  0  0  0  0
    0.3136    1.5335   -0.2794 H   0  0  0  0  0  0  0  0  0  0  0  0
   -1.0330    0.9446   -1.8108 C   0  0  0  0  0  0  0  0  0  0  0  0
   -0.2155    0.5862   -2.8612 N   0  0  0  0  0  0  0  0  0  0  0  0
    0.7736    0.3940   -2.8065 H   0  0  0  0  0  0  0  0  0  0  0  0
   -0.9654    0.5425   -3.9752 C   0  0  0  0  0  0  0  0  0  0  0  0
   -0.6019    0.2957   -4.9652 H   0  0  0  0  0  0  0  0  0  0  0  0
   -2.2399    0.8460   -3.6893 N   0  0  0  0  0  0  0  0  0  0  0  0
   -2.2946    1.1076   -2.3178 C   0  0  0  0  0  0  0  0  0  0  0  0
   -3.1812    1.3581   -1.7499 H   0  0  0  0  0  0  0  0  0  0  0  0
    0.0607   -0.2790    1.7337 C   0  0  0  0  0  0  0  0  0  0  0  0
   -0.5840   -0.7122    2.6885 O   0  0  0  0  0  0  0  0  0  0  0  0
    1.2587    0.3004    1.8802 N   0  0  0  0  0  0  0  0  0  0  0  0
    1.7001    0.6794    1.0553 H   0  0  0  0  0  0  0  0  0  0  0  0
    1.9451    0.4647    3.1589 C   0  0  0  0  0  0  0  0  0  0  0  0
    2.1186   -0.5133    3.6134 H   0  0  0  0  0  0  0  0  0  0  0  0
    2.9021    0.9655    3.0091 H   0  0  0  0  0  0  0  0  0  0  0  0
    1.3300    1.0589    3.8365 H   0  0  0  0  0  0  0  0  0  0  0  0
  5  6  2  0  0  0  0
  5  7  1  0  0  0  0
  2  3  1  0  0  0  0
  2  4  1  0  0  0  0
  2  5  1  0  0  0  0
  1  2  1  0  0  0  0
 22 23  2  0  0  0  0
 22 24  1  0  0  0  0
 20 21  1  0  0  0  0
 19 20  1  0  0  0  0
 17 18  1  0  0  0  0
 17 19  2  0  0  0  0
 15 16  1  0  0  0  0
 15 17  1  0  0  0  0
 14 15  1  0  0  0  0
 14 20  2  0  0  0  0
 11 12  1  0  0  0  0
 11 13  1  0  0  0  0
 11 14  1  0  0  0  0
  9 10  1  0  0  0  0
  9 11  1  0  0  0  0
  9 22  1  0  0  0  0
  7  8  1  0  0  0  0
  7  9  1  0  0  0  0
 26 27  1  0  0  0  0
 26 28  1  0  0  0  0
 26 29  1  0  0  0  0
 24 25  1  0  0  0  0
 24 26  1  0  0  0  0
M  END
$$$$
default_name
  -OEChem-01062215323D

 29 29  0     1  0  0  0  0  0999 V2000
   -3.6042   -3.5728    1.4576 H   0  0  0  0  0  0  0  0  0  0  0  0
   -3.5202   -2.6488    0.8866 C   0  0  0  0  0  0  0  0  0  0  0  0
   -4.2052   -1.9048    1.2896 H   0  0  0  0  0  0  0  0  0  0  0  0
   -3.7552   -2.8428   -0.1584 H   0  0  0  0  0  0  0  0  0  0  0  0
   -2.1052   -2.1358    0.9946 C   0  0  0  0  0  0  0  0  0  0  0  0
   -1.2852   -2.7288    1.6826 O   0  0  0  0  0  0  0  0  0  0  0  0
   -1.8202   -1.0288    0.3146 N   0  0  0  0  0  0  0  0  0  0  0  0
   -2.5542   -0.5788   -0.2104 H   0  0  0  0  0  0  0  0  0  0  0  0
   -0.5102   -0.3728    0.3086 C   0  0  1  0  0  0  0  0  0  0  0  0
    0.1784   -0.9729   -0.2880 H   0  0  0  0  0  0  0  0  0  0  0  0
   -0.6407    1.0095   -0.3574 C   0  0  0  0  0  0  0  0  0  0  0  0
   -1.3898    1.5951    0.1785 H   0  0  0  0  0  0  0  0  0  0  0  0
    0.3136    1.5335   -0.2794 H   0  0  0  0  0  0  0  0  0  0  0  0
   -1.0330    0.9446   -1.8108 C   0  0  0  0  0  0  0  0  0  0  0  0
   -0.2155    0.5862   -2.8612 N   0  0  0  0  0  0  0  0  0  0  0  0
    0.7736    0.3940   -2.8065 H   0  0  0  0  0  0  0  0  0  0  0  0
   -0.9654    0.5425   -3.9752 C   0  0  0  0  0  0  0  0  0  0  0  0
   -0.6019    0.2957   -4.9652 H   0  0  0  0  0  0  0  0  0  0  0  0
   -2.2399    0.8460   -3.6893 N   0  0  0  0  0  0  0  0  0  0  0  0
   -2.2946    1.1076   -2.3178 C   0  0  0  0  0  0  0  0  0  0  0  0
   -3.1812    1.3581   -1.7499 H   0  0  0  0  0  0  0  0  0  0  0  0
    0.0607   -0.2790    1.7337 C   0  0  0  0  0  0  0  0  0  0  0  0
   -0.4352   -0.9425    2.6441 O   0  0  0  0  0  0  0  0  0  0  0  0
    1.0891    0.5552    1.9315 N   0  0  0  0  0  0  0  0  0  0  0  0
    1.4042    1.1052    1.1458 H   0  0  0  0  0  0  0  0  0  0  0  0
    1.7512    0.7586    3.2173 C   0  0  0  0  0  0  0  0  0  0  0  0
    2.1659   -0.1872    3.5730 H   0  0  0  0  0  0  0  0  0  0  0  0
    2.5562    1.4867    3.1134 H   0  0  0  0  0  0  0  0  0  0  0  0
    1.0307    1.1209    3.9523 H   0  0  0  0  0  0  0  0  0  0  0  0
  5  6  2  0  0  0  0
  5  7  1  0  0  0  0
  2  3  1  0  0  0  0
  2  4  1  0  0  0  0
  2  5  1  0  0  0  0
  1  2  1  0  0  0  0
 22 23  2  0  0  0  0
 22 24  1  0  0  0  0
 20 21  1  0  0  0  0
 19 20  1  0  0  0  0
 17 18  1  0  0  0  0
 17 19  2  0  0  0  0
 15 16  1  0  0  0  0
 15 17  1  0  0  0  0
 14 15  1  0  0  0  0
 14 20  2  0  0  0  0
 11 12  1  0  0  0  0
 11 13  1  0  0  0  0
 11 14  1  0  0  0  0
  9 10  1  0  0  0  0
  9 11  1  0  0  0  0
  9 22  1  0  0  0  0
  7  8  1  0  0  0  0
  7  9  1  0  0  0  0
 26 27  1  0  0  0  0
 26 28  1  0  0  0  0
 26 29  1  0  0  0  0
 24 25  1  0  0  0  0
 24 26  1  0  0  0  0
M  END
$$$$
default_name
  -OEChem-01062215323D

 29 29  0     1  0  0  0  0  0999 V2000
   -3.6042   -3.5728    1.4576 H   0  0  0  0  0  0  0  0  0  0  0  0
   -3.5202   -2.6488    0.8866 C   0  0  0  0  0  0  0  0  0  0  0  0
   -4.2052   -1.9048    1.2896 H   0  0  0  0  0  0  0  0  0  0  0  0
   -3.7552   -2.8428   -0.1584 H   0  0  0  0  0  0  0  0  0  0  0  0
   -2.1052   -2.1358    0.9946 C   0  0  0  0  0  0  0  0  0  0  0  0
   -1.2852   -2.7288    1.6826 O   0  0  0  0  0  0  0  0  0  0  0  0
   -1.8202   -1.0288    0.3146 N   0  0  0  0  0  0  0  0  0  0  0  0
   -2.5542   -0.5788   -0.2104 H   0  0  0  0  0  0  0  0  0  0  0  0
   -0.5102   -0.3728    0.3086 C   0  0  1  0  0  0  0  0  0  0  0  0
    0.1784   -0.9729   -0.2880 H   0  0  0  0  0  0  0  0  0  0  0  0
   -0.6407    1.0095   -0.3574 C   0  0  0  0  0  0  0  0  0  0  0  0
   -1.3898    1.5951    0.1785 H   0  0  0  0  0  0  0  0  0  0  0  0
    0.3136    1.5335   -0.2794 H   0  0  0  0  0  0  0  0  0  0  0  0
   -1.0330    0.9446   -1.8108 C   0  0  0  0  0  0  0  0  0  0  0  0
   -0.2155    0.5862   -2.8612 N   0  0  0  0  0  0  0  0  0  0  0  0
    0.7736    0.3940   -2.8065 H   0  0  0  0  0  0  0  0  0  0  0  0
   -0.9654    0.5425   -3.9752 C   0  0  0  0  0  0  0  0  0  0  0  0
   -0.6019    0.2957   -4.9652 H   0  0  0  0  0  0  0  0  0  0  0  0
   -2.2399    0.8460   -3.6893 N   0  0  0  0  0  0  0  0  0  0  0  0
   -2.2946    1.1076   -2.3178 C   0  0  0  0  0  0  0  0  0  0  0  0
   -3.1812    1.3581   -1.7499 H   0  0  0  0  0  0  0  0  0  0  0  0
    0.0607   -0.2790    1.7337 C   0  0  0  0  0  0  0  0  0  0  0  0
   -0.2371   -1.1250    2.5767 O   0  0  0  0  0  0  0  0  0  0  0  0
    0.8649    0.7557    2.0081 N   0  0  0  0  0  0  0  0  0  0  0  0
    1.0177    1.4367    1.2789 H   0  0  0  0  0  0  0  0  0  0  0  0
    1.4942    0.9904    3.3050 C   0  0  0  0  0  0  0  0  0  0  0  0
    2.1326    0.1429    3.5646 H   0  0  0  0  0  0  0  0  0  0  0  0
    2.0987    1.8972    3.2697 H   0  0  0  0  0  0  0  0  0  0  0  0
    0.7285    1.0978    4.0749 H   0  0  0  0  0  0  0  0  0  0  0  0
  5  6  2  0  0  0  0
  5  7  1  0  0  0  0
  2  3  1  0  0  0  0
  2  4  1  0  0  0  0
  2  5  1  0  0  0  0
  1  2  1  0  0  0  0
 22 23  2  0  0  0  0
 22 24  1  0  0  0  0
 20 21  1  0  0  0  0
 19 20  1  0  0  0  0
 17 18  1  0  0  0  0
 17 19  2  0  0  0  0
 15 16  1  0  0  0  0
 15 17  1  0  0  0  0
 14 15  1  0  0  0  0
 14 20  2  0  0  0  0
 11 12  1  0  0  0  0
 11 13  1  0  0  0  0
 11 14  1  0  0  0  0
  9 10  1  0  0  0  0
  9 11  1  0  0  0  0
  9 22  1  0  0  0  0
  7  8  1  0  0  0  0
  7  9  1  0  0  0  0
 26 27  1  0  0  0  0
 26 28  1  0  0  0  0
 26 29  1  0  0  0  0
 24 25  1  0  0  0  0
 24 26  1  0  0  0  0
M  END
$$$$
default_name
  -OEChem-01062215323D

 29 29  0     1  0  0  0  0  0999 V2000
   -3.6042   -3.5728    1.4576 H   0  0  0  0  0  0  0  0  0  0  0  0
   -3.5202   -2.6488    0.8866 C   0  0  0  0  0  0  0  0  0  0  0  0
   -4.2052   -1.9048    1.2896 H   0  0  0  0  0  0  0  0  0  0  0  0
   -3.7552   -2.8428   -0.1584 H   0  0  0  0  0  0  0  0  0  0  0  0
   -2.1052   -2.1358    0.9946 C   0  0  0  0  0  0  0  0  0  0  0  0
   -1.2852   -2.7288    1.6826 O   0  0  0  0  0  0  0  0  0  0  0  0
   -1.8202   -1.0288    0.3146 N   0  0  0  0  0  0  0  0  0  0  0  0
   -2.5542   -0.5788   -0.2104 H   0  0  0  0  0  0  0  0  0  0  0  0
   -0.5102   -0.3728    0.3086 C   0  0  1  0  0  0  0  0  0  0  0  0
    0.1784   -0.9729   -0.2880 H   0  0  0  0  0  0  0  0  0  0  0  0
   -0.6407    1.0095   -0.3574 C   0  0  0  0  0  0  0  0  0  0  0  0
   -1.3898    1.5951    0.1785 H   0  0  0  0  0  0  0  0  0  0  0  0
    0.3136    1.5335   -0.2794 H   0  0  0  0  0  0  0  0  0  0  0  0
   -1.0330    0.9446   -1.8108 C   0  0  0  0  0  0  0  0  0  0  0  0
   -0.2155    0.5862   -2.8612 N   0  0  0  0  0  0  0  0  0  0  0  0
    0.7736    0.3940   -2.8065 H   0  0  0  0  0  0  0  0  0  0  0  0
   -0.9654    0.5425   -3.9752 C   0  0  0  0  0  0  0  0  0  0  0  0
   -0.6019    0.2957   -4.9652 H   0  0  0  0  0  0  0  0  0  0  0  0
   -2.2399    0.8460   -3.6893 N   0  0  0  0  0  0  0  0  0  0  0  0
   -2.2946    1.1076   -2.3178 C   0  0  0  0  0  0  0  0  0  0  0  0
   -3.1812    1.3581   -1.7499 H   0  0  0  0  0  0  0  0  0  0  0  0
    0.0607   -0.2790    1.7337 C   0  0  0  0  0  0  0  0  0  0  0  0
   -0.0029   -1.2472    2.4909 O   0  0  0  0  0  0  0  0  0  0  0  0
    0.6015    0.8882    2.1049 N   0  0  0  0  0  0  0  0  0  0  0  0
    0.5669    1.6515    1.4453 H   0  0  0  0  0  0  0  0  0  0  0  0
    1.1919    1.1443    3.4160 C   0  0  0  0  0  0  0  0  0  0  0  0
    2.0212    0.4547    3.5887 H   0  0  0  0  0  0  0  0  0  0  0  0
    1.5608    2.1690    3.4673 H   0  0  0  0  0  0  0  0  0  0  0  0
    0.4442    0.9913    4.1958 H   0  0  0  0  0  0  0  0  0  0  0  0
  5  6  2  0  0  0  0
  5  7  1  0  0  0  0
  2  3  1  0  0  0  0
  2  4  1  0  0  0  0
  2  5  1  0  0  0  0
  1  2  1  0  0  0  0
 22 23  2  0  0  0  0
 22 24  1  0  0  0  0
 20 21  1  0  0  0  0
 19 20  1  0  0  0  0
 17 18  1  0  0  0  0
 17 19  2  0  0  0  0
 15 16  1  0  0  0  0
 15 17  1  0  0  0  0
 14 15  1  0  0  0  0
 14 20  2  0  0  0  0
 11 12  1  0  0  0  0
 11 13  1  0  0  0  0
 11 14  1  0  0  0  0
  9 10  1  0  0  0  0
  9 11  1  0  0  0  0
  9 22  1  0  0  0  0
  7  8  1  0  0  0  0
  7  9  1  0  0  0  0
 26 27  1  0  0  0  0
 26 28  1  0  0  0  0
 26 29  1  0  0  0  0
 24 25  1  0  0  0  0
 24 26  1  0  0  0  0
M  END
$$$$
default_name
  -OEChem-01062215323D

 29 29  0     1  0  0  0  0  0999 V2000
   -3.6042   -3.5728    1.4576 H   0  0  0  0  0  0  0  0  0  0  0  0
   -3.5202   -2.6488    0.8866 C   0  0  0  0  0  0  0  0  0  0  0  0
   -4.2052   -1.9048    1.2896 H   0  0  0  0  0  0  0  0  0  0  0  0
   -3.7552   -2.8428   -0.1584 H   0  0  0  0  0  0  0  0  0  0  0  0
   -2.1052   -2.1358    0.9946 C   0  0  0  0  0  0  0  0  0  0  0  0
   -1.2852   -2.7288    1.6826 O   0  0  0  0  0  0  0  0  0  0  0  0
   -1.8202   -1.0288    0.3146 N   0  0  0  0  0  0  0  0  0  0  0  0
   -2.5542   -0.5788   -0.2104 H   0  0  0  0  0  0  0  0  0  0  0  0
   -0.5102   -0.3728    0.3086 C   0  0  1  0  0  0  0  0  0  0  0  0
    0.1784   -0.9729   -0.2880 H   0  0  0  0  0  0  0  0  0  0  0  0
   -0.6407    1.0095   -0.3574 C   0  0  0  0  0  0  0  0  0  0  0  0
   -1.3898    1.5951    0.1785 H   0  0  0  0  0  0  0  0  0  0  0  0
    0.3136    1.5335   -0.2794 H   0  0  0  0  0  0  0  0  0  0  0  0
   -1.0330    0.9446   -1.8108 C   0  0  0  0  0  0  0  0  0  0  0  0
   -0.2155    0.5862   -2.8612 N   0  0  0  0  0  0  0  0  0  0  0  0
    0.7736    0.3940   -2.8065 H   0  0  0  0  0  0  0  0  0  0  0  0
   -0.9654    0.5425   -3.9752 C   0  0  0  0  0  0  0  0  0  0  0  0
   -0.6019    0.2957   -4.9652 H   0  0  0  0  0  0  0  0  0  0  0  0
   -2.2399    0.8460   -3.6893 N   0  0  0  0  0  0  0  0  0  0  0  0
   -2.2946    1.1076   -2.3178 C   0  0  0  0  0  0  0  0  0  0  0  0
   -3.1812    1.3581   -1.7499 H   0  0  0  0  0  0  0  0  0  0  0  0
    0.0607   -0.2790    1.7337 C   0  0  0  0  0  0  0  0  0  0  0  0
    0.2512   -1.3010    2.3926 O   0  0  0  0  0  0  0  0  0  0  0  0
    0.3168    0.9437    2.2153 N   0  0  0  0  0  0  0  0  0  0  0  0
    0.0827    1.7349    1.6339 H   0  0  0  0  0  0  0  0  0  0  0  0
    0.8647    1.2097    3.5428 C   0  0  0  0  0  0  0  0  0  0  0  0
    1.8392    0.7268    3.6438 H   0  0  0  0  0  0  0  0  0  0  0  0
    0.9792    2.2836    3.6927 H   0  0  0  0  0  0  0  0  0  0  0  0
    0.1969    0.8086    4.3069 H   0  0  0  0  0  0  0  0  0  0  0  0
  5  6  2  0  0  0  0
  5  7  1  0  0  0  0
  2  3  1  0  0  0  0
  2  4  1  0  0  0  0
  2  5  1  0  0  0  0
  1  2  1  0  0  0  0
 22 23  2  0  0  0  0
 22 24  1  0  0  0  0
 20 21  1  0  0  0  0
 19 20  1  0  0  0  0
 17 18  1  0  0  0  0
 17 19  2  0  0  0  0
 15 16  1  0  0  0  0
 15 17  1  0  0  0  0
 14 15  1  0  0  0  0
 14 20  2  0  0  0  0
 11 12  1  0  0  0  0
 11 13  1  0  0  0  0
 11 14  1  0  0  0  0
  9 10  1  0  0  0  0
  9 11  1  0  0  0  0
  9 22  1  0  0  0  0
  7  8  1  0  0  0  0
  7  9  1  0  0  0  0
 26 27  1  0  0  0  0
 26 28  1  0  0  0  0
 26 29  1  0  0  0  0
 24 25  1  0  0  0  0
 24 26  1  0  0  0  0
M  END
$$$$
default_name
  -OEChem-01062215323D

 29 29  0     1  0  0  0  0  0999 V2000
   -3.6042   -3.5728    1.4576 H   0  0  0  0  0  0  0  0  0  0  0  0
   -3.5202   -2.6488    0.8866 C   0  0  0  0  0  0  0  0  0  0  0  0
   -4.2052   -1.9048    1.2896 H   0  0  0  0  0  0  0  0  0  0  0  0
   -3.7552   -2.8428   -0.1584 H   0  0  0  0  0  0  0  0  0  0  0  0
   -2.1052   -2.1358    0.9946 C   0  0  0  0  0  0  0  0  0  0  0  0
   -1.2852   -2.7288    1.6826 O   0  0  0  0  0  0  0  0  0  0  0  0
   -1.8202   -1.0288    0.3146 N   0  0  0  0  0  0  0  0  0  0  0  0
   -2.5542   -0.5788   -0.2104 H   0  0  0  0  0  0  0  0  0  0  0  0
   -0.5102   -0.3728    0.3086 C   0  0  1  0  0  0  0  0  0  0  0  0
    0.1784   -0.9729   -0.2880 H   0  0  0  0  0  0  0  0  0  0  0  0
   -0.6407    1.0095   -0.3574 C   0  0  0  0  0  0  0  0  0  0  0  0
   -1.3898    1.5951    0.1785 H   0  0  0  0  0  0  0  0  0  0  0  0
    0.3136    1.5335   -0.2794 H   0  0  0  0  0  0  0  0  0  0  0  0
   -1.0330    0.9446   -1.8108 C   0  0  0  0  0  0  0  0  0  0  0  0
   -0.2155    0.5862   -2.8612 N   0  0  0  0  0  0  0  0  0  0  0  0
    0.7736    0.3940   -2.8065 H   0  0  0  0  0  0  0  0  0  0  0  0
   -0.9654    0.5425   -3.9752 C   0  0  0  0  0  0  0  0  0  0  0  0
   -0.6019    0.2957   -4.9652 H   0  0  0  0  0  0  0  0  0  0  0  0
   -2.2399    0.8460   -3.6893 N   0  0  0  0  0  0  0  0  0  0  0  0
   -2.2946    1.1076   -2.3178 C   0  0  0  0  0  0  0  0  0  0  0  0
   -3.1812    1.3581   -1.7499 H   0  0  0  0  0  0  0  0  0  0  0  0
    0.0607   -0.2790    1.7337 C   0  0  0  0  0  0  0  0  0  0  0  0
    0.5080   -1.2825    2.2885 O   0  0  0  0  0  0  0  0  0  0  0  0
    0.0302    0.9184    2.3318 N   0  0  0  0  0  0  0  0  0  0  0  0
   -0.4022    1.6812    1.8316 H   0  0  0  0  0  0  0  0  0  0  0  0
    0.5349    1.1822    3.6767 C   0  0  0  0  0  0  0  0  0  0  0  0
    1.5991    0.9407    3.7259 H   0  0  0  0  0  0  0  0  0  0  0  0
    0.3935    2.2332    3.9307 H   0  0  0  0  0  0  0  0  0  0  0  0
    0.0037    0.5622    4.4005 H   0  0  0  0  0  0  0  0  0  0  0  0
  5  6  2  0  0  0  0
  5  7  1  0  0  0  0
  2  3  1  0  0  0  0
  2  4  1  0  0  0  0
  2  5  1  0  0  0  0
  1  2  1  0  0  0  0
 22 23  2  0  0  0  0
 22 24  1  0  0  0  0
 20 21  1  0  0  0  0
 19 20  1  0  0  0  0
 17 18  1  0  0  0  0
 17 19  2  0  0  0  0
 15 16  1  0  0  0  0
 15 17  1  0  0  0  0
 14 15  1  0  0  0  0
 14 20  2  0  0  0  0
 11 12  1  0  0  0  0
 11 13  1  0  0  0  0
 11 14  1  0  0  0  0
  9 10  1  0  0  0  0
  9 11  1  0  0  0  0
  9 22  1  0  0  0  0
  7  8  1  0  0  0  0
  7  9  1  0  0  0  0
 26 27  1  0  0  0  0
 26 28  1  0  0  0  0
 26 29  1  0  0  0  0
 24 25  1  0  0  0  0
 24 26  1  0  0  0  0
M  END
$$$$
default_name
  -OEChem-01062215323D

 29 29  0     1  0  0  0  0  0999 V2000
   -3.6042   -3.5728    1.4576 H   0  0  0  0  0  0  0  0  0  0  0  0
   -3.5202   -2.6488    0.8866 C   0  0  0  0  0  0  0  0  0  0  0  0
   -4.2052   -1.9048    1.2896 H   0  0  0  0  0  0  0  0  0  0  0  0
   -3.7552   -2.8428   -0.1584 H   0  0  0  0  0  0  0  0  0  0  0  0
   -2.1052   -2.1358    0.9946 C   0  0  0  0  0  0  0  0  0  0  0  0
   -1.2852   -2.7288    1.6826 O   0  0  0  0  0  0  0  0  0  0  0  0
   -1.8202   -1.0288    0.3146 N   0  0  0  0  0  0  0  0  0  0  0  0
   -2.5542   -0.5788   -0.2104 H   0  0  0  0  0  0  0  0  0  0  0  0
   -0.5102   -0.3728    0.3086 C   0  0  1  0  0  0  0  0  0  0  0  0
    0.1784   -0.9729   -0.2880 H   0  0  0  0  0  0  0  0  0  0  0  0
   -0.6407    1.0095   -0.3574 C   0  0  0  0  0  0  0  0  0  0  0  0
   -1.3898    1.5951    0.1785 H   0  0  0  0  0  0  0  0  0  0  0  0
    0.3136    1.5335   -0.2794 H   0  0  0  0  0  0  0  0  0  0  0  0
   -1.0330    0.9446   -1.8108 C   0  0  0  0  0  0  0  0  0  0  0  0
   -0.2155    0.5862   -2.8612 N   0  0  0  0  0  0  0  0  0  0  0  0
    0.7736    0.3940   -2.8065 H   0  0  0  0  0  0  0  0  0  0  0  0
   -0.9654    0.5425   -3.9752 C   0  0  0  0  0  0  0  0  0  0  0  0
   -0.6019    0.2957   -4.9652 H   0  0  0  0  0  0  0  0  0  0  0  0
   -2.2399    0.8460   -3.6893 N   0  0  0  0  0  0  0  0  0  0  0  0
   -2.2946    1.1076   -2.3178 C   0  0  0  0  0  0  0  0  0  0  0  0
   -3.1812    1.3581   -1.7499 H   0  0  0  0  0  0  0  0  0  0  0  0
    0.0607   -0.2790    1.7337 C   0  0  0  0  0  0  0  0  0  0  0  0
    0.7500   -1.1931    2.1857 O   0  0  0  0  0  0  0  0  0  0  0  0
   -0.2387    0.8141    2.4464 N   0  0  0  0  0  0  0  0  0  0  0  0
   -0.8544    1.4941    2.0251 H   0  0  0  0  0  0  0  0  0  0  0  0
    0.2251    1.0638    3.8086 C   0  0  0  0  0  0  0  0  0  0  0  0
    1.3171    1.0818    3.8296 H   0  0  0  0  0  0  0  0  0  0  0  0
   -0.1563    2.0211    4.1650 H   0  0  0  0  0  0  0  0  0  0  0  0
   -0.1224    0.2688    4.4703 H   0  0  0  0  0  0  0  0  0  0  0  0
  5  6  2  0  0  0  0
  5  7  1  0  0  0  0
  2  3  1  0  0  0  0
  2  4  1  0  0  0  0
  2  5  1  0  0  0  0
  1  2  1  0  0  0  0
 22 23  2  0  0  0  0
 22 24  1  0  0  0  0
 20 21  1  0  0  0  0
 19 20  1  0  0  0  0
 17 18  1  0  0  0  0
 17 19  2  0  0  0  0
 15 16  1  0  0  0  0
 15 17  1  0  0  0  0
 14 15  1  0  0  0  0
 14 20  2  0  0  0  0
 11 12  1  0  0  0  0
 11 13  1  0  0  0  0
 11 14  1  0  0  0  0
  9 10  1  0  0  0  0
  9 11  1  0  0  0  0
  9 22  1  0  0  0  0
  7  8  1  0  0  0  0
  7  9  1  0  0  0  0
 26 27  1  0  0  0  0
 26 28  1  0  0  0  0
 26 29  1  0  0  0  0
 24 25  1  0  0  0  0
 24 26  1  0  0  0  0
M  END
$$$$
default_name
  -OEChem-01062215323D

 29 29  0     1  0  0  0  0  0999 V2000
   -3.6042   -3.5728    1.4576 H   0  0  0  0  0  0  0  0  0  0  0  0
   -3.5202   -2.6488    0.8866 C   0  0  0  0  0  0  0  0  0  0  0  0
   -4.2052   -1.9048    1.2896 H   0  0  0  0  0  0  0  0  0  0  0  0
   -3.7552   -2.8428   -0.1584 H   0  0  0  0  0  0  0  0  0  0  0  0
   -2.1052   -2.1358    0.9946 C   0  0  0  0  0  0  0  0  0  0  0  0
   -1.2852   -2.7288    1.6826 O   0  0  0  0  0  0  0  0  0  0  0  0
   -1.8202   -1.0288    0.3146 N   0  0  0  0  0  0  0  0  0  0  0  0
   -2.5542   -0.5788   -0.2104 H   0  0  0  0  0  0  0  0  0  0  0  0
   -0.5102   -0.3728    0.3086 C   0  0  1  0  0  0  0  0  0  0  0  0
    0.1784   -0.9729   -0.2880 H   0  0  0  0  0  0  0  0  0  0  0  0
   -0.6407    1.0095   -0.3574 C   0  0  0  0  0  0  0  0  0  0  0  0
   -1.3898    1.5951    0.1785 H   0  0  0  0  0  0  0  0  0  0  0  0
    0.3136    1.5335   -0.2794 H   0  0  0  0  0  0  0  0  0  0  0  0
   -1.0330    0.9446   -1.8108 C   0  0  0  0  0  0  0  0  0  0  0  0
   -0.2155    0.5862   -2.8612 N   0  0  0  0  0  0  0  0  0  0  0  0
    0.7736    0.3940   -2.8065 H   0  0  0  0  0  0  0  0  0  0  0  0
   -0.9654    0.5425   -3.9752 C   0  0  0  0  0  0  0  0  0  0  0  0
   -0.6019    0.2957   -4.9652 H   0  0  0  0  0  0  0  0  0  0  0  0
   -2.2399    0.8460   -3.6893 N   0  0  0  0  0  0  0  0  0  0  0  0
   -2.2946    1.1076   -2.3178 C   0  0  0  0  0  0  0  0  0  0  0  0
   -3.1812    1.3581   -1.7499 H   0  0  0  0  0  0  0  0  0  0  0  0
    0.0607   -0.2790    1.7337 C   0  0  0  0  0  0  0  0  0  0  0  0
    0.9606   -1.0388    2.0912 O   0  0  0  0  0  0  0  0  0  0  0  0
   -0.4716    0.6379    2.5513 N   0  0  0  0  0  0  0  0  0  0  0  0
   -1.2434    1.1863    2.2012 H   0  0  0  0  0  0  0  0  0  0  0  0
   -0.0437    0.8624    3.9295 C   0  0  0  0  0  0  0  0  0  0  0  0
    1.0125    1.1405    3.9478 H   0  0  0  0  0  0  0  0  0  0  0  0
   -0.6330    1.6619    4.3795 H   0  0  0  0  0  0  0  0  0  0  0  0
   -0.1728   -0.0515    4.5116 H   0  0  0  0  0  0  0  0  0  0  0  0
  5  6  2  0  0  0  0
  5  7  1  0  0  0  0
  2  3  1  0  0  0  0
  2  4  1  0  0  0  0
  2  5  1  0  0  0  0
  1  2  1  0  0  0  0
 22 23  2  0  0  0  0
 22 24  1  0  0  0  0
 20 21  1  0  0  0  0
 19 20  1  0  0  0  0
 17 18  1  0  0  0  0
 17 19  2  0  0  0  0
 15 16  1  0  0  0  0
 15 17  1  0  0  0  0
 14 15  1  0  0  0  0
 14 20  2  0  0  0  0
 11 12  1  0  0  0  0
 11 13  1  0  0  0  0
 11 14  1  0  0  0  0
  9 10  1  0  0  0  0
  9 11  1  0  0  0  0
  9 22  1  0  0  0  0
  7  8  1  0  0  0  0
  7  9  1  0  0  0  0
 26 27  1  0  0  0  0
 26 28  1  0  0  0  0
 26 29  1  0  0  0  0
 24 25  1  0  0  0  0
 24 26  1  0  0  0  0
M  END
$$$$
default_name
  -OEChem-01062215323D

 29 29  0     1  0  0  0  0  0999 V2000
   -3.6042   -3.5728    1.4576 H   0  0  0  0  0  0  0  0  0  0  0  0
   -3.5202   -2.6488    0.8866 C   0  0  0  0  0  0  0  0  0  0  0  0
   -4.2052   -1.9048    1.2896 H   0  0  0  0  0  0  0  0  0  0  0  0
   -3.7552   -2.8428   -0.1584 H   0  0  0  0  0  0  0  0  0  0  0  0
   -2.1052   -2.1358    0.9946 C   0  0  0  0  0  0  0  0  0  0  0  0
   -1.2852   -2.7288    1.6826 O   0  0  0  0  0  0  0  0  0  0  0  0
   -1.8202   -1.0288    0.3146 N   0  0  0  0  0  0  0  0  0  0  0  0
   -2.5542   -0.5788   -0.2104 H   0  0  0  0  0  0  0  0  0  0  0  0
   -0.5102   -0.3728    0.3086 C   0  0  1  0  0  0  0  0  0  0  0  0
    0.1784   -0.9729   -0.2880 H   0  0  0  0  0  0  0  0  0  0  0  0
   -0.6407    1.0095   -0.3574 C   0  0  0  0  0  0  0  0  0  0  0  0
   -1.3898    1.5951    0.1785 H   0  0  0  0  0  0  0  0  0  0  0  0
    0.3136    1.5335   -0.2794 H   0  0  0  0  0  0  0  0  0  0  0  0
   -1.0330    0.9446   -1.8108 C   0  0  0  0  0  0  0  0  0  0  0  0
   -0.2155    0.5862   -2.8612 N   0  0  0  0  0  0  0  0  0  0  0  0
    0.7736    0.3940   -2.8065 H   0  0  0  0  0  0  0  0  0  0  0  0
   -0.9654    0.5425   -3.9752 C   0  0  0  0  0  0  0  0  0  0  0  0
   -0.6019    0.2957   -4.9652 H   0  0  0  0  0  0  0  0  0  0  0  0
   -2.2399    0.8460   -3.6893 N   0  0  0  0  0  0  0  0  0  0  0  0
   -2.2946    1.1076   -2.3178 C   0  0  0  0  0  0  0  0  0  0  0  0
   -3.1812    1.3581   -1.7499 H   0  0  0  0  0  0  0  0  0  0  0  0
    0.0607   -0.2790    1.7337 C   0  0  0  0  0  0  0  0  0  0  0  0
    1.1256   -0.8301    2.0113 O   0  0  0  0  0  0  0  0  0  0  0  0
   -0.6527    0.4017    2.6393 N   0  0  0  0  0  0  0  0  0  0  0  0
   -1.5425    0.7788    2.3478 H   0  0  0  0  0  0  0  0  0  0  0  0
   -0.2531    0.5918    4.0312 C   0  0  0  0  0  0  0  0  0  0  0  0
    0.7061    1.1129    4.0724 H   0  0  0  0  0  0  0  0  0  0  0  0
   -1.0038    1.1800    4.5598 H   0  0  0  0  0  0  0  0  0  0  0  0
   -0.1440   -0.3769    4.5214 H   0  0  0  0  0  0  0  0  0  0  0  0
  5  6  2  0  0  0  0
  5  7  1  0  0  0  0
  2  3  1  0  0  0  0
  2  4  1  0  0  0  0
  2  5  1  0  0  0  0
  1  2  1  0  0  0  0
 22 23  2  0  0  0  0
 22 24  1  0  0  0  0
 20 21  1  0  0  0  0
 19 20  1  0  0  0  0
 17 18  1  0  0  0  0
 17 19  2  0  0  0  0
 15 16  1  0  0  0  0
 15 17  1  0  0  0  0
 14 15  1  0  0  0  0
 14 20  2  0  0  0  0
 11 12  1  0  0  0  0
 11 13  1  0  0  0  0
 11 14  1  0  0  0  0
  9 10  1  0  0  0  0
  9 11  1  0  0  0  0
  9 22  1  0  0  0  0
  7  8  1  0  0  0  0
  7  9  1  0  0  0  0
 26 27  1  0  0  0  0
 26 28  1  0  0  0  0
 26 29  1  0  0  0  0
 24 25  1  0  0  0  0
 24 26  1  0  0  0  0
M  END
$$$$
default_name
  -OEChem-01062215323D

 29 29  0     1  0  0  0  0  0999 V2000
   -3.6042   -3.5728    1.4576 H   0  0  0  0  0  0  0  0  0  0  0  0
   -3.5202   -2.6488    0.8866 C   0  0  0  0  0  0  0  0  0  0  0  0
   -4.2052   -1.9048    1.2896 H   0  0  0  0  0  0  0  0  0  0  0  0
   -3.7552   -2.8428   -0.1584 H   0  0  0  0  0  0  0  0  0  0  0  0
   -2.1052   -2.1358    0.9946 C   0  0  0  0  0  0  0  0  0  0  0  0
   -1.2852   -2.7288    1.6826 O   0  0  0  0  0  0  0  0  0  0  0  0
   -1.8202   -1.0288    0.3146 N   0  0  0  0  0  0  0  0  0  0  0  0
   -2.5542   -0.5788   -0.2104 H   0  0  0  0  0  0  0  0  0  0  0  0
   -0.5102   -0.3728    0.3086 C   0  0  1  0  0  0  0  0  0  0  0  0
    0.1784   -0.9729   -0.2880 H   0  0  0  0  0  0  0  0  0  0  0  0
   -0.6407    1.0095   -0.3574 C   0  0  0  0  0  0  0  0  0  0  0  0
   -1.3898    1.5951    0.1785 H   0  0  0  0  0  0  0  0  0  0  0  0
    0.3136    1.5335   -0.2794 H   0  0  0  0  0  0  0  0  0  0  0  0
   -1.0330    0.9446   -1.8108 C   0  0  0  0  0  0  0  0  0  0  0  0
   -0.2155    0.5862   -2.8612 N   0  0  0  0  0  0  0  0  0  0  0  0
    0.7736    0.3940   -2.8065 H   0  0  0  0  0  0  0  0  0  0  0  0
   -0.9654    0.5425   -3.9752 C   0  0  0  0  0  0  0  0  0  0  0  0
   -0.6019    0.2957   -4.9652 H   0  0  0  0  0  0  0  0  0  0  0  0
   -2.2399    0.8460   -3.6893 N   0  0  0  0  0  0  0  0  0  0  0  0
   -2.2946    1.1076   -2.3178 C   0  0  0  0  0  0  0  0  0  0  0  0
   -3.1812    1.3581   -1.7499 H   0  0  0  0  0  0  0  0  0  0  0  0
    0.0607   -0.2790    1.7337 C   0  0  0  0  0  0  0  0  0  0  0  0
    1.2337   -0.5814    1.9517 O   0  0  0  0  0  0  0  0  0  0  0  0
   -0.7696    0.1217    2.7046 N   0  0  0  0  0  0  0  0  0  0  0  0
   -1.7314    0.2994    2.4550 H   0  0  0  0  0  0  0  0  0  0  0  0
   -0.3889    0.2704    4.1068 C   0  0  0  0  0  0  0  0  0  0  0  0
    0.4187    1.0007    4.1949 H   0  0  0  0  0  0  0  0  0  0  0  0
   -1.2436    0.6083    4.6935 H   0  0  0  0  0  0  0  0  0  0  0  0
   -0.0379   -0.6853    4.4992 H   0  0  0  0  0  0  0  0  0  0  0  0
  5  6  2  0  0  0  0
  5  7  1  0  0  0  0
  2  3  1  0  0  0  0
  2  4  1  0  0  0  0
  2  5  1  0  0  0  0
  1  2  1  0  0  0  0
 22 23  2  0  0  0  0
 22 24  1  0  0  0  0
 20 21  1  0  0  0  0
 19 20  1  0  0  0  0
 17 18  1  0  0  0  0
 17 19  2  0  0  0  0
 15 16  1  0  0  0  0
 15 17  1  0  0  0  0
 14 15  1  0  0  0  0
 14 20  2  0  0  0  0
 11 12  1  0  0  0  0
 11 13  1  0  0  0  0
 11 14  1  0  0  0  0
  9 10  1  0  0  0  0
  9 11  1  0  0  0  0
  9 22  1  0  0  0  0
  7  8  1  0  0  0  0
  7  9  1  0  0  0  0
 26 27  1  0  0  0  0
 26 28  1  0  0  0  0
 26 29  1  0  0  0  0
 24 25  1  0  0  0  0
 24 26  1  0  0  0  0
M  END
$$$$
default_name
  -OEChem-01062215323D

 29 29  0     1  0  0  0  0  0999 V2000
   -3.6042   -3.5728    1.4576 H   0  0  0  0  0  0  0  0  0  0  0  0
   -3.5202   -2.6488    0.8866 C   0  0  0  0  0  0  0  0  0  0  0  0
   -4.2052   -1.9048    1.2896 H   0  0  0  0  0  0  0  0  0  0  0  0
   -3.7552   -2.8428   -0.1584 H   0  0  0  0  0  0  0  0  0  0  0  0
   -2.1052   -2.1358    0.9946 C   0  0  0  0  0  0  0  0  0  0  0  0
   -1.2852   -2.7288    1.6826 O   0  0  0  0  0  0  0  0  0  0  0  0
   -1.8202   -1.0288    0.3146 N   0  0  0  0  0  0  0  0  0  0  0  0
   -2.5542   -0.5788   -0.2104 H   0  0  0  0  0  0  0  0  0  0  0  0
   -0.5102   -0.3728    0.3086 C   0  0  1  0  0  0  0  0  0  0  0  0
    0.1784   -0.9729   -0.2880 H   0  0  0  0  0  0  0  0  0  0  0  0
   -0.6407    1.0095   -0.3574 C   0  0  0  0  0  0  0  0  0  0  0  0
   -1.3898    1.5951    0.1785 H   0  0  0  0  0  0  0  0  0  0  0  0
    0.3136    1.5335   -0.2794 H   0  0  0  0  0  0  0  0  0  0  0  0
   -1.0330    0.9446   -1.8108 C   0  0  0  0  0  0  0  0  0  0  0  0
   -0.2155    0.5862   -2.8612 N   0  0  0  0  0  0  0  0  0  0  0  0
    0.7736    0.3940   -2.8065 H   0  0  0  0  0  0  0  0  0  0  0  0
   -0.9654    0.5425   -3.9752 C   0  0  0  0  0  0  0  0  0  0  0  0
   -0.6019    0.2957   -4.9652 H   0  0  0  0  0  0  0  0  0  0  0  0
   -2.2399    0.8460   -3.6893 N   0  0  0  0  0  0  0  0  0  0  0  0
   -2.2946    1.1076   -2.3178 C   0  0  0  0  0  0  0  0  0  0  0  0
   -3.1812    1.3581   -1.7499 H   0  0  0  0  0  0  0  0  0  0  0  0
    0.0607   -0.2790    1.7337 C   0  0  0  0  0  0  0  0  0  0  0  0
    1.2775   -0.3094    1.9162 O   0  0  0  0  0  0  0  0  0  0  0  0
   -0.8143   -0.1830    2.7425 N   0  0  0  0  0  0  0  0  0  0  0  0
   -1.7972   -0.2193    2.5155 H   0  0  0  0  0  0  0  0  0  0  0  0
   -0.4418   -0.0798    4.1510 C   0  0  0  0  0  0  0  0  0  0  0  0
    0.1699    0.8116    4.3070 H   0  0  0  0  0  0  0  0  0  0  0  0
   -1.3360   -0.0143    4.7714 H   0  0  0  0  0  0  0  0  0  0  0  0
    0.1381   -0.9556    4.4465 H   0  0  0  0  0  0  0  0  0  0  0  0
  5  6  2  0  0  0  0
  5  7  1  0  0  0  0
  2  3  1  0  0  0  0
  2  4  1  0  0  0  0
  2  5  1  0  0  0  0
  1  2  1  0  0  0  0
 22 23  2  0  0  0  0
 22 24  1  0  0  0  0
 20 21  1  0  0  0  0
 19 20  1  0  0  0  0
 17 18  1  0  0  0  0
 17 19  2  0  0  0  0
 15 16  1  0  0  0  0
 15 17  1  0  0  0  0
 14 15  1  0  0  0  0
 14 20  2  0  0  0  0
 11 12  1  0  0  0  0
 11 13  1  0  0  0  0
 11 14  1  0  0  0  0
  9 10  1  0  0  0  0
  9 11  1  0  0  0  0
  9 22  1  0  0  0  0
  7  8  1  0  0  0  0
  7  9  1  0  0  0  0
 26 27  1  0  0  0  0
 26 28  1  0  0  0  0
 26 29  1  0  0  0  0
 24 25  1  0  0  0  0
 24 26  1  0  0  0  0
M  END
$$$$
default_name
  -OEChem-01062215323D

 29 29  0     1  0  0  0  0  0999 V2000
   -3.6042   -3.5728    1.4576 H   0  0  0  0  0  0  0  0  0  0  0  0
   -3.5202   -2.6488    0.8866 C   0  0  0  0  0  0  0  0  0  0  0  0
   -4.2052   -1.9048    1.2896 H   0  0  0  0  0  0  0  0  0  0  0  0
   -3.7552   -2.8428   -0.1584 H   0  0  0  0  0  0  0  0  0  0  0  0
   -2.1052   -2.1358    0.9946 C   0  0  0  0  0  0  0  0  0  0  0  0
   -1.2852   -2.7288    1.6826 O   0  0  0  0  0  0  0  0  0  0  0  0
   -1.8202   -1.0288    0.3146 N   0  0  0  0  0  0  0  0  0  0  0  0
   -2.5542   -0.5788   -0.2104 H   0  0  0  0  0  0  0  0  0  0  0  0
   -0.5102   -0.3728    0.3086 C   0  0  1  0  0  0  0  0  0  0  0  0
    0.1784   -0.9729   -0.2880 H   0  0  0  0  0  0  0  0  0  0  0  0
   -0.6407    1.0095   -0.3574 C   0  0  0  0  0  0  0  0  0  0  0  0
   -1.3898    1.5951    0.1785 H   0  0  0  0  0  0  0  0  0  0  0  0
    0.3136    1.5335   -0.2794 H   0  0  0  0  0  0  0  0  0  0  0  0
   -1.0330    0.9446   -1.8108 C   0  0  0  0  0  0  0  0  0  0  0  0
   -0.2155    0.5862   -2.8612 N   0  0  0  0  0  0  0  0  0  0  0  0
    0.7736    0.3940   -2.8065 H   0  0  0  0  0  0  0  0  0  0  0  0
   -0.9654    0.5425   -3.9752 C   0  0  0  0  0  0  0  0  0  0  0  0
   -0.6019    0.2957   -4.9652 H   0  0  0  0  0  0  0  0  0  0  0  0
   -2.2399    0.8460   -3.6893 N   0  0  0  0  0  0  0  0  0  0  0  0
   -2.2946    1.1076   -2.3178 C   0  0  0  0  0  0  0  0  0  0  0  0
   -3.1812    1.3581   -1.7499 H   0  0  0  0  0  0  0  0  0  0  0  0
    0.0607   -0.2790    1.7337 C   0  0  0  0  0  0  0  0  0  0  0  0
    1.2540   -0.0328    1.9075 O   0  0  0  0  0  0  0  0  0  0  0  0
   -0.7838   -0.4918    2.7506 N   0  0  0  0  0  0  0  0  0  0  0  0
   -1.7354   -0.7419    2.5251 H   0  0  0  0  0  0  0  0  0  0  0  0
   -0.4082   -0.4351    4.1609 C   0  0  0  0  0  0  0  0  0  0  0  0
   -0.0233    0.5586    4.4010 H   0  0  0  0  0  0  0  0  0  0  0  0
   -1.2748   -0.6453    4.7884 H   0  0  0  0  0  0  0  0  0  0  0  0
    0.3721   -1.1694    4.3668 H   0  0  0  0  0  0  0  0  0  0  0  0
  5  6  2  0  0  0  0
  5  7  1  0  0  0  0
  2  3  1  0  0  0  0
  2  4  1  0  0  0  0
  2  5  1  0  0  0  0
  1  2  1  0  0  0  0
 22 23  2  0  0  0  0
 22 24  1  0  0  0  0
 20 21  1  0  0  0  0
 19 20  1  0  0  0  0
 17 18  1  0  0  0  0
 17 19  2  0  0  0  0
 15 16  1  0  0  0  0
 15 17  1  0  0  0  0
 14 15  1  0  0  0  0
 14 20  2  0  0  0  0
 11 12  1  0  0  0  0
 11 13  1  0  0  0  0
 11 14  1  0  0  0  0
  9 10  1  0  0  0  0
  9 11  1  0  0  0  0
  9 22  1  0  0  0  0
  7  8  1  0  0  0  0
  7  9  1  0  0  0  0
 26 27  1  0  0  0  0
 26 28  1  0  0  0  0
 26 29  1  0  0  0  0
 24 25  1  0  0  0  0
 24 26  1  0  0  0  0
M  END
$$$$
default_name
  -OEChem-01062215323D

 29 29  0     1  0  0  0  0  0999 V2000
   -3.6042   -3.5728    1.4576 H   0  0  0  0  0  0  0  0  0  0  0  0
   -3.5202   -2.6488    0.8866 C   0  0  0  0  0  0  0  0  0  0  0  0
   -4.2052   -1.9048    1.2896 H   0  0  0  0  0  0  0  0  0  0  0  0
   -3.7552   -2.8428   -0.1584 H   0  0  0  0  0  0  0  0  0  0  0  0
   -2.1052   -2.1358    0.9946 C   0  0  0  0  0  0  0  0  0  0  0  0
   -1.2852   -2.7288    1.6826 O   0  0  0  0  0  0  0  0  0  0  0  0
   -1.8202   -1.0288    0.3146 N   0  0  0  0  0  0  0  0  0  0  0  0
   -2.5542   -0.5788   -0.2104 H   0  0  0  0  0  0  0  0  0  0  0  0
   -0.5102   -0.3728    0.3086 C   0  0  1  0  0  0  0  0  0  0  0  0
    0.1784   -0.9729   -0.2880 H   0  0  0  0  0  0  0  0  0  0  0  0
   -0.6407    1.0095   -0.3574 C   0  0  0  0  0  0  0  0  0  0  0  0
   -1.3898    1.5951    0.1785 H   0  0  0  0  0  0  0  0  0  0  0  0
    0.3136    1.5335   -0.2794 H   0  0  0  0  0  0  0  0  0  0  0  0
   -1.0330    0.9446   -1.8108 C   0  0  0  0  0  0  0  0  0  0  0  0
   -0.2155    0.5862   -2.8612 N   0  0  0  0  0  0  0  0  0  0  0  0
    0.7736    0.3940   -2.8065 H   0  0  0  0  0  0  0  0  0  0  0  0
   -0.9654    0.5425   -3.9752 C   0  0  0  0  0  0  0  0  0  0  0  0
   -0.6019    0.2957   -4.9652 H   0  0  0  0  0  0  0  0  0  0  0  0
   -2.2399    0.8460   -3.6893 N   0  0  0  0  0  0  0  0  0  0  0  0
   -2.2946    1.1076   -2.3178 C   0  0  0  0  0  0  0  0  0  0  0  0
   -3.1812    1.3581   -1.7499 H   0  0  0  0  0  0  0  0  0  0  0  0
    0.0607   -0.2790    1.7337 C   0  0  0  0  0  0  0  0  0  0  0  0
    1.1649    0.2295    1.9259 O   0  0  0  0  0  0  0  0  0  0  0  0
   -0.6802   -0.7835    2.7283 N   0  0  0  0  0  0  0  0  0  0  0  0
   -1.5502   -1.2328    2.4832 H   0  0  0  0  0  0  0  0  0  0  0  0
   -0.2904   -0.7711    4.1358 C   0  0  0  0  0  0  0  0  0  0  0  0
   -0.1477    0.2589    4.4706 H   0  0  0  0  0  0  0  0  0  0  0  0
   -1.0640   -1.2417    4.7432 H   0  0  0  0  0  0  0  0  0  0  0  0
    0.6482   -1.3122    4.2655 H   0  0  0  0  0  0  0  0  0  0  0  0
  5  6  2  0  0  0  0
  5  7  1  0  0  0  0
  2  3  1  0  0  0  0
  2  4  1  0  0  0  0
  2  5  1  0  0  0  0
  1  2  1  0  0  0  0
 22 23  2  0  0  0  0
 22 24  1  0  0  0  0
 20 21  1  0  0  0  0
 19 20  1  0  0  0  0
 17 18  1  0  0  0  0
 17 19  2  0  0  0  0
 15 16  1  0  0  0  0
 15 17  1  0  0  0  0
 14 15  1  0  0  0  0
 14 20  2  0  0  0  0
 11 12  1  0  0  0  0
 11 13  1  0  0  0  0
 11 14  1  0  0  0  0
  9 10  1  0  0  0  0
  9 11  1  0  0  0  0
  9 22  1  0  0  0  0
  7  8  1  0  0  0  0
  7  9  1  0  0  0  0
 26 27  1  0  0  0  0
 26 28  1  0  0  0  0
 26 29  1  0  0  0  0
 24 25  1  0  0  0  0
 24 26  1  0  0  0  0
M  END
$$$$
default_name
  -OEChem-01062215323D

 29 29  0     1  0  0  0  0  0999 V2000
   -3.6042   -3.5728    1.4576 H   0  0  0  0  0  0  0  0  0  0  0  0
   -3.5202   -2.6488    0.8866 C   0  0  0  0  0  0  0  0  0  0  0  0
   -4.2052   -1.9048    1.2896 H   0  0  0  0  0  0  0  0  0  0  0  0
   -3.7552   -2.8428   -0.1584 H   0  0  0  0  0  0  0  0  0  0  0  0
   -2.1052   -2.1358    0.9946 C   0  0  0  0  0  0  0  0  0  0  0  0
   -1.2852   -2.7288    1.6826 O   0  0  0  0  0  0  0  0  0  0  0  0
   -1.8202   -1.0288    0.3146 N   0  0  0  0  0  0  0  0  0  0  0  0
   -2.5542   -0.5788   -0.2104 H   0  0  0  0  0  0  0  0  0  0  0  0
   -0.5102   -0.3728    0.3086 C   0  0  1  0  0  0  0  0  0  0  0  0
    0.1784   -0.9729   -0.2880 H   0  0  0  0  0  0  0  0  0  0  0  0
   -0.6407    1.0095   -0.3574 C   0  0  0  0  0  0  0  0  0  0  0  0
   -1.3898    1.5951    0.1785 H   0  0  0  0  0  0  0  0  0  0  0  0
    0.3136    1.5335   -0.2794 H   0  0  0  0  0  0  0  0  0  0  0  0
   -1.0330    0.9446   -1.8108 C   0  0  0  0  0  0  0  0  0  0  0  0
   -0.2155    0.5862   -2.8612 N   0  0  0  0  0  0  0  0  0  0  0  0
    0.7736    0.3940   -2.8065 H   0  0  0  0  0  0  0  0  0  0  0  0
   -0.9654    0.5425   -3.9752 C   0  0  0  0  0  0  0  0  0  0  0  0
   -0.6019    0.2957   -4.9652 H   0  0  0  0  0  0  0  0  0  0  0  0
   -2.2399    0.8460   -3.6893 N   0  0  0  0  0  0  0  0  0  0  0  0
   -2.2946    1.1076   -2.3178 C   0  0  0  0  0  0  0  0  0  0  0  0
   -3.1812    1.3581   -1.7499 H   0  0  0  0  0  0  0  0  0  0  0  0
    0.0607   -0.2790    1.7337 C   0  0  0  0  0  0  0  0  0  0  0  0
    1.0162    0.4598    1.9704 O   0  0  0  0  0  0  0  0  0  0  0  0
   -0.5105   -1.0382    2.6771 N   0  0  0  0  0  0  0  0  0  0  0  0
   -1.2543   -1.6585    2.3927 H   0  0  0  0  0  0  0  0  0  0  0  0
   -0.0964   -1.0650    4.0774 C   0  0  0  0  0  0  0  0  0  0  0  0
   -0.1949   -0.0672    4.5109 H   0  0  0  0  0  0  0  0  0  0  0  0
   -0.7181   -1.7630    4.6389 H   0  0  0  0  0  0  0  0  0  0  0  0
    0.9475   -1.3741    4.1497 H   0  0  0  0  0  0  0  0  0  0  0  0
  5  6  2  0  0  0  0
  5  7  1  0  0  0  0
  2  3  1  0  0  0  0
  2  4  1  0  0  0  0
  2  5  1  0  0  0  0
  1  2  1  0  0  0  0
 22 23  2  0  0  0  0
 22 24  1  0  0  0  0
 20 21  1  0  0  0  0
 19 20  1  0  0  0  0
 17 18  1  0  0  0  0
 17 19  2  0  0  0  0
 15 16  1  0  0  0  0
 15 17  1  0  0  0  0
 14 15  1  0  0  0  0
 14 20  2  0  0  0  0
 11 12  1  0  0  0  0
 11 13  1  0  0  0  0
 11 14  1  0  0  0  0
  9 10  1  0  0  0  0
  9 11  1  0  0  0  0
  9 22  1  0  0  0  0
  7  8  1  0  0  0  0
  7  9  1  0  0  0  0
 26 27  1  0  0  0  0
 26 28  1  0  0  0  0
 26 29  1  0  0  0  0
 24 25  1  0  0  0  0
 24 26  1  0  0  0  0
M  END
$$$$
default_name
  -OEChem-01062215323D

 29 29  0     1  0  0  0  0  0999 V2000
   -3.6042   -3.5728    1.4576 H   0  0  0  0  0  0  0  0  0  0  0  0
   -3.5202   -2.6488    0.8866 C   0  0  0  0  0  0  0  0  0  0  0  0
   -4.2052   -1.9048    1.2896 H   0  0  0  0  0  0  0  0  0  0  0  0
   -3.7552   -2.8428   -0.1584 H   0  0  0  0  0  0  0  0  0  0  0  0
   -2.1052   -2.1358    0.9946 C   0  0  0  0  0  0  0  0  0  0  0  0
   -1.2852   -2.7288    1.6826 O   0  0  0  0  0  0  0  0  0  0  0  0
   -1.8202   -1.0288    0.3146 N   0  0  0  0  0  0  0  0  0  0  0  0
   -2.5542   -0.5788   -0.2104 H   0  0  0  0  0  0  0  0  0  0  0  0
   -0.5102   -0.3728    0.3086 C   0  0  1  0  0  0  0  0  0  0  0  0
    0.1784   -0.9729   -0.2880 H   0  0  0  0  0  0  0  0  0  0  0  0
   -0.6407    1.0095   -0.3574 C   0  0  0  0  0  0  0  0  0  0  0  0
   -1.3898    1.5951    0.1785 H   0  0  0  0  0  0  0  0  0  0  0  0
    0.3136    1.5335   -0.2794 H   0  0  0  0  0  0  0  0  0  0  0  0
   -1.0330    0.9446   -1.8108 C   0  0  0  0  0  0  0  0  0  0  0  0
   -0.2155    0.5862   -2.8612 N   0  0  0  0  0  0  0  0  0  0  0  0
    0.7736    0.3940   -2.8065 H   0  0  0  0  0  0  0  0  0  0  0  0
   -0.9654    0.5425   -3.9752 C   0  0  0  0  0  0  0  0  0  0  0  0
   -0.6019    0.2957   -4.9652 H   0  0  0  0  0  0  0  0  0  0  0  0
   -2.2399    0.8460   -3.6893 N   0  0  0  0  0  0  0  0  0  0  0  0
   -2.2946    1.1076   -2.3178 C   0  0  0  0  0  0  0  0  0  0  0  0
   -3.1812    1.3581   -1.7499 H   0  0  0  0  0  0  0  0  0  0  0  0
    0.0607   -0.2790    1.7337 C   0  0  0  0  0  0  0  0  0  0  0  0
    0.8180    0.6423    2.0377 O   0  0  0  0  0  0  0  0  0  0  0  0
   -0.2863   -1.2387    2.6004 N   0  0  0  0  0  0  0  0  0  0  0  0
   -0.8678   -1.9901    2.2596 H   0  0  0  0  0  0  0  0  0  0  0  0
    0.1605   -1.2968    3.9897 C   0  0  0  0  0  0  0  0  0  0  0  0
   -0.1617   -0.3974    4.5193 H   0  0  0  0  0  0  0  0  0  0  0  0
   -0.2607   -2.1735    4.4826 H   0  0  0  0  0  0  0  0  0  0  0  0
    1.2496   -1.3511    4.0271 H   0  0  0  0  0  0  0  0  0  0  0  0
  5  6  2  0  0  0  0
  5  7  1  0  0  0  0
  2  3  1  0  0  0  0
  2  4  1  0  0  0  0
  2  5  1  0  0  0  0
  1  2  1  0  0  0  0
 22 23  2  0  0  0  0
 22 24  1  0  0  0  0
 20 21  1  0  0  0  0
 19 20  1  0  0  0  0
 17 18  1  0  0  0  0
 17 19  2  0  0  0  0
 15 16  1  0  0  0  0
 15 17  1  0  0  0  0
 14 15  1  0  0  0  0
 14 20  2  0  0  0  0
 11 12  1  0  0  0  0
 11 13  1  0  0  0  0
 11 14  1  0  0  0  0
  9 10  1  0  0  0  0
  9 11  1  0  0  0  0
  9 22  1  0  0  0  0
  7  8  1  0  0  0  0
  7  9  1  0  0  0  0
 26 27  1  0  0  0  0
 26 28  1  0  0  0  0
 26 29  1  0  0  0  0
 24 25  1  0  0  0  0
 24 26  1  0  0  0  0
M  END
$$$$
default_name
  -OEChem-01062215323D

 29 29  0     1  0  0  0  0  0999 V2000
   -3.6042   -3.5728    1.4576 H   0  0  0  0  0  0  0  0  0  0  0  0
   -3.5202   -2.6488    0.8866 C   0  0  0  0  0  0  0  0  0  0  0  0
   -4.2052   -1.9048    1.2896 H   0  0  0  0  0  0  0  0  0  0  0  0
   -3.7552   -2.8428   -0.1584 H   0  0  0  0  0  0  0  0  0  0  0  0
   -2.1052   -2.1358    0.9946 C   0  0  0  0  0  0  0  0  0  0  0  0
   -1.2852   -2.7288    1.6826 O   0  0  0  0  0  0  0  0  0  0  0  0
   -1.8202   -1.0288    0.3146 N   0  0  0  0  0  0  0  0  0  0  0  0
   -2.5542   -0.5788   -0.2104 H   0  0  0  0  0  0  0  0  0  0  0  0
   -0.5102   -0.3728    0.3086 C   0  0  1  0  0  0  0  0  0  0  0  0
    0.1784   -0.9729   -0.2880 H   0  0  0  0  0  0  0  0  0  0  0  0
   -0.6407    1.0095   -0.3574 C   0  0  0  0  0  0  0  0  0  0  0  0
   -1.3898    1.5951    0.1785 H   0  0  0  0  0  0  0  0  0  0  0  0
    0.3136    1.5335   -0.2794 H   0  0  0  0  0  0  0  0  0  0  0  0
   -1.0330    0.9446   -1.8108 C   0  0  0  0  0  0  0  0  0  0  0  0
   -0.2155    0.5862   -2.8612 N   0  0  0  0  0  0  0  0  0  0  0  0
    0.7736    0.3940   -2.8065 H   0  0  0  0  0  0  0  0  0  0  0  0
   -0.9654    0.5425   -3.9752 C   0  0  0  0  0  0  0  0  0  0  0  0
   -0.6019    0.2957   -4.9652 H   0  0  0  0  0  0  0  0  0  0  0  0
   -2.2399    0.8460   -3.6893 N   0  0  0  0  0  0  0  0  0  0  0  0
   -2.2946    1.1076   -2.3178 C   0  0  0  0  0  0  0  0  0  0  0  0
   -3.1812    1.3581   -1.7499 H   0  0  0  0  0  0  0  0  0  0  0  0
    0.0607   -0.2790    1.7337 C   0  0  0  0  0  0  0  0  0  0  0  0
    0.5839    0.7646    2.1235 O   0  0  0  0  0  0  0  0  0  0  0  0
   -0.0229   -1.3712    2.5036 N   0  0  0  0  0  0  0  0  0  0  0  0
   -0.4170   -2.2049    2.0932 H   0  0  0  0  0  0  0  0  0  0  0  0
    0.4629   -1.4506    3.8787 C   0  0  0  0  0  0  0  0  0  0  0  0
   -0.0503   -0.7091    4.4952 H   0  0  0  0  0  0  0  0  0  0  0  0
    0.2772   -2.4453    4.2850 H   0  0  0  0  0  0  0  0  0  0  0  0
    1.5340   -1.2446    3.9062 H   0  0  0  0  0  0  0  0  0  0  0  0
  5  6  2  0  0  0  0
  5  7  1  0  0  0  0
  2  3  1  0  0  0  0
  2  4  1  0  0  0  0
  2  5  1  0  0  0  0
  1  2  1  0  0  0  0
 22 23  2  0  0  0  0
 22 24  1  0  0  0  0
 20 21  1  0  0  0  0
 19 20  1  0  0  0  0
 17 18  1  0  0  0  0
 17 19  2  0  0  0  0
 15 16  1  0  0  0  0
 15 17  1  0  0  0  0
 14 15  1  0  0  0  0
 14 20  2  0  0  0  0
 11 12  1  0  0  0  0
 11 13  1  0  0  0  0
 11 14  1  0  0  0  0
  9 10  1  0  0  0  0
  9 11  1  0  0  0  0
  9 22  1  0  0  0  0
  7  8  1  0  0  0  0
  7  9  1  0  0  0  0
 26 27  1  0  0  0  0
 26 28  1  0  0  0  0
 26 29  1  0  0  0  0
 24 25  1  0  0  0  0
 24 26  1  0  0  0  0
M  END
$$$$
default_name
  -OEChem-01062215323D

 29 29  0     1  0  0  0  0  0999 V2000
   -3.6042   -3.5728    1.4576 H   0  0  0  0  0  0  0  0  0  0  0  0
   -3.5202   -2.6488    0.8866 C   0  0  0  0  0  0  0  0  0  0  0  0
   -4.2052   -1.9048    1.2896 H   0  0  0  0  0  0  0  0  0  0  0  0
   -3.7552   -2.8428   -0.1584 H   0  0  0  0  0  0  0  0  0  0  0  0
   -2.1052   -2.1358    0.9946 C   0  0  0  0  0  0  0  0  0  0  0  0
   -1.2852   -2.7288    1.6826 O   0  0  0  0  0  0  0  0  0  0  0  0
   -1.8202   -1.0288    0.3146 N   0  0  0  0  0  0  0  0  0  0  0  0
   -2.5542   -0.5788   -0.2104 H   0  0  0  0  0  0  0  0  0  0  0  0
   -0.5102   -0.3728    0.3086 C   0  0  1  0  0  0  0  0  0  0  0  0
    0.1784   -0.9729   -0.2880 H   0  0  0  0  0  0  0  0  0  0  0  0
   -0.6407    1.0095   -0.3574 C   0  0  0  0  0  0  0  0  0  0  0  0
   -1.3898    1.5951    0.1785 H   0  0  0  0  0  0  0  0  0  0  0  0
    0.3136    1.5335   -0.2794 H   0  0  0  0  0  0  0  0  0  0  0  0
   -1.0330    0.9446   -1.8108 C   0  0  0  0  0  0  0  0  0  0  0  0
   -0.2155    0.5862   -2.8612 N   0  0  0  0  0  0  0  0  0  0  0  0
    0.7736    0.3940   -2.8065 H   0  0  0  0  0  0  0  0  0  0  0  0
   -0.9654    0.5425   -3.9752 C   0  0  0  0  0  0  0  0  0  0  0  0
   -0.6019    0.2957   -4.9652 H   0  0  0  0  0  0  0  0  0  0  0  0
   -2.2399    0.8460   -3.6893 N   0  0  0  0  0  0  0  0  0  0  0  0
   -2.2946    1.1076   -2.3178 C   0  0  0  0  0  0  0  0  0  0  0  0
   -3.1812    1.3581   -1.7499 H   0  0  0  0  0  0  0  0  0  0  0  0
    0.0607   -0.2790    1.7337 C   0  0  0  0  0  0  0  0  0  0  0  0
    0.3297    0.8183    2.2218 O   0  0  0  0  0  0  0  0  0  0  0  0
    0.2618   -1.4267    2.3932 N   0  0  0  0  0  0  0  0  0  0  0  0
    0.0672   -2.2883    1.9046 H   0  0  0  0  0  0  0  0  0  0  0  0
    0.7901   -1.5160    3.7519 C   0  0  0  0  0  0  0  0  0  0  0  0
    0.1317   -0.9812    4.4402 H   0  0  0  0  0  0  0  0  0  0  0  0
    0.8588   -2.5599    4.0595 H   0  0  0  0  0  0  0  0  0  0  0  0
    1.7813   -1.0619    3.7951 H   0  0  0  0  0  0  0  0  0  0  0  0
  5  6  2  0  0  0  0
  5  7  1  0  0  0  0
  2  3  1  0  0  0  0
  2  4  1  0  0  0  0
  2  5  1  0  0  0  0
  1  2  1  0  0  0  0
 22 23  2  0  0  0  0
 22 24  1  0  0  0  0
 20 21  1  0  0  0  0
 19 20  1  0  0  0  0
 17 18  1  0  0  0  0
 17 19  2  0  0  0  0
 15 16  1  0  0  0  0
 15 17  1  0  0  0  0
 14 15  1  0  0  0  0
 14 20  2  0  0  0  0
 11 12  1  0  0  0  0
 11 13  1  0  0  0  0
 11 14  1  0  0  0  0
  9 10  1  0  0  0  0
  9 11  1  0  0  0  0
  9 22  1  0  0  0  0
  7  8  1  0  0  0  0
  7  9  1  0  0  0  0
 26 27  1  0  0  0  0
 26 28  1  0  0  0  0
 26 29  1  0  0  0  0
 24 25  1  0  0  0  0
 24 26  1  0  0  0  0
M  END
$$$$
default_name
  -OEChem-01062215323D

 29 29  0     1  0  0  0  0  0999 V2000
   -3.6042   -3.5728    1.4576 H   0  0  0  0  0  0  0  0  0  0  0  0
   -3.5202   -2.6488    0.8866 C   0  0  0  0  0  0  0  0  0  0  0  0
   -4.2052   -1.9048    1.2896 H   0  0  0  0  0  0  0  0  0  0  0  0
   -3.7552   -2.8428   -0.1584 H   0  0  0  0  0  0  0  0  0  0  0  0
   -2.1052   -2.1358    0.9946 C   0  0  0  0  0  0  0  0  0  0  0  0
   -1.2852   -2.7288    1.6826 O   0  0  0  0  0  0  0  0  0  0  0  0
   -1.8202   -1.0288    0.3146 N   0  0  0  0  0  0  0  0  0  0  0  0
   -2.5542   -0.5788   -0.2104 H   0  0  0  0  0  0  0  0  0  0  0  0
   -0.5102   -0.3728    0.3086 C   0  0  1  0  0  0  0  0  0  0  0  0
    0.1784   -0.9729   -0.2880 H   0  0  0  0  0  0  0  0  0  0  0  0
   -0.6407    1.0095   -0.3574 C   0  0  0  0  0  0  0  0  0  0  0  0
   -1.3898    1.5951    0.1785 H   0  0  0  0  0  0  0  0  0  0  0  0
    0.3136    1.5335   -0.2794 H   0  0  0  0  0  0  0  0  0  0  0  0
   -1.0330    0.9446   -1.8108 C   0  0  0  0  0  0  0  0  0  0  0  0
   -0.2155    0.5862   -2.8612 N   0  0  0  0  0  0  0  0  0  0  0  0
    0.7736    0.3940   -2.8065 H   0  0  0  0  0  0  0  0  0  0  0  0
   -0.9654    0.5425   -3.9752 C   0  0  0  0  0  0  0  0  0  0  0  0
   -0.6019    0.2957   -4.9652 H   0  0  0  0  0  0  0  0  0  0  0  0
   -2.2399    0.8460   -3.6893 N   0  0  0  0  0  0  0  0  0  0  0  0
   -2.2946    1.1076   -2.3178 C   0  0  0  0  0  0  0  0  0  0  0  0
   -3.1812    1.3581   -1.7499 H   0  0  0  0  0  0  0  0  0  0  0  0
    0.0607   -0.2790    1.7337 C   0  0  0  0  0  0  0  0  0  0  0  0
    0.0729    0.7999    2.3259 O   0  0  0  0  0  0  0  0  0  0  0  0
    0.5484   -1.4015    2.2768 N   0  0  0  0  0  0  0  0  0  0  0  0
    0.5520   -2.2346    1.7069 H   0  0  0  0  0  0  0  0  0  0  0  0
    1.1198   -1.4886    3.6180 C   0  0  0  0  0  0  0  0  0  0  0  0
    0.3719   -1.1951    4.3580 H   0  0  0  0  0  0  0  0  0  0  0  0
    1.4445   -2.5094    3.8216 H   0  0  0  0  0  0  0  0  0  0  0  0
    1.9745   -0.8155    3.7015 H   0  0  0  0  0  0  0  0  0  0  0  0
  5  6  2  0  0  0  0
  5  7  1  0  0  0  0
  2  3  1  0  0  0  0
  2  4  1  0  0  0  0
  2  5  1  0  0  0  0
  1  2  1  0  0  0  0
 22 23  2  0  0  0  0
 22 24  1  0  0  0  0
 20 21  1  0  0  0  0
 19 20  1  0  0  0  0
 17 18  1  0  0  0  0
 17 19  2  0  0  0  0
 15 16  1  0  0  0  0
 15 17  1  0  0  0  0
 14 15  1  0  0  0  0
 14 20  2  0  0  0  0
 11 12  1  0  0  0  0
 11 13  1  0  0  0  0
 11 14  1  0  0  0  0
  9 10  1  0  0  0  0
  9 11  1  0  0  0  0
  9 22  1  0  0  0  0
  7  8  1  0  0  0  0
  7  9  1  0  0  0  0
 26 27  1  0  0  0  0
 26 28  1  0  0  0  0
 26 29  1  0  0  0  0
 24 25  1  0  0  0  0
 24 26  1  0  0  0  0
M  END
$$$$
default_name
  -OEChem-01062215323D

 29 29  0     1  0  0  0  0  0999 V2000
   -3.6042   -3.5728    1.4576 H   0  0  0  0  0  0  0  0  0  0  0  0
   -3.5202   -2.6488    0.8866 C   0  0  0  0  0  0  0  0  0  0  0  0
   -4.2052   -1.9048    1.2896 H   0  0  0  0  0  0  0  0  0  0  0  0
   -3.7552   -2.8428   -0.1584 H   0  0  0  0  0  0  0  0  0  0  0  0
   -2.1052   -2.1358    0.9946 C   0  0  0  0  0  0  0  0  0  0  0  0
   -1.2852   -2.7288    1.6826 O   0  0  0  0  0  0  0  0  0  0  0  0
   -1.8202   -1.0288    0.3146 N   0  0  0  0  0  0  0  0  0  0  0  0
   -2.5542   -0.5788   -0.2104 H   0  0  0  0  0  0  0  0  0  0  0  0
   -0.5102   -0.3728    0.3086 C   0  0  1  0  0  0  0  0  0  0  0  0
    0.1784   -0.9729   -0.2880 H   0  0  0  0  0  0  0  0  0  0  0  0
   -0.6407    1.0095   -0.3574 C   0  0  0  0  0  0  0  0  0  0  0  0
   -1.3898    1.5951    0.1785 H   0  0  0  0  0  0  0  0  0  0  0  0
    0.3136    1.5335   -0.2794 H   0  0  0  0  0  0  0  0  0  0  0  0
   -1.0330    0.9446   -1.8108 C   0  0  0  0  0  0  0  0  0  0  0  0
   -0.2155    0.5862   -2.8612 N   0  0  0  0  0  0  0  0  0  0  0  0
    0.7736    0.3940   -2.8065 H   0  0  0  0  0  0  0  0  0  0  0  0
   -0.9654    0.5425   -3.9752 C   0  0  0  0  0  0  0  0  0  0  0  0
   -0.6019    0.2957   -4.9652 H   0  0  0  0  0  0  0  0  0  0  0  0
   -2.2399    0.8460   -3.6893 N   0  0  0  0  0  0  0  0  0  0  0  0
   -2.2946    1.1076   -2.3178 C   0  0  0  0  0  0  0  0  0  0  0  0
   -3.1812    1.3581   -1.7499 H   0  0  0  0  0  0  0  0  0  0  0  0
    0.0607   -0.2790    1.7337 C   0  0  0  0  0  0  0  0  0  0  0  0
   -0.1690    0.7104    2.4287 O   0  0  0  0  0  0  0  0  0  0  0  0
    0.8173   -1.2972    2.1622 N   0  0  0  0  0  0  0  0  0  0  0  0
    1.0043   -2.0475    1.5134 H   0  0  0  0  0  0  0  0  0  0  0  0
    1.4297   -1.3701    3.4861 C   0  0  0  0  0  0  0  0  0  0  0  0
    0.6539   -1.3363    4.2543 H   0  0  0  0  0  0  0  0  0  0  0  0
    1.9944   -2.2974    3.5873 H   0  0  0  0  0  0  0  0  0  0  0  0
    2.1006   -0.5221    3.6317 H   0  0  0  0  0  0  0  0  0  0  0  0
  5  6  2  0  0  0  0
  5  7  1  0  0  0  0
  2  3  1  0  0  0  0
  2  4  1  0  0  0  0
  2  5  1  0  0  0  0
  1  2  1  0  0  0  0
 22 23  2  0  0  0  0
 22 24  1  0  0  0  0
 20 21  1  0  0  0  0
 19 20  1  0  0  0  0
 17 18  1  0  0  0  0
 17 19  2  0  0  0  0
 15 16  1  0  0  0  0
 15 17  1  0  0  0  0
 14 15  1  0  0  0  0
 14 20  2  0  0  0  0
 11 12  1  0  0  0  0
 11 13  1  0  0  0  0
 11 14  1  0  0  0  0
  9 10  1  0  0  0  0
  9 11  1  0  0  0  0
  9 22  1  0  0  0  0
  7  8  1  0  0  0  0
  7  9  1  0  0  0  0
 26 27  1  0  0  0  0
 26 28  1  0  0  0  0
 26 29  1  0  0  0  0
 24 25  1  0  0  0  0
 24 26  1  0  0  0  0
M  END
$$$$
default_name
  -OEChem-01062215323D

 29 29  0     1  0  0  0  0  0999 V2000
   -3.6042   -3.5728    1.4576 H   0  0  0  0  0  0  0  0  0  0  0  0
   -3.5202   -2.6488    0.8866 C   0  0  0  0  0  0  0  0  0  0  0  0
   -4.2052   -1.9048    1.2896 H   0  0  0  0  0  0  0  0  0  0  0  0
   -3.7552   -2.8428   -0.1584 H   0  0  0  0  0  0  0  0  0  0  0  0
   -2.1052   -2.1358    0.9946 C   0  0  0  0  0  0  0  0  0  0  0  0
   -1.2852   -2.7288    1.6826 O   0  0  0  0  0  0  0  0  0  0  0  0
   -1.8202   -1.0288    0.3146 N   0  0  0  0  0  0  0  0  0  0  0  0
   -2.5542   -0.5788   -0.2104 H   0  0  0  0  0  0  0  0  0  0  0  0
   -0.5102   -0.3728    0.3086 C   0  0  1  0  0  0  0  0  0  0  0  0
    0.1784   -0.9729   -0.2880 H   0  0  0  0  0  0  0  0  0  0  0  0
   -0.6407    1.0095   -0.3574 C   0  0  0  0  0  0  0  0  0  0  0  0
   -1.3898    1.5951    0.1785 H   0  0  0  0  0  0  0  0  0  0  0  0
    0.3136    1.5335   -0.2794 H   0  0  0  0  0  0  0  0  0  0  0  0
   -1.0330    0.9446   -1.8108 C   0  0  0  0  0  0  0  0  0  0  0  0
   -0.2155    0.5862   -2.8612 N   0  0  0  0  0  0  0  0  0  0  0  0
    0.7736    0.3940   -2.8065 H   0  0  0  0  0  0  0  0  0  0  0  0
   -0.9654    0.5425   -3.9752 C   0  0  0  0  0  0  0  0  0  0  0  0
   -0.6019    0.2957   -4.9652 H   0  0  0  0  0  0  0  0  0  0  0  0
   -2.2399    0.8460   -3.6893 N   0  0  0  0  0  0  0  0  0  0  0  0
   -2.2946    1.1076   -2.3178 C   0  0  0  0  0  0  0  0  0  0  0  0
   -3.1812    1.3581   -1.7499 H   0  0  0  0  0  0  0  0  0  0  0  0
    0.0607   -0.2790    1.7337 C   0  0  0  0  0  0  0  0  0  0  0  0
   -0.3797    0.5561    2.5232 O   0  0  0  0  0  0  0  0  0  0  0  0
    1.0502   -1.1209    2.0573 N   0  0  0  0  0  0  0  0  0  0  0  0
    1.3933   -1.7397    1.3373 H   0  0  0  0  0  0  0  0  0  0  0  0
    1.6984   -1.1687    3.3652 C   0  0  0  0  0  0  0  0  0  0  0  0
    0.9584   -1.3950    4.1362 H   0  0  0  0  0  0  0  0  0  0  0  0
    2.4710   -1.9382    3.3727 H   0  0  0  0  0  0  0  0  0  0  0  0
    2.1510   -0.2018    3.5905 H   0  0  0  0  0  0  0  0  0  0  0  0
  5  6  2  0  0  0  0
  5  7  1  0  0  0  0
  2  3  1  0  0  0  0
  2  4  1  0  0  0  0
  2  5  1  0  0  0  0
  1  2  1  0  0  0  0
 22 23  2  0  0  0  0
 22 24  1  0  0  0  0
 20 21  1  0  0  0  0
 19 20  1  0  0  0  0
 17 18  1  0  0  0  0
 17 19  2  0  0  0  0
 15 16  1  0  0  0  0
 15 17  1  0  0  0  0
 14 15  1  0  0  0  0
 14 20  2  0  0  0  0
 11 12  1  0  0  0  0
 11 13  1  0  0  0  0
 11 14  1  0  0  0  0
  9 10  1  0  0  0  0
  9 11  1  0  0  0  0
  9 22  1  0  0  0  0
  7  8  1  0  0  0  0
  7  9  1  0  0  0  0
 26 27  1  0  0  0  0
 26 28  1  0  0  0  0
 26 29  1  0  0  0  0
 24 25  1  0  0  0  0
 24 26  1  0  0  0  0
M  END
$$$$
default_name
  -OEChem-01062215323D

 29 29  0     1  0  0  0  0  0999 V2000
   -3.6042   -3.5728    1.4576 H   0  0  0  0  0  0  0  0  0  0  0  0
   -3.5202   -2.6488    0.8866 C   0  0  0  0  0  0  0  0  0  0  0  0
   -4.2052   -1.9048    1.2896 H   0  0  0  0  0  0  0  0  0  0  0  0
   -3.7552   -2.8428   -0.1584 H   0  0  0  0  0  0  0  0  0  0  0  0
   -2.1052   -2.1358    0.9946 C   0  0  0  0  0  0  0  0  0  0  0  0
   -1.2852   -2.7288    1.6826 O   0  0  0  0  0  0  0  0  0  0  0  0
   -1.8202   -1.0288    0.3146 N   0  0  0  0  0  0  0  0  0  0  0  0
   -2.5542   -0.5788   -0.2104 H   0  0  0  0  0  0  0  0  0  0  0  0
   -0.5102   -0.3728    0.3086 C   0  0  1  0  0  0  0  0  0  0  0  0
    0.1784   -0.9729   -0.2880 H   0  0  0  0  0  0  0  0  0  0  0  0
   -0.6407    1.0095   -0.3574 C   0  0  0  0  0  0  0  0  0  0  0  0
   -1.3898    1.5951    0.1785 H   0  0  0  0  0  0  0  0  0  0  0  0
    0.3136    1.5335   -0.2794 H   0  0  0  0  0  0  0  0  0  0  0  0
   -1.0330    0.9446   -1.8108 C   0  0  0  0  0  0  0  0  0  0  0  0
   -0.2155    0.5862   -2.8612 N   0  0  0  0  0  0  0  0  0  0  0  0
    0.7736    0.3940   -2.8065 H   0  0  0  0  0  0  0  0  0  0  0  0
   -0.9654    0.5425   -3.9752 C   0  0  0  0  0  0  0  0  0  0  0  0
   -0.6019    0.2957   -4.9652 H   0  0  0  0  0  0  0  0  0  0  0  0
   -2.2399    0.8460   -3.6893 N   0  0  0  0  0  0  0  0  0  0  0  0
   -2.2946    1.1076   -2.3178 C   0  0  0  0  0  0  0  0  0  0  0  0
   -3.1812    1.3581   -1.7499 H   0  0  0  0  0  0  0  0  0  0  0  0
    0.0607   -0.2790    1.7337 C   0  0  0  0  0  0  0  0  0  0  0  0
   -0.5447    0.3475    2.6031 O   0  0  0  0  0  0  0  0  0  0  0  0
    1.2313   -0.8848    1.9692 N   0  0  0  0  0  0  0  0  0  0  0  0
    1.6924   -1.3322    1.1907 H   0  0  0  0  0  0  0  0  0  0  0  0
    1.9078   -0.8981    3.2635 C   0  0  0  0  0  0  0  0  0  0  0  0
    1.2649   -1.3673    4.0116 H   0  0  0  0  0  0  0  0  0  0  0  0
    2.8418   -1.4563    3.1925 H   0  0  0  0  0  0  0  0  0  0  0  0
    2.1221    0.1236    3.5806 H   0  0  0  0  0  0  0  0  0  0  0  0
  5  6  2  0  0  0  0
  5  7  1  0  0  0  0
  2  3  1  0  0  0  0
  2  4  1  0  0  0  0
  2  5  1  0  0  0  0
  1  2  1  0  0  0  0
 22 23  2  0  0  0  0
 22 24  1  0  0  0  0
 20 21  1  0  0  0  0
 19 20  1  0  0  0  0
 17 18  1  0  0  0  0
 17 19  2  0  0  0  0
 15 16  1  0  0  0  0
 15 17  1  0  0  0  0
 14 15  1  0  0  0  0
 14 20  2  0  0  0  0
 11 12  1  0  0  0  0
 11 13  1  0  0  0  0
 11 14  1  0  0  0  0
  9 10  1  0  0  0  0
  9 11  1  0  0  0  0
  9 22  1  0  0  0  0
  7  8  1  0  0  0  0
  7  9  1  0  0  0  0
 26 27  1  0  0  0  0
 26 28  1  0  0  0  0
 26 29  1  0  0  0  0
 24 25  1  0  0  0  0
 24 26  1  0  0  0  0
M  END
$$$$
default_name
  -OEChem-01062215323D

 29 29  0     1  0  0  0  0  0999 V2000
   -3.6042   -3.5728    1.4576 H   0  0  0  0  0  0  0  0  0  0  0  0
   -3.5202   -2.6488    0.8866 C   0  0  0  0  0  0  0  0  0  0  0  0
   -4.2052   -1.9048    1.2896 H   0  0  0  0  0  0  0  0  0  0  0  0
   -3.7552   -2.8428   -0.1584 H   0  0  0  0  0  0  0  0  0  0  0  0
   -2.1052   -2.1358    0.9946 C   0  0  0  0  0  0  0  0  0  0  0  0
   -1.2852   -2.7288    1.6826 O   0  0  0  0  0  0  0  0  0  0  0  0
   -1.8202   -1.0288    0.3146 N   0  0  0  0  0  0  0  0  0  0  0  0
   -2.5542   -0.5788   -0.2104 H   0  0  0  0  0  0  0  0  0  0  0  0
   -0.5102   -0.3728    0.3086 C   0  0  1  0  0  0  0  0  0  0  0  0
    0.1784   -0.9729   -0.2880 H   0  0  0  0  0  0  0  0  0  0  0  0
   -0.6407    1.0095   -0.3574 C   0  0  0  0  0  0  0  0  0  0  0  0
   -1.3898    1.5951    0.1785 H   0  0  0  0  0  0  0  0  0  0  0  0
    0.3136    1.5335   -0.2794 H   0  0  0  0  0  0  0  0  0  0  0  0
   -1.0330    0.9446   -1.8108 C   0  0  0  0  0  0  0  0  0  0  0  0
   -0.2155    0.5862   -2.8612 N   0  0  0  0  0  0  0  0  0  0  0  0
    0.7736    0.3940   -2.8065 H   0  0  0  0  0  0  0  0  0  0  0  0
   -0.9654    0.5425   -3.9752 C   0  0  0  0  0  0  0  0  0  0  0  0
   -0.6019    0.2957   -4.9652 H   0  0  0  0  0  0  0  0  0  0  0  0
   -2.2399    0.8460   -3.6893 N   0  0  0  0  0  0  0  0  0  0  0  0
   -2.2946    1.1076   -2.3178 C   0  0  0  0  0  0  0  0  0  0  0  0
   -3.1812    1.3581   -1.7499 H   0  0  0  0  0  0  0  0  0  0  0  0
    0.0607   -0.2790    1.7337 C   0  0  0  0  0  0  0  0  0  0  0  0
   -0.6528    0.0987    2.6627 O   0  0  0  0  0  0  0  0  0  0  0  0
    1.3481   -0.6048    1.9040 N   0  0  0  0  0  0  0  0  0  0  0  0
    1.8813   -0.8528    1.0835 H   0  0  0  0  0  0  0  0  0  0  0  0
    2.0436   -0.5768    3.1880 C   0  0  0  0  0  0  0  0  0  0  0  0
    1.5523   -1.2551    3.8891 H   0  0  0  0  0  0  0  0  0  0  0  0
    3.0817   -0.8846    3.0588 H   0  0  0  0  0  0  0  0  0  0  0  0
    2.0161    0.4320    3.6028 H   0  0  0  0  0  0  0  0  0  0  0  0
  5  6  2  0  0  0  0
  5  7  1  0  0  0  0
  2  3  1  0  0  0  0
  2  4  1  0  0  0  0
  2  5  1  0  0  0  0
  1  2  1  0  0  0  0
 22 23  2  0  0  0  0
 22 24  1  0  0  0  0
 20 21  1  0  0  0  0
 19 20  1  0  0  0  0
 17 18  1  0  0  0  0
 17 19  2  0  0  0  0
 15 16  1  0  0  0  0
 15 17  1  0  0  0  0
 14 15  1  0  0  0  0
 14 20  2  0  0  0  0
 11 12  1  0  0  0  0
 11 13  1  0  0  0  0
 11 14  1  0  0  0  0
  9 10  1  0  0  0  0
  9 11  1  0  0  0  0
  9 22  1  0  0  0  0
  7  8  1  0  0  0  0
  7  9  1  0  0  0  0
 26 27  1  0  0  0  0
 26 28  1  0  0  0  0
 26 29  1  0  0  0  0
 24 25  1  0  0  0  0
 24 26  1  0  0  0  0
M  END
$$$$
default_name
  -OEChem-01062215323D

 29 29  0     1  0  0  0  0  0999 V2000
   -3.6042   -3.5728    1.4576 H   0  0  0  0  0  0  0  0  0  0  0  0
   -3.5202   -2.6488    0.8866 C   0  0  0  0  0  0  0  0  0  0  0  0
   -4.2052   -1.9048    1.2896 H   0  0  0  0  0  0  0  0  0  0  0  0
   -3.7552   -2.8428   -0.1584 H   0  0  0  0  0  0  0  0  0  0  0  0
   -2.1052   -2.1358    0.9946 C   0  0  0  0  0  0  0  0  0  0  0  0
   -1.2852   -2.7288    1.6826 O   0  0  0  0  0  0  0  0  0  0  0  0
   -1.8202   -1.0288    0.3146 N   0  0  0  0  0  0  0  0  0  0  0  0
   -2.5542   -0.5788   -0.2104 H   0  0  0  0  0  0  0  0  0  0  0  0
   -0.5102   -0.3728    0.3086 C   0  0  1  0  0  0  0  0  0  0  0  0
    0.1784   -0.9729   -0.2880 H   0  0  0  0  0  0  0  0  0  0  0  0
   -0.6407    1.0095   -0.3574 C   0  0  0  0  0  0  0  0  0  0  0  0
   -1.3898    1.5951    0.1785 H   0  0  0  0  0  0  0  0  0  0  0  0
    0.3136    1.5335   -0.2794 H   0  0  0  0  0  0  0  0  0  0  0  0
   -1.0330    0.9446   -1.8108 C   0  0  0  0  0  0  0  0  0  0  0  0
   -0.2155    0.5862   -2.8612 N   0  0  0  0  0  0  0  0  0  0  0  0
    0.7736    0.3940   -2.8065 H   0  0  0  0  0  0  0  0  0  0  0  0
   -0.9654    0.5425   -3.9752 C   0  0  0  0  0  0  0  0  0  0  0  0
   -0.6019    0.2957   -4.9652 H   0  0  0  0  0  0  0  0  0  0  0  0
   -2.2399    0.8460   -3.6893 N   0  0  0  0  0  0  0  0  0  0  0  0
   -2.2946    1.1076   -2.3178 C   0  0  0  0  0  0  0  0  0  0  0  0
   -3.1812    1.3581   -1.7499 H   0  0  0  0  0  0  0  0  0  0  0  0
    0.0607   -0.2790    1.7337 C   0  0  0  0  0  0  0  0  0  0  0  0
   -0.6966   -0.1732    2.6982 O   0  0  0  0  0  0  0  0  0  0  0  0
    1.3929   -0.3000    1.8660 N   0  0  0  0  0  0  0  0  0  0  0  0
    1.9471   -0.3341    1.0230 H   0  0  0  0  0  0  0  0  0  0  0  0
    2.0965   -0.2265    3.1437 C   0  0  0  0  0  0  0  0  0  0  0  0
    1.8010   -1.0661    3.7770 H   0  0  0  0  0  0  0  0  0  0  0  0
    3.1741   -0.2620    2.9808 H   0  0  0  0  0  0  0  0  0  0  0  0
    1.8401    0.7023    3.6556 H   0  0  0  0  0  0  0  0  0  0  0  0
  5  6  2  0  0  0  0
  5  7  1  0  0  0  0
  2  3  1  0  0  0  0
  2  4  1  0  0  0  0
  2  5  1  0  0  0  0
  1  2  1  0  0  0  0
 22 23  2  0  0  0  0
 22 24  1  0  0  0  0
 20 21  1  0  0  0  0
 19 20  1  0  0  0  0
 17 18  1  0  0  0  0
 17 19  2  0  0  0  0
 15 16  1  0  0  0  0
 15 17  1  0  0  0  0
 14 15  1  0  0  0  0
 14 20  2  0  0  0  0
 11 12  1  0  0  0  0
 11 13  1  0  0  0  0
 11 14  1  0  0  0  0
  9 10  1  0  0  0  0
  9 11  1  0  0  0  0
  9 22  1  0  0  0  0
  7  8  1  0  0  0  0
  7  9  1  0  0  0  0
 26 27  1  0  0  0  0
 26 28  1  0  0  0  0
 26 29  1  0  0  0  0
 24 25  1  0  0  0  0
 24 26  1  0  0  0  0
M  END
$$$$
default_name
  -OEChem-01062215323D

 29 29  0     1  0  0  0  0  0999 V2000
   -3.6042   -3.5728    1.4576 H   0  0  0  0  0  0  0  0  0  0  0  0
   -3.5202   -2.6488    0.8866 C   0  0  0  0  0  0  0  0  0  0  0  0
   -4.2052   -1.9048    1.2896 H   0  0  0  0  0  0  0  0  0  0  0  0
   -3.7552   -2.8428   -0.1584 H   0  0  0  0  0  0  0  0  0  0  0  0
   -2.1052   -2.1358    0.9946 C   0  0  0  0  0  0  0  0  0  0  0  0
   -1.2852   -2.7288    1.6826 O   0  0  0  0  0  0  0  0  0  0  0  0
   -1.8202   -1.0288    0.3146 N   0  0  0  0  0  0  0  0  0  0  0  0
   -2.5542   -0.5788   -0.2104 H   0  0  0  0  0  0  0  0  0  0  0  0
   -0.5102   -0.3728    0.3086 C   0  0  1  0  0  0  0  0  0  0  0  0
    0.1784   -0.9729   -0.2880 H   0  0  0  0  0  0  0  0  0  0  0  0
   -0.6407    1.0095   -0.3574 C   0  0  0  0  0  0  0  0  0  0  0  0
   -1.3898    1.5951    0.1785 H   0  0  0  0  0  0  0  0  0  0  0  0
    0.3136    1.5335   -0.2794 H   0  0  0  0  0  0  0  0  0  0  0  0
   -1.0330    0.9446   -1.8108 C   0  0  0  0  0  0  0  0  0  0  0  0
   -0.2155    0.5862   -2.8612 N   0  0  0  0  0  0  0  0  0  0  0  0
    0.7736    0.3940   -2.8065 H   0  0  0  0  0  0  0  0  0  0  0  0
   -0.9654    0.5425   -3.9752 C   0  0  0  0  0  0  0  0  0  0  0  0
   -0.6019    0.2957   -4.9652 H   0  0  0  0  0  0  0  0  0  0  0  0
   -2.2399    0.8460   -3.6893 N   0  0  0  0  0  0  0  0  0  0  0  0
   -2.2946    1.1076   -2.3178 C   0  0  0  0  0  0  0  0  0  0  0  0
   -3.1812    1.3581   -1.7499 H   0  0  0  0  0  0  0  0  0  0  0  0
    0.0607   -0.2790    1.7337 C   0  0  0  0  0  0  0  0  0  0  0  0
   -0.6731   -0.4498    2.7069 O   0  0  0  0  0  0  0  0  0  0  0  0
    1.3624    0.0087    1.8579 N   0  0  0  0  0  0  0  0  0  0  0  0
    1.8853    0.1885    1.0134 H   0  0  0  0  0  0  0  0  0  0  0  0
    2.0629    0.1287    3.1338 C   0  0  0  0  0  0  0  0  0  0  0  0
    1.9942   -0.8131    3.6830 H   0  0  0  0  0  0  0  0  0  0  0  0
    3.1128    0.3690    2.9639 H   0  0  0  0  0  0  0  0  0  0  0  0
    1.6060    0.9161    3.7353 H   0  0  0  0  0  0  0  0  0  0  0  0
  5  6  2  0  0  0  0
  5  7  1  0  0  0  0
  2  3  1  0  0  0  0
  2  4  1  0  0  0  0
  2  5  1  0  0  0  0
  1  2  1  0  0  0  0
 22 23  2  0  0  0  0
 22 24  1  0  0  0  0
 20 21  1  0  0  0  0
 19 20  1  0  0  0  0
 17 18  1  0  0  0  0
 17 19  2  0  0  0  0
 15 16  1  0  0  0  0
 15 17  1  0  0  0  0
 14 15  1  0  0  0  0
 14 20  2  0  0  0  0
 11 12  1  0  0  0  0
 11 13  1  0  0  0  0
 11 14  1  0  0  0  0
  9 10  1  0  0  0  0
  9 11  1  0  0  0  0
  9 22  1  0  0  0  0
  7  8  1  0  0  0  0
  7  9  1  0  0  0  0
 26 27  1  0  0  0  0
 26 28  1  0  0  0  0
 26 29  1  0  0  0  0
 24 25  1  0  0  0  0
 24 26  1  0  0  0  0
M  END
$$$$
default_name
  -OEChem-01062215323D

 29 29  0     1  0  0  0  0  0999 V2000
   -3.6042   -3.5728    1.4576 H   0  0  0  0  0  0  0  0  0  0  0  0
   -3.5202   -2.6488    0.8866 C   0  0  0  0  0  0  0  0  0  0  0  0
   -4.2052   -1.9048    1.2896 H   0  0  0  0  0  0  0  0  0  0  0  0
   -3.7552   -2.8428   -0.1584 H   0  0  0  0  0  0  0  0  0  0  0  0
   -2.1052   -2.1358    0.9946 C   0  0  0  0  0  0  0  0  0  0  0  0
   -1.2852   -2.7288    1.6826 O   0  0  0  0  0  0  0  0  0  0  0  0
   -1.8202   -1.0288    0.3146 N   0  0  0  0  0  0  0  0  0  0  0  0
   -2.5542   -0.5788   -0.2104 H   0  0  0  0  0  0  0  0  0  0  0  0
   -0.5102   -0.3728    0.3086 C   0  0  1  0  0  0  0  0  0  0  0  0
    0.0958   -0.8097   -0.4864 H   0  0  0  0  0  0  0  0  0  0  0  0
   -0.6966    1.1244    0.0002 C   0  0  0  0  0  0  0  0  0  0  0  0
   -1.3699    1.5605    0.7403 H   0  0  0  0  0  0  0  0  0  0  0  0
    0.2680    1.6280    0.0861 H   0  0  0  0  0  0  0  0  0  0  0  0
   -1.2554    1.3927   -1.3731 C   0  0  0  0  0  0  0  0  0  0  0  0
   -0.5703    1.2975   -2.5655 N   0  0  0  0  0  0  0  0  0  0  0  0
    0.4155    1.1103   -2.6719 H   0  0  0  0  0  0  0  0  0  0  0  0
   -1.4447    1.5035   -3.5647 C   0  0  0  0  0  0  0  0  0  0  0  0
   -1.2019    1.4971   -4.6203 H   0  0  0  0  0  0  0  0  0  0  0  0
   -2.6730    1.7165   -3.0704 N   0  0  0  0  0  0  0  0  0  0  0  0
   -2.5647    1.6528   -1.6788 C   0  0  0  0  0  0  0  0  0  0  0  0
   -3.3758    1.7538   -0.9694 H   0  0  0  0  0  0  0  0  0  0  0  0
    0.2232   -0.6043    1.6406 C   0  0  0  0  0  0  0  0  0  0  0  0
   -0.3129   -1.2548    2.5374 O   0  0  0  0  0  0  0  0  0  0  0  0
    1.4385   -0.0595    1.7772 N   0  0  0  0  0  0  0  0  0  0  0  0
    1.7869    0.5057    1.0168 H   0  0  0  0  0  0  0  0  0  0  0  0
    2.2706   -0.1870    2.9707 C   0  0  0  0  0  0  0  0  0  0  0  0
    2.4812   -1.2414    3.1633 H   0  0  0  0  0  0  0  0  0  0  0  0
    3.2110    0.3468    2.8308 H   0  0  0  0  0  0  0  0  0  0  0  0
    1.7468    0.2264    3.8340 H   0  0  0  0  0  0  0  0  0  0  0  0
  5  6  2  0  0  0  0
  5  7  1  0  0  0  0
  2  3  1  0  0  0  0
  2  4  1  0  0  0  0
  2  5  1  0  0  0  0
  1  2  1  0  0  0  0
 22 23  2  0  0  0  0
 22 24  1  0  0  0  0
 20 21  1  0  0  0  0
 19 20  1  0  0  0  0
 17 18  1  0  0  0  0
 17 19  2  0  0  0  0
 15 16  1  0  0  0  0
 15 17  1  0  0  0  0
 14 15  1  0  0  0  0
 14 20  2  0  0  0  0
 11 12  1  0  0  0  0
 11 13  1  0  0  0  0
 11 14  1  0  0  0  0
  9 10  1  0  0  0  0
  9 11  1  0  0  0  0
  9 22  1  0  0  0  0
  7  8  1  0  0  0  0
  7  9  1  0  0  0  0
 26 27  1  0  0  0  0
 26 28  1  0  0  0  0
 26 29  1  0  0  0  0
 24 25  1  0  0  0  0
 24 26  1  0  0  0  0
M  END
$$$$
default_name
  -OEChem-01062215323D

 29 29  0     1  0  0  0  0  0999 V2000
   -3.6042   -3.5728    1.4576 H   0  0  0  0  0  0  0  0  0  0  0  0
   -3.5202   -2.6488    0.8866 C   0  0  0  0  0  0  0  0  0  0  0  0
   -4.2052   -1.9048    1.2896 H   0  0  0  0  0  0  0  0  0  0  0  0
   -3.7552   -2.8428   -0.1584 H   0  0  0  0  0  0  0  0  0  0  0  0
   -2.1052   -2.1358    0.9946 C   0  0  0  0  0  0  0  0  0  0  0  0
   -1.2852   -2.7288    1.6826 O   0  0  0  0  0  0  0  0  0  0  0  0
   -1.8202   -1.0288    0.3146 N   0  0  0  0  0  0  0  0  0  0  0  0
   -2.5542   -0.5788   -0.2104 H   0  0  0  0  0  0  0  0  0  0  0  0
   -0.5102   -0.3728    0.3086 C   0  0  1  0  0  0  0  0  0  0  0  0
    0.0958   -0.8097   -0.4864 H   0  0  0  0  0  0  0  0  0  0  0  0
   -0.6966    1.1244    0.0002 C   0  0  0  0  0  0  0  0  0  0  0  0
   -1.3699    1.5605    0.7403 H   0  0  0  0  0  0  0  0  0  0  0  0
    0.2680    1.6280    0.0861 H   0  0  0  0  0  0  0  0  0  0  0  0
   -1.2554    1.3927   -1.3731 C   0  0  0  0  0  0  0  0  0  0  0  0
   -0.5703    1.2975   -2.5655 N   0  0  0  0  0  0  0  0  0  0  0  0
    0.4155    1.1103   -2.6719 H   0  0  0  0  0  0  0  0  0  0  0  0
   -1.4447    1.5035   -3.5647 C   0  0  0  0  0  0  0  0  0  0  0  0
   -1.2019    1.4971   -4.6203 H   0  0  0  0  0  0  0  0  0  0  0  0
   -2.6730    1.7165   -3.0704 N   0  0  0  0  0  0  0  0  0  0  0  0
   -2.5647    1.6528   -1.6788 C   0  0  0  0  0  0  0  0  0  0  0  0
   -3.3758    1.7538   -0.9694 H   0  0  0  0  0  0  0  0  0  0  0  0
    0.2232   -0.6043    1.6406 C   0  0  0  0  0  0  0  0  0  0  0  0
   -0.1738   -1.4666    2.4240 O   0  0  0  0  0  0  0  0  0  0  0  0
    1.2796    0.1744    1.9053 N   0  0  0  0  0  0  0  0  0  0  0  0
    1.5098    0.8952    1.2371 H   0  0  0  0  0  0  0  0  0  0  0  0
    2.0891    0.0829    3.1176 C   0  0  0  0  0  0  0  0  0  0  0  0
    2.5282   -0.9143    3.1943 H   0  0  0  0  0  0  0  0  0  0  0  0
    2.8873    0.8254    3.0923 H   0  0  0  0  0  0  0  0  0  0  0  0
    1.4639    0.2561    3.9950 H   0  0  0  0  0  0  0  0  0  0  0  0
  5  6  2  0  0  0  0
  5  7  1  0  0  0  0
  2  3  1  0  0  0  0
  2  4  1  0  0  0  0
  2  5  1  0  0  0  0
  1  2  1  0  0  0  0
 22 23  2  0  0  0  0
 22 24  1  0  0  0  0
 20 21  1  0  0  0  0
 19 20  1  0  0  0  0
 17 18  1  0  0  0  0
 17 19  2  0  0  0  0
 15 16  1  0  0  0  0
 15 17  1  0  0  0  0
 14 15  1  0  0  0  0
 14 20  2  0  0  0  0
 11 12  1  0  0  0  0
 11 13  1  0  0  0  0
 11 14  1  0  0  0  0
  9 10  1  0  0  0  0
  9 11  1  0  0  0  0
  9 22  1  0  0  0  0
  7  8  1  0  0  0  0
  7  9  1  0  0  0  0
 26 27  1  0  0  0  0
 26 28  1  0  0  0  0
 26 29  1  0  0  0  0
 24 25  1  0  0  0  0
 24 26  1  0  0  0  0
M  END
$$$$
default_name
  -OEChem-01062215323D

 29 29  0     1  0  0  0  0  0999 V2000
   -3.6042   -3.5728    1.4576 H   0  0  0  0  0  0  0  0  0  0  0  0
   -3.5202   -2.6488    0.8866 C   0  0  0  0  0  0  0  0  0  0  0  0
   -4.2052   -1.9048    1.2896 H   0  0  0  0  0  0  0  0  0  0  0  0
   -3.7552   -2.8428   -0.1584 H   0  0  0  0  0  0  0  0  0  0  0  0
   -2.1052   -2.1358    0.9946 C   0  0  0  0  0  0  0  0  0  0  0  0
   -1.2852   -2.7288    1.6826 O   0  0  0  0  0  0  0  0  0  0  0  0
   -1.8202   -1.0288    0.3146 N   0  0  0  0  0  0  0  0  0  0  0  0
   -2.5542   -0.5788   -0.2104 H   0  0  0  0  0  0  0  0  0  0  0  0
   -0.5102   -0.3728    0.3086 C   0  0  1  0  0  0  0  0  0  0  0  0
    0.0958   -0.8097   -0.4864 H   0  0  0  0  0  0  0  0  0  0  0  0
   -0.6966    1.1244    0.0002 C   0  0  0  0  0  0  0  0  0  0  0  0
   -1.3699    1.5605    0.7403 H   0  0  0  0  0  0  0  0  0  0  0  0
    0.2680    1.6280    0.0861 H   0  0  0  0  0  0  0  0  0  0  0  0
   -1.2554    1.3927   -1.3731 C   0  0  0  0  0  0  0  0  0  0  0  0
   -0.5703    1.2975   -2.5655 N   0  0  0  0  0  0  0  0  0  0  0  0
    0.4155    1.1103   -2.6719 H   0  0  0  0  0  0  0  0  0  0  0  0
   -1.4447    1.5035   -3.5647 C   0  0  0  0  0  0  0  0  0  0  0  0
   -1.2019    1.4971   -4.6203 H   0  0  0  0  0  0  0  0  0  0  0  0
   -2.6730    1.7165   -3.0704 N   0  0  0  0  0  0  0  0  0  0  0  0
   -2.5647    1.6528   -1.6788 C   0  0  0  0  0  0  0  0  0  0  0  0
   -3.3758    1.7538   -0.9694 H   0  0  0  0  0  0  0  0  0  0  0  0
    0.2232   -0.6043    1.6406 C   0  0  0  0  0  0  0  0  0  0  0  0
    0.0126   -1.6260    2.2937 O   0  0  0  0  0  0  0  0  0  0  0  0
    1.0688    0.3488    2.0517 N   0  0  0  0  0  0  0  0  0  0  0  0
    1.1462    1.1820    1.4872 H   0  0  0  0  0  0  0  0  0  0  0  0
    1.8475    0.2849    3.2857 C   0  0  0  0  0  0  0  0  0  0  0  0
    2.4991   -0.5916    3.2664 H   0  0  0  0  0  0  0  0  0  0  0  0
    2.4570    1.1828    3.3913 H   0  0  0  0  0  0  0  0  0  0  0  0
    1.1777    0.2015    4.1431 H   0  0  0  0  0  0  0  0  0  0  0  0
  5  6  2  0  0  0  0
  5  7  1  0  0  0  0
  2  3  1  0  0  0  0
  2  4  1  0  0  0  0
  2  5  1  0  0  0  0
  1  2  1  0  0  0  0
 22 23  2  0  0  0  0
 22 24  1  0  0  0  0
 20 21  1  0  0  0  0
 19 20  1  0  0  0  0
 17 18  1  0  0  0  0
 17 19  2  0  0  0  0
 15 16  1  0  0  0  0
 15 17  1  0  0  0  0
 14 15  1  0  0  0  0
 14 20  2  0  0  0  0
 11 12  1  0  0  0  0
 11 13  1  0  0  0  0
 11 14  1  0  0  0  0
  9 10  1  0  0  0  0
  9 11  1  0  0  0  0
  9 22  1  0  0  0  0
  7  8  1  0  0  0  0
  7  9  1  0  0  0  0
 26 27  1  0  0  0  0
 26 28  1  0  0  0  0
 26 29  1  0  0  0  0
 24 25  1  0  0  0  0
 24 26  1  0  0  0  0
M  END
$$$$
default_name
  -OEChem-01062215323D

 29 29  0     1  0  0  0  0  0999 V2000
   -3.6042   -3.5728    1.4576 H   0  0  0  0  0  0  0  0  0  0  0  0
   -3.5202   -2.6488    0.8866 C   0  0  0  0  0  0  0  0  0  0  0  0
   -4.2052   -1.9048    1.2896 H   0  0  0  0  0  0  0  0  0  0  0  0
   -3.7552   -2.8428   -0.1584 H   0  0  0  0  0  0  0  0  0  0  0  0
   -2.1052   -2.1358    0.9946 C   0  0  0  0  0  0  0  0  0  0  0  0
   -1.2852   -2.7288    1.6826 O   0  0  0  0  0  0  0  0  0  0  0  0
   -1.8202   -1.0288    0.3146 N   0  0  0  0  0  0  0  0  0  0  0  0
   -2.5542   -0.5788   -0.2104 H   0  0  0  0  0  0  0  0  0  0  0  0
   -0.5102   -0.3728    0.3086 C   0  0  1  0  0  0  0  0  0  0  0  0
    0.0958   -0.8097   -0.4864 H   0  0  0  0  0  0  0  0  0  0  0  0
   -0.6966    1.1244    0.0002 C   0  0  0  0  0  0  0  0  0  0  0  0
   -1.3699    1.5605    0.7403 H   0  0  0  0  0  0  0  0  0  0  0  0
    0.2680    1.6280    0.0861 H   0  0  0  0  0  0  0  0  0  0  0  0
   -1.2554    1.3927   -1.3731 C   0  0  0  0  0  0  0  0  0  0  0  0
   -0.5703    1.2975   -2.5655 N   0  0  0  0  0  0  0  0  0  0  0  0
    0.4155    1.1103   -2.6719 H   0  0  0  0  0  0  0  0  0  0  0  0
   -1.4447    1.5035   -3.5647 C   0  0  0  0  0  0  0  0  0  0  0  0
   -1.2019    1.4971   -4.6203 H   0  0  0  0  0  0  0  0  0  0  0  0
   -2.6730    1.7165   -3.0704 N   0  0  0  0  0  0  0  0  0  0  0  0
   -2.5647    1.6528   -1.6788 C   0  0  0  0  0  0  0  0  0  0  0  0
   -3.3758    1.7538   -0.9694 H   0  0  0  0  0  0  0  0  0  0  0  0
    0.2232   -0.6043    1.6406 C   0  0  0  0  0  0  0  0  0  0  0  0
    0.2334   -1.7222    2.1554 O   0  0  0  0  0  0  0  0  0  0  0  0
    0.8204    0.4520    2.2065 N   0  0  0  0  0  0  0  0  0  0  0  0
    0.7209    1.3468    1.7500 H   0  0  0  0  0  0  0  0  0  0  0  0
    1.5623    0.4050    3.4636 C   0  0  0  0  0  0  0  0  0  0  0  0
    2.3958   -0.2953    3.3747 H   0  0  0  0  0  0  0  0  0  0  0  0
    1.9497    1.3947    3.7074 H   0  0  0  0  0  0  0  0  0  0  0  0
    0.9077    0.0663    4.2682 H   0  0  0  0  0  0  0  0  0  0  0  0
  5  6  2  0  0  0  0
  5  7  1  0  0  0  0
  2  3  1  0  0  0  0
  2  4  1  0  0  0  0
  2  5  1  0  0  0  0
  1  2  1  0  0  0  0
 22 23  2  0  0  0  0
 22 24  1  0  0  0  0
 20 21  1  0  0  0  0
 19 20  1  0  0  0  0
 17 18  1  0  0  0  0
 17 19  2  0  0  0  0
 15 16  1  0  0  0  0
 15 17  1  0  0  0  0
 14 15  1  0  0  0  0
 14 20  2  0  0  0  0
 11 12  1  0  0  0  0
 11 13  1  0  0  0  0
 11 14  1  0  0  0  0
  9 10  1  0  0  0  0
  9 11  1  0  0  0  0
  9 22  1  0  0  0  0
  7  8  1  0  0  0  0
  7  9  1  0  0  0  0
 26 27  1  0  0  0  0
 26 28  1  0  0  0  0
 26 29  1  0  0  0  0
 24 25  1  0  0  0  0
 24 26  1  0  0  0  0
M  END
$$$$
default_name
  -OEChem-01062215323D

 29 29  0     1  0  0  0  0  0999 V2000
   -3.6042   -3.5728    1.4576 H   0  0  0  0  0  0  0  0  0  0  0  0
   -3.5202   -2.6488    0.8866 C   0  0  0  0  0  0  0  0  0  0  0  0
   -4.2052   -1.9048    1.2896 H   0  0  0  0  0  0  0  0  0  0  0  0
   -3.7552   -2.8428   -0.1584 H   0  0  0  0  0  0  0  0  0  0  0  0
   -2.1052   -2.1358    0.9946 C   0  0  0  0  0  0  0  0  0  0  0  0
   -1.2852   -2.7288    1.6826 O   0  0  0  0  0  0  0  0  0  0  0  0
   -1.8202   -1.0288    0.3146 N   0  0  0  0  0  0  0  0  0  0  0  0
   -2.5542   -0.5788   -0.2104 H   0  0  0  0  0  0  0  0  0  0  0  0
   -0.5102   -0.3728    0.3086 C   0  0  1  0  0  0  0  0  0  0  0  0
    0.0958   -0.8097   -0.4864 H   0  0  0  0  0  0  0  0  0  0  0  0
   -0.6966    1.1244    0.0002 C   0  0  0  0  0  0  0  0  0  0  0  0
   -1.3699    1.5605    0.7403 H   0  0  0  0  0  0  0  0  0  0  0  0
    0.2680    1.6280    0.0861 H   0  0  0  0  0  0  0  0  0  0  0  0
   -1.2554    1.3927   -1.3731 C   0  0  0  0  0  0  0  0  0  0  0  0
   -0.5703    1.2975   -2.5655 N   0  0  0  0  0  0  0  0  0  0  0  0
    0.4155    1.1103   -2.6719 H   0  0  0  0  0  0  0  0  0  0  0  0
   -1.4447    1.5035   -3.5647 C   0  0  0  0  0  0  0  0  0  0  0  0
   -1.2019    1.4971   -4.6203 H   0  0  0  0  0  0  0  0  0  0  0  0
   -2.6730    1.7165   -3.0704 N   0  0  0  0  0  0  0  0  0  0  0  0
   -2.5647    1.6528   -1.6788 C   0  0  0  0  0  0  0  0  0  0  0  0
   -3.3758    1.7538   -0.9694 H   0  0  0  0  0  0  0  0  0  0  0  0
    0.2232   -0.6043    1.6406 C   0  0  0  0  0  0  0  0  0  0  0  0
    0.4736   -1.7485    2.0185 O   0  0  0  0  0  0  0  0  0  0  0  0
    0.5512    0.4768    2.3590 N   0  0  0  0  0  0  0  0  0  0  0  0
    0.2630    1.3782    2.0076 H   0  0  0  0  0  0  0  0  0  0  0  0
    1.2529    0.4352    3.6392 C   0  0  0  0  0  0  0  0  0  0  0  0
    2.2254   -0.0457    3.5119 H   0  0  0  0  0  0  0  0  0  0  0  0
    1.3999    1.4466    4.0192 H   0  0  0  0  0  0  0  0  0  0  0  0
    0.6723   -0.1402    4.3619 H   0  0  0  0  0  0  0  0  0  0  0  0
  5  6  2  0  0  0  0
  5  7  1  0  0  0  0
  2  3  1  0  0  0  0
  2  4  1  0  0  0  0
  2  5  1  0  0  0  0
  1  2  1  0  0  0  0
 22 23  2  0  0  0  0
 22 24  1  0  0  0  0
 20 21  1  0  0  0  0
 19 20  1  0  0  0  0
 17 18  1  0  0  0  0
 17 19  2  0  0  0  0
 15 16  1  0  0  0  0
 15 17  1  0  0  0  0
 14 15  1  0  0  0  0
 14 20  2  0  0  0  0
 11 12  1  0  0  0  0
 11 13  1  0  0  0  0
 11 14  1  0  0  0  0
  9 10  1  0  0  0  0
  9 11  1  0  0  0  0
  9 22  1  0  0  0  0
  7  8  1  0  0  0  0
  7  9  1  0  0  0  0
 26 27  1  0  0  0  0
 26 28  1  0  0  0  0
 26 29  1  0  0  0  0
 24 25  1  0  0  0  0
 24 26  1  0  0  0  0
M  END
$$$$
default_name
  -OEChem-01062215323D

 29 29  0     1  0  0  0  0  0999 V2000
   -3.6042   -3.5728    1.4576 H   0  0  0  0  0  0  0  0  0  0  0  0
   -3.5202   -2.6488    0.8866 C   0  0  0  0  0  0  0  0  0  0  0  0
   -4.2052   -1.9048    1.2896 H   0  0  0  0  0  0  0  0  0  0  0  0
   -3.7552   -2.8428   -0.1584 H   0  0  0  0  0  0  0  0  0  0  0  0
   -2.1052   -2.1358    0.9946 C   0  0  0  0  0  0  0  0  0  0  0  0
   -1.2852   -2.7288    1.6826 O   0  0  0  0  0  0  0  0  0  0  0  0
   -1.8202   -1.0288    0.3146 N   0  0  0  0  0  0  0  0  0  0  0  0
   -2.5542   -0.5788   -0.2104 H   0  0  0  0  0  0  0  0  0  0  0  0
   -0.5102   -0.3728    0.3086 C   0  0  1  0  0  0  0  0  0  0  0  0
    0.0958   -0.8097   -0.4864 H   0  0  0  0  0  0  0  0  0  0  0  0
   -0.6966    1.1244    0.0002 C   0  0  0  0  0  0  0  0  0  0  0  0
   -1.3699    1.5605    0.7403 H   0  0  0  0  0  0  0  0  0  0  0  0
    0.2680    1.6280    0.0861 H   0  0  0  0  0  0  0  0  0  0  0  0
   -1.2554    1.3927   -1.3731 C   0  0  0  0  0  0  0  0  0  0  0  0
   -0.5703    1.2975   -2.5655 N   0  0  0  0  0  0  0  0  0  0  0  0
    0.4155    1.1103   -2.6719 H   0  0  0  0  0  0  0  0  0  0  0  0
   -1.4447    1.5035   -3.5647 C   0  0  0  0  0  0  0  0  0  0  0  0
   -1.2019    1.4971   -4.6203 H   0  0  0  0  0  0  0  0  0  0  0  0
   -2.6730    1.7165   -3.0704 N   0  0  0  0  0  0  0  0  0  0  0  0
   -2.5647    1.6528   -1.6788 C   0  0  0  0  0  0  0  0  0  0  0  0
   -3.3758    1.7538   -0.9694 H   0  0  0  0  0  0  0  0  0  0  0  0
    0.2232   -0.6043    1.6406 C   0  0  0  0  0  0  0  0  0  0  0  0
    0.7169   -1.7032    1.8925 O   0  0  0  0  0  0  0  0  0  0  0  0
    0.2797    0.4217    2.4989 N   0  0  0  0  0  0  0  0  0  0  0  0
   -0.1964    1.2741    2.2424 H   0  0  0  0  0  0  0  0  0  0  0  0
    0.9405    0.3733    3.8005 C   0  0  0  0  0  0  0  0  0  0  0  0
    1.9996    0.1404    3.6686 H   0  0  0  0  0  0  0  0  0  0  0  0
    0.8450    1.3351    4.3053 H   0  0  0  0  0  0  0  0  0  0  0  0
    0.4876   -0.4040    4.4178 H   0  0  0  0  0  0  0  0  0  0  0  0
  5  6  2  0  0  0  0
  5  7  1  0  0  0  0
  2  3  1  0  0  0  0
  2  4  1  0  0  0  0
  2  5  1  0  0  0  0
  1  2  1  0  0  0  0
 22 23  2  0  0  0  0
 22 24  1  0  0  0  0
 20 21  1  0  0  0  0
 19 20  1  0  0  0  0
 17 18  1  0  0  0  0
 17 19  2  0  0  0  0
 15 16  1  0  0  0  0
 15 17  1  0  0  0  0
 14 15  1  0  0  0  0
 14 20  2  0  0  0  0
 11 12  1  0  0  0  0
 11 13  1  0  0  0  0
 11 14  1  0  0  0  0
  9 10  1  0  0  0  0
  9 11  1  0  0  0  0
  9 22  1  0  0  0  0
  7  8  1  0  0  0  0
  7  9  1  0  0  0  0
 26 27  1  0  0  0  0
 26 28  1  0  0  0  0
 26 29  1  0  0  0  0
 24 25  1  0  0  0  0
 24 26  1  0  0  0  0
M  END
$$$$
default_name
  -OEChem-01062215323D

 29 29  0     1  0  0  0  0  0999 V2000
   -3.6042   -3.5728    1.4576 H   0  0  0  0  0  0  0  0  0  0  0  0
   -3.5202   -2.6488    0.8866 C   0  0  0  0  0  0  0  0  0  0  0  0
   -4.2052   -1.9048    1.2896 H   0  0  0  0  0  0  0  0  0  0  0  0
   -3.7552   -2.8428   -0.1584 H   0  0  0  0  0  0  0  0  0  0  0  0
   -2.1052   -2.1358    0.9946 C   0  0  0  0  0  0  0  0  0  0  0  0
   -1.2852   -2.7288    1.6826 O   0  0  0  0  0  0  0  0  0  0  0  0
   -1.8202   -1.0288    0.3146 N   0  0  0  0  0  0  0  0  0  0  0  0
   -2.5542   -0.5788   -0.2104 H   0  0  0  0  0  0  0  0  0  0  0  0
   -0.5102   -0.3728    0.3086 C   0  0  1  0  0  0  0  0  0  0  0  0
    0.0958   -0.8097   -0.4864 H   0  0  0  0  0  0  0  0  0  0  0  0
   -0.6966    1.1244    0.0002 C   0  0  0  0  0  0  0  0  0  0  0  0
   -1.3699    1.5605    0.7403 H   0  0  0  0  0  0  0  0  0  0  0  0
    0.2680    1.6280    0.0861 H   0  0  0  0  0  0  0  0  0  0  0  0
   -1.2554    1.3927   -1.3731 C   0  0  0  0  0  0  0  0  0  0  0  0
   -0.5703    1.2975   -2.5655 N   0  0  0  0  0  0  0  0  0  0  0  0
    0.4155    1.1103   -2.6719 H   0  0  0  0  0  0  0  0  0  0  0  0
   -1.4447    1.5035   -3.5647 C   0  0  0  0  0  0  0  0  0  0  0  0
   -1.2019    1.4971   -4.6203 H   0  0  0  0  0  0  0  0  0  0  0  0
   -2.6730    1.7165   -3.0704 N   0  0  0  0  0  0  0  0  0  0  0  0
   -2.5647    1.6528   -1.6788 C   0  0  0  0  0  0  0  0  0  0  0  0
   -3.3758    1.7538   -0.9694 H   0  0  0  0  0  0  0  0  0  0  0  0
    0.2232   -0.6043    1.6406 C   0  0  0  0  0  0  0  0  0  0  0  0
    0.9466   -1.5894    1.7858 O   0  0  0  0  0  0  0  0  0  0  0  0
    0.0244    0.2904    2.6166 N   0  0  0  0  0  0  0  0  0  0  0  0
   -0.6259    1.0416    2.4385 H   0  0  0  0  0  0  0  0  0  0  0  0
    0.6464    0.2237    3.9364 C   0  0  0  0  0  0  0  0  0  0  0  0
    1.7336    0.2501    3.8342 H   0  0  0  0  0  0  0  0  0  0  0  0
    0.3229    1.0677    4.5463 H   0  0  0  0  0  0  0  0  0  0  0  0
    0.3661   -0.7071    4.4320 H   0  0  0  0  0  0  0  0  0  0  0  0
  5  6  2  0  0  0  0
  5  7  1  0  0  0  0
  2  3  1  0  0  0  0
  2  4  1  0  0  0  0
  2  5  1  0  0  0  0
  1  2  1  0  0  0  0
 22 23  2  0  0  0  0
 22 24  1  0  0  0  0
 20 21  1  0  0  0  0
 19 20  1  0  0  0  0
 17 18  1  0  0  0  0
 17 19  2  0  0  0  0
 15 16  1  0  0  0  0
 15 17  1  0  0  0  0
 14 15  1  0  0  0  0
 14 20  2  0  0  0  0
 11 12  1  0  0  0  0
 11 13  1  0  0  0  0
 11 14  1  0  0  0  0
  9 10  1  0  0  0  0
  9 11  1  0  0  0  0
  9 22  1  0  0  0  0
  7  8  1  0  0  0  0
  7  9  1  0  0  0  0
 26 27  1  0  0  0  0
 26 28  1  0  0  0  0
 26 29  1  0  0  0  0
 24 25  1  0  0  0  0
 24 26  1  0  0  0  0
M  END
$$$$
default_name
  -OEChem-01062215323D

 29 29  0     1  0  0  0  0  0999 V2000
   -3.6042   -3.5728    1.4576 H   0  0  0  0  0  0  0  0  0  0  0  0
   -3.5202   -2.6488    0.8866 C   0  0  0  0  0  0  0  0  0  0  0  0
   -4.2052   -1.9048    1.2896 H   0  0  0  0  0  0  0  0  0  0  0  0
   -3.7552   -2.8428   -0.1584 H   0  0  0  0  0  0  0  0  0  0  0  0
   -2.1052   -2.1358    0.9946 C   0  0  0  0  0  0  0  0  0  0  0  0
   -1.2852   -2.7288    1.6826 O   0  0  0  0  0  0  0  0  0  0  0  0
   -1.8202   -1.0288    0.3146 N   0  0  0  0  0  0  0  0  0  0  0  0
   -2.5542   -0.5788   -0.2104 H   0  0  0  0  0  0  0  0  0  0  0  0
   -0.5102   -0.3728    0.3086 C   0  0  1  0  0  0  0  0  0  0  0  0
    0.0958   -0.8097   -0.4864 H   0  0  0  0  0  0  0  0  0  0  0  0
   -0.6966    1.1244    0.0002 C   0  0  0  0  0  0  0  0  0  0  0  0
   -1.3699    1.5605    0.7403 H   0  0  0  0  0  0  0  0  0  0  0  0
    0.2680    1.6280    0.0861 H   0  0  0  0  0  0  0  0  0  0  0  0
   -1.2554    1.3927   -1.3731 C   0  0  0  0  0  0  0  0  0  0  0  0
   -0.5703    1.2975   -2.5655 N   0  0  0  0  0  0  0  0  0  0  0  0
    0.4155    1.1103   -2.6719 H   0  0  0  0  0  0  0  0  0  0  0  0
   -1.4447    1.5035   -3.5647 C   0  0  0  0  0  0  0  0  0  0  0  0
   -1.2019    1.4971   -4.6203 H   0  0  0  0  0  0  0  0  0  0  0  0
   -2.6730    1.7165   -3.0704 N   0  0  0  0  0  0  0  0  0  0  0  0
   -2.5647    1.6528   -1.6788 C   0  0  0  0  0  0  0  0  0  0  0  0
   -3.3758    1.7538   -0.9694 H   0  0  0  0  0  0  0  0  0  0  0  0
    0.2232   -0.6043    1.6406 C   0  0  0  0  0  0  0  0  0  0  0  0
    1.1471   -1.4147    1.7057 O   0  0  0  0  0  0  0  0  0  0  0  0
   -0.1974    0.0917    2.7042 N   0  0  0  0  0  0  0  0  0  0  0  0
   -0.9964    0.6965    2.5825 H   0  0  0  0  0  0  0  0  0  0  0  0
    0.3905   -0.0036    4.0378 C   0  0  0  0  0  0  0  0  0  0  0  0
    1.4456    0.2761    3.9972 H   0  0  0  0  0  0  0  0  0  0  0  0
   -0.1309    0.6626    4.7258 H   0  0  0  0  0  0  0  0  0  0  0  0
    0.3162   -1.0289    4.4035 H   0  0  0  0  0  0  0  0  0  0  0  0
  5  6  2  0  0  0  0
  5  7  1  0  0  0  0
  2  3  1  0  0  0  0
  2  4  1  0  0  0  0
  2  5  1  0  0  0  0
  1  2  1  0  0  0  0
 22 23  2  0  0  0  0
 22 24  1  0  0  0  0
 20 21  1  0  0  0  0
 19 20  1  0  0  0  0
 17 18  1  0  0  0  0
 17 19  2  0  0  0  0
 15 16  1  0  0  0  0
 15 17  1  0  0  0  0
 14 15  1  0  0  0  0
 14 20  2  0  0  0  0
 11 12  1  0  0  0  0
 11 13  1  0  0  0  0
 11 14  1  0  0  0  0
  9 10  1  0  0  0  0
  9 11  1  0  0  0  0
  9 22  1  0  0  0  0
  7  8  1  0  0  0  0
  7  9  1  0  0  0  0
 26 27  1  0  0  0  0
 26 28  1  0  0  0  0
 26 29  1  0  0  0  0
 24 25  1  0  0  0  0
 24 26  1  0  0  0  0
M  END
$$$$
default_name
  -OEChem-01062215323D

 29 29  0     1  0  0  0  0  0999 V2000
   -3.6042   -3.5728    1.4576 H   0  0  0  0  0  0  0  0  0  0  0  0
   -3.5202   -2.6488    0.8866 C   0  0  0  0  0  0  0  0  0  0  0  0
   -4.2052   -1.9048    1.2896 H   0  0  0  0  0  0  0  0  0  0  0  0
   -3.7552   -2.8428   -0.1584 H   0  0  0  0  0  0  0  0  0  0  0  0
   -2.1052   -2.1358    0.9946 C   0  0  0  0  0  0  0  0  0  0  0  0
   -1.2852   -2.7288    1.6826 O   0  0  0  0  0  0  0  0  0  0  0  0
   -1.8202   -1.0288    0.3146 N   0  0  0  0  0  0  0  0  0  0  0  0
   -2.5542   -0.5788   -0.2104 H   0  0  0  0  0  0  0  0  0  0  0  0
   -0.5102   -0.3728    0.3086 C   0  0  1  0  0  0  0  0  0  0  0  0
    0.0958   -0.8097   -0.4864 H   0  0  0  0  0  0  0  0  0  0  0  0
   -0.6966    1.1244    0.0002 C   0  0  0  0  0  0  0  0  0  0  0  0
   -1.3699    1.5605    0.7403 H   0  0  0  0  0  0  0  0  0  0  0  0
    0.2680    1.6280    0.0861 H   0  0  0  0  0  0  0  0  0  0  0  0
   -1.2554    1.3927   -1.3731 C   0  0  0  0  0  0  0  0  0  0  0  0
   -0.5703    1.2975   -2.5655 N   0  0  0  0  0  0  0  0  0  0  0  0
    0.4155    1.1103   -2.6719 H   0  0  0  0  0  0  0  0  0  0  0  0
   -1.4447    1.5035   -3.5647 C   0  0  0  0  0  0  0  0  0  0  0  0
   -1.2019    1.4971   -4.6203 H   0  0  0  0  0  0  0  0  0  0  0  0
   -2.6730    1.7165   -3.0704 N   0  0  0  0  0  0  0  0  0  0  0  0
   -2.5647    1.6528   -1.6788 C   0  0  0  0  0  0  0  0  0  0  0  0
   -3.3758    1.7538   -0.9694 H   0  0  0  0  0  0  0  0  0  0  0  0
    0.2232   -0.6043    1.6406 C   0  0  0  0  0  0  0  0  0  0  0  0
    1.3048   -1.1912    1.6577 O   0  0  0  0  0  0  0  0  0  0  0  0
   -0.3705   -0.1607    2.7556 N   0  0  0  0  0  0  0  0  0  0  0  0
   -1.2825    0.2624    2.6645 H   0  0  0  0  0  0  0  0  0  0  0  0
    0.1903   -0.2930    4.0977 C   0  0  0  0  0  0  0  0  0  0  0  0
    1.1553    0.2164    4.1467 H   0  0  0  0  0  0  0  0  0  0  0  0
   -0.4855    0.1474    4.8314 H   0  0  0  0  0  0  0  0  0  0  0  0
    0.3412   -1.3474    4.3344 H   0  0  0  0  0  0  0  0  0  0  0  0
  5  6  2  0  0  0  0
  5  7  1  0  0  0  0
  2  3  1  0  0  0  0
  2  4  1  0  0  0  0
  2  5  1  0  0  0  0
  1  2  1  0  0  0  0
 22 23  2  0  0  0  0
 22 24  1  0  0  0  0
 20 21  1  0  0  0  0
 19 20  1  0  0  0  0
 17 18  1  0  0  0  0
 17 19  2  0  0  0  0
 15 16  1  0  0  0  0
 15 17  1  0  0  0  0
 14 15  1  0  0  0  0
 14 20  2  0  0  0  0
 11 12  1  0  0  0  0
 11 13  1  0  0  0  0
 11 14  1  0  0  0  0
  9 10  1  0  0  0  0
  9 11  1  0  0  0  0
  9 22  1  0  0  0  0
  7  8  1  0  0  0  0
  7  9  1  0  0  0  0
 26 27  1  0  0  0  0
 26 28  1  0  0  0  0
 26 29  1  0  0  0  0
 24 25  1  0  0  0  0
 24 26  1  0  0  0  0
M  END
$$$$
default_name
  -OEChem-01062215323D

 29 29  0     1  0  0  0  0  0999 V2000
   -3.6042   -3.5728    1.4576 H   0  0  0  0  0  0  0  0  0  0  0  0
   -3.5202   -2.6488    0.8866 C   0  0  0  0  0  0  0  0  0  0  0  0
   -4.2052   -1.9048    1.2896 H   0  0  0  0  0  0  0  0  0  0  0  0
   -3.7552   -2.8428   -0.1584 H   0  0  0  0  0  0  0  0  0  0  0  0
   -2.1052   -2.1358    0.9946 C   0  0  0  0  0  0  0  0  0  0  0  0
   -1.2852   -2.7288    1.6826 O   0  0  0  0  0  0  0  0  0  0  0  0
   -1.8202   -1.0288    0.3146 N   0  0  0  0  0  0  0  0  0  0  0  0
   -2.5542   -0.5788   -0.2104 H   0  0  0  0  0  0  0  0  0  0  0  0
   -0.5102   -0.3728    0.3086 C   0  0  1  0  0  0  0  0  0  0  0  0
    0.0958   -0.8097   -0.4864 H   0  0  0  0  0  0  0  0  0  0  0  0
   -0.6966    1.1244    0.0002 C   0  0  0  0  0  0  0  0  0  0  0  0
   -1.3699    1.5605    0.7403 H   0  0  0  0  0  0  0  0  0  0  0  0
    0.2680    1.6280    0.0861 H   0  0  0  0  0  0  0  0  0  0  0  0
   -1.2554    1.3927   -1.3731 C   0  0  0  0  0  0  0  0  0  0  0  0
   -0.5703    1.2975   -2.5655 N   0  0  0  0  0  0  0  0  0  0  0  0
    0.4155    1.1103   -2.6719 H   0  0  0  0  0  0  0  0  0  0  0  0
   -1.4447    1.5035   -3.5647 C   0  0  0  0  0  0  0  0  0  0  0  0
   -1.2019    1.4971   -4.6203 H   0  0  0  0  0  0  0  0  0  0  0  0
   -2.6730    1.7165   -3.0704 N   0  0  0  0  0  0  0  0  0  0  0  0
   -2.5647    1.6528   -1.6788 C   0  0  0  0  0  0  0  0  0  0  0  0
   -3.3758    1.7538   -0.9694 H   0  0  0  0  0  0  0  0  0  0  0  0
    0.2232   -0.6043    1.6406 C   0  0  0  0  0  0  0  0  0  0  0  0
    1.4089   -0.9341    1.6451 O   0  0  0  0  0  0  0  0  0  0  0  0
   -0.4831   -0.4496    2.7674 N   0  0  0  0  0  0  0  0  0  0  0  0
   -1.4647   -0.2312    2.6791 H   0  0  0  0  0  0  0  0  0  0  0  0
    0.0595   -0.6248    4.1121 C   0  0  0  0  0  0  0  0  0  0  0  0
    0.8824    0.0753    4.2724 H   0  0  0  0  0  0  0  0  0  0  0  0
   -0.7166   -0.4427    4.8561 H   0  0  0  0  0  0  0  0  0  0  0  0
    0.4394   -1.6409    4.2293 H   0  0  0  0  0  0  0  0  0  0  0  0
  5  6  2  0  0  0  0
  5  7  1  0  0  0  0
  2  3  1  0  0  0  0
  2  4  1  0  0  0  0
  2  5  1  0  0  0  0
  1  2  1  0  0  0  0
 22 23  2  0  0  0  0
 22 24  1  0  0  0  0
 20 21  1  0  0  0  0
 19 20  1  0  0  0  0
 17 18  1  0  0  0  0
 17 19  2  0  0  0  0
 15 16  1  0  0  0  0
 15 17  1  0  0  0  0
 14 15  1  0  0  0  0
 14 20  2  0  0  0  0
 11 12  1  0  0  0  0
 11 13  1  0  0  0  0
 11 14  1  0  0  0  0
  9 10  1  0  0  0  0
  9 11  1  0  0  0  0
  9 22  1  0  0  0  0
  7  8  1  0  0  0  0
  7  9  1  0  0  0  0
 26 27  1  0  0  0  0
 26 28  1  0  0  0  0
 26 29  1  0  0  0  0
 24 25  1  0  0  0  0
 24 26  1  0  0  0  0
M  END
$$$$
default_name
  -OEChem-01062215323D

 29 29  0     1  0  0  0  0  0999 V2000
   -3.6042   -3.5728    1.4576 H   0  0  0  0  0  0  0  0  0  0  0  0
   -3.5202   -2.6488    0.8866 C   0  0  0  0  0  0  0  0  0  0  0  0
   -4.2052   -1.9048    1.2896 H   0  0  0  0  0  0  0  0  0  0  0  0
   -3.7552   -2.8428   -0.1584 H   0  0  0  0  0  0  0  0  0  0  0  0
   -2.1052   -2.1358    0.9946 C   0  0  0  0  0  0  0  0  0  0  0  0
   -1.2852   -2.7288    1.6826 O   0  0  0  0  0  0  0  0  0  0  0  0
   -1.8202   -1.0288    0.3146 N   0  0  0  0  0  0  0  0  0  0  0  0
   -2.5542   -0.5788   -0.2104 H   0  0  0  0  0  0  0  0  0  0  0  0
   -0.5102   -0.3728    0.3086 C   0  0  1  0  0  0  0  0  0  0  0  0
    0.0958   -0.8097   -0.4864 H   0  0  0  0  0  0  0  0  0  0  0  0
   -0.6966    1.1244    0.0002 C   0  0  0  0  0  0  0  0  0  0  0  0
   -1.3699    1.5605    0.7403 H   0  0  0  0  0  0  0  0  0  0  0  0
    0.2680    1.6280    0.0861 H   0  0  0  0  0  0  0  0  0  0  0  0
   -1.2554    1.3927   -1.3731 C   0  0  0  0  0  0  0  0  0  0  0  0
   -0.5703    1.2975   -2.5655 N   0  0  0  0  0  0  0  0  0  0  0  0
    0.4155    1.1103   -2.6719 H   0  0  0  0  0  0  0  0  0  0  0  0
   -1.4447    1.5035   -3.5647 C   0  0  0  0  0  0  0  0  0  0  0  0
   -1.2019    1.4971   -4.6203 H   0  0  0  0  0  0  0  0  0  0  0  0
   -2.6730    1.7165   -3.0704 N   0  0  0  0  0  0  0  0  0  0  0  0
   -2.5647    1.6528   -1.6788 C   0  0  0  0  0  0  0  0  0  0  0  0
   -3.3758    1.7538   -0.9694 H   0  0  0  0  0  0  0  0  0  0  0  0
    0.2232   -0.6043    1.6406 C   0  0  0  0  0  0  0  0  0  0  0  0
    1.4523   -0.6608    1.6687 O   0  0  0  0  0  0  0  0  0  0  0  0
   -0.5276   -0.7554    2.7388 N   0  0  0  0  0  0  0  0  0  0  0  0
   -1.5306   -0.7505    2.6251 H   0  0  0  0  0  0  0  0  0  0  0  0
    0.0069   -0.9764    4.0799 C   0  0  0  0  0  0  0  0  0  0  0  0
    0.6455   -0.1376    4.3658 H   0  0  0  0  0  0  0  0  0  0  0  0
   -0.8085   -1.0675    4.7981 H   0  0  0  0  0  0  0  0  0  0  0  0
    0.6041   -1.8894    4.0954 H   0  0  0  0  0  0  0  0  0  0  0  0
  5  6  2  0  0  0  0
  5  7  1  0  0  0  0
  2  3  1  0  0  0  0
  2  4  1  0  0  0  0
  2  5  1  0  0  0  0
  1  2  1  0  0  0  0
 22 23  2  0  0  0  0
 22 24  1  0  0  0  0
 20 21  1  0  0  0  0
 19 20  1  0  0  0  0
 17 18  1  0  0  0  0
 17 19  2  0  0  0  0
 15 16  1  0  0  0  0
 15 17  1  0  0  0  0
 14 15  1  0  0  0  0
 14 20  2  0  0  0  0
 11 12  1  0  0  0  0
 11 13  1  0  0  0  0
 11 14  1  0  0  0  0
  9 10  1  0  0  0  0
  9 11  1  0  0  0  0
  9 22  1  0  0  0  0
  7  8  1  0  0  0  0
  7  9  1  0  0  0  0
 26 27  1  0  0  0  0
 26 28  1  0  0  0  0
 26 29  1  0  0  0  0
 24 25  1  0  0  0  0
 24 26  1  0  0  0  0
M  END
$$$$
default_name
  -OEChem-01062215323D

 29 29  0     1  0  0  0  0  0999 V2000
   -3.6042   -3.5728    1.4576 H   0  0  0  0  0  0  0  0  0  0  0  0
   -3.5202   -2.6488    0.8866 C   0  0  0  0  0  0  0  0  0  0  0  0
   -4.2052   -1.9048    1.2896 H   0  0  0  0  0  0  0  0  0  0  0  0
   -3.7552   -2.8428   -0.1584 H   0  0  0  0  0  0  0  0  0  0  0  0
   -2.1052   -2.1358    0.9946 C   0  0  0  0  0  0  0  0  0  0  0  0
   -1.2852   -2.7288    1.6826 O   0  0  0  0  0  0  0  0  0  0  0  0
   -1.8202   -1.0288    0.3146 N   0  0  0  0  0  0  0  0  0  0  0  0
   -2.5542   -0.5788   -0.2104 H   0  0  0  0  0  0  0  0  0  0  0  0
   -0.5102   -0.3728    0.3086 C   0  0  1  0  0  0  0  0  0  0  0  0
    0.0958   -0.8097   -0.4864 H   0  0  0  0  0  0  0  0  0  0  0  0
   -0.6966    1.1244    0.0002 C   0  0  0  0  0  0  0  0  0  0  0  0
   -1.3699    1.5605    0.7403 H   0  0  0  0  0  0  0  0  0  0  0  0
    0.2680    1.6280    0.0861 H   0  0  0  0  0  0  0  0  0  0  0  0
   -1.2554    1.3927   -1.3731 C   0  0  0  0  0  0  0  0  0  0  0  0
   -0.5703    1.2975   -2.5655 N   0  0  0  0  0  0  0  0  0  0  0  0
    0.4155    1.1103   -2.6719 H   0  0  0  0  0  0  0  0  0  0  0  0
   -1.4447    1.5035   -3.5647 C   0  0  0  0  0  0  0  0  0  0  0  0
   -1.2019    1.4971   -4.6203 H   0  0  0  0  0  0  0  0  0  0  0  0
   -2.6730    1.7165   -3.0704 N   0  0  0  0  0  0  0  0  0  0  0  0
   -2.5647    1.6528   -1.6788 C   0  0  0  0  0  0  0  0  0  0  0  0
   -3.3758    1.7538   -0.9694 H   0  0  0  0  0  0  0  0  0  0  0  0
    0.2232   -0.6043    1.6406 C   0  0  0  0  0  0  0  0  0  0  0  0
    1.4321   -0.3900    1.7269 O   0  0  0  0  0  0  0  0  0  0  0  0
   -0.5010   -1.0573    2.6716 N   0  0  0  0  0  0  0  0  0  0  0  0
   -1.4758   -1.2604    2.5063 H   0  0  0  0  0  0  0  0  0  0  0  0
    0.0362   -1.3238    4.0034 C   0  0  0  0  0  0  0  0  0  0  0  0
    0.4609   -0.4080    4.4205 H   0  0  0  0  0  0  0  0  0  0  0  0
   -0.7550   -1.6845    4.6614 H   0  0  0  0  0  0  0  0  0  0  0  0
    0.8242   -2.0760    3.9418 H   0  0  0  0  0  0  0  0  0  0  0  0
  5  6  2  0  0  0  0
  5  7  1  0  0  0  0
  2  3  1  0  0  0  0
  2  4  1  0  0  0  0
  2  5  1  0  0  0  0
  1  2  1  0  0  0  0
 22 23  2  0  0  0  0
 22 24  1  0  0  0  0
 20 21  1  0  0  0  0
 19 20  1  0  0  0  0
 17 18  1  0  0  0  0
 17 19  2  0  0  0  0
 15 16  1  0  0  0  0
 15 17  1  0  0  0  0
 14 15  1  0  0  0  0
 14 20  2  0  0  0  0
 11 12  1  0  0  0  0
 11 13  1  0  0  0  0
 11 14  1  0  0  0  0
  9 10  1  0  0  0  0
  9 11  1  0  0  0  0
  9 22  1  0  0  0  0
  7  8  1  0  0  0  0
  7  9  1  0  0  0  0
 26 27  1  0  0  0  0
 26 28  1  0  0  0  0
 26 29  1  0  0  0  0
 24 25  1  0  0  0  0
 24 26  1  0  0  0  0
M  END
$$$$
default_name
  -OEChem-01062215323D

 29 29  0     1  0  0  0  0  0999 V2000
   -3.6042   -3.5728    1.4576 H   0  0  0  0  0  0  0  0  0  0  0  0
   -3.5202   -2.6488    0.8866 C   0  0  0  0  0  0  0  0  0  0  0  0
   -4.2052   -1.9048    1.2896 H   0  0  0  0  0  0  0  0  0  0  0  0
   -3.7552   -2.8428   -0.1584 H   0  0  0  0  0  0  0  0  0  0  0  0
   -2.1052   -2.1358    0.9946 C   0  0  0  0  0  0  0  0  0  0  0  0
   -1.2852   -2.7288    1.6826 O   0  0  0  0  0  0  0  0  0  0  0  0
   -1.8202   -1.0288    0.3146 N   0  0  0  0  0  0  0  0  0  0  0  0
   -2.5542   -0.5788   -0.2104 H   0  0  0  0  0  0  0  0  0  0  0  0
   -0.5102   -0.3728    0.3086 C   0  0  1  0  0  0  0  0  0  0  0  0
    0.0958   -0.8097   -0.4864 H   0  0  0  0  0  0  0  0  0  0  0  0
   -0.6966    1.1244    0.0002 C   0  0  0  0  0  0  0  0  0  0  0  0
   -1.3699    1.5605    0.7403 H   0  0  0  0  0  0  0  0  0  0  0  0
    0.2680    1.6280    0.0861 H   0  0  0  0  0  0  0  0  0  0  0  0
   -1.2554    1.3927   -1.3731 C   0  0  0  0  0  0  0  0  0  0  0  0
   -0.5703    1.2975   -2.5655 N   0  0  0  0  0  0  0  0  0  0  0  0
    0.4155    1.1103   -2.6719 H   0  0  0  0  0  0  0  0  0  0  0  0
   -1.4447    1.5035   -3.5647 C   0  0  0  0  0  0  0  0  0  0  0  0
   -1.2019    1.4971   -4.6203 H   0  0  0  0  0  0  0  0  0  0  0  0
   -2.6730    1.7165   -3.0704 N   0  0  0  0  0  0  0  0  0  0  0  0
   -2.5647    1.6528   -1.6788 C   0  0  0  0  0  0  0  0  0  0  0  0
   -3.3758    1.7538   -0.9694 H   0  0  0  0  0  0  0  0  0  0  0  0
    0.2232   -0.6043    1.6406 C   0  0  0  0  0  0  0  0  0  0  0  0
    1.3495   -0.1402    1.8158 O   0  0  0  0  0  0  0  0  0  0  0  0
   -0.4049   -1.3345    2.5706 N   0  0  0  0  0  0  0  0  0  0  0  0
   -1.3040   -1.7259    2.3308 H   0  0  0  0  0  0  0  0  0  0  0  0
    0.1453   -1.6434    3.8877 C   0  0  0  0  0  0  0  0  0  0  0  0
    0.3409   -0.7172    4.4328 H   0  0  0  0  0  0  0  0  0  0  0  0
   -0.5596   -2.2516    4.4553 H   0  0  0  0  0  0  0  0  0  0  0  0
    1.0846   -2.1880    3.7790 H   0  0  0  0  0  0  0  0  0  0  0  0
  5  6  2  0  0  0  0
  5  7  1  0  0  0  0
  2  3  1  0  0  0  0
  2  4  1  0  0  0  0
  2  5  1  0  0  0  0
  1  2  1  0  0  0  0
 22 23  2  0  0  0  0
 22 24  1  0  0  0  0
 20 21  1  0  0  0  0
 19 20  1  0  0  0  0
 17 18  1  0  0  0  0
 17 19  2  0  0  0  0
 15 16  1  0  0  0  0
 15 17  1  0  0  0  0
 14 15  1  0  0  0  0
 14 20  2  0  0  0  0
 11 12  1  0  0  0  0
 11 13  1  0  0  0  0
 11 14  1  0  0  0  0
  9 10  1  0  0  0  0
  9 11  1  0  0  0  0
  9 22  1  0  0  0  0
  7  8  1  0  0  0  0
  7  9  1  0  0  0  0
 26 27  1  0  0  0  0
 26 28  1  0  0  0  0
 26 29  1  0  0  0  0
 24 25  1  0  0  0  0
 24 26  1  0  0  0  0
M  END
$$$$
default_name
  -OEChem-01062215323D

 29 29  0     1  0  0  0  0  0999 V2000
   -3.6042   -3.5728    1.4576 H   0  0  0  0  0  0  0  0  0  0  0  0
   -3.5202   -2.6488    0.8866 C   0  0  0  0  0  0  0  0  0  0  0  0
   -4.2052   -1.9048    1.2896 H   0  0  0  0  0  0  0  0  0  0  0  0
   -3.7552   -2.8428   -0.1584 H   0  0  0  0  0  0  0  0  0  0  0  0
   -2.1052   -2.1358    0.9946 C   0  0  0  0  0  0  0  0  0  0  0  0
   -1.2852   -2.7288    1.6826 O   0  0  0  0  0  0  0  0  0  0  0  0
   -1.8202   -1.0288    0.3146 N   0  0  0  0  0  0  0  0  0  0  0  0
   -2.5542   -0.5788   -0.2104 H   0  0  0  0  0  0  0  0  0  0  0  0
   -0.5102   -0.3728    0.3086 C   0  0  1  0  0  0  0  0  0  0  0  0
    0.0958   -0.8097   -0.4864 H   0  0  0  0  0  0  0  0  0  0  0  0
   -0.6966    1.1244    0.0002 C   0  0  0  0  0  0  0  0  0  0  0  0
   -1.3699    1.5605    0.7403 H   0  0  0  0  0  0  0  0  0  0  0  0
    0.2680    1.6280    0.0861 H   0  0  0  0  0  0  0  0  0  0  0  0
   -1.2554    1.3927   -1.3731 C   0  0  0  0  0  0  0  0  0  0  0  0
   -0.5703    1.2975   -2.5655 N   0  0  0  0  0  0  0  0  0  0  0  0
    0.4155    1.1103   -2.6719 H   0  0  0  0  0  0  0  0  0  0  0  0
   -1.4447    1.5035   -3.5647 C   0  0  0  0  0  0  0  0  0  0  0  0
   -1.2019    1.4971   -4.6203 H   0  0  0  0  0  0  0  0  0  0  0  0
   -2.6730    1.7165   -3.0704 N   0  0  0  0  0  0  0  0  0  0  0  0
   -2.5647    1.6528   -1.6788 C   0  0  0  0  0  0  0  0  0  0  0  0
   -3.3758    1.7538   -0.9694 H   0  0  0  0  0  0  0  0  0  0  0  0
    0.2232   -0.6043    1.6406 C   0  0  0  0  0  0  0  0  0  0  0  0
    1.2104    0.0717    1.9293 O   0  0  0  0  0  0  0  0  0  0  0  0
   -0.2461   -1.5684    2.4424 N   0  0  0  0  0  0  0  0  0  0  0  0
   -1.0269   -2.1153    2.1105 H   0  0  0  0  0  0  0  0  0  0  0  0
    0.3269   -1.9134    3.7408 C   0  0  0  0  0  0  0  0  0  0  0  0
    0.2939   -1.0444    4.4018 H   0  0  0  0  0  0  0  0  0  0  0  0
   -0.2358   -2.7301    4.1938 H   0  0  0  0  0  0  0  0  0  0  0  0
    1.3675   -2.2177    3.6180 H   0  0  0  0  0  0  0  0  0  0  0  0
  5  6  2  0  0  0  0
  5  7  1  0  0  0  0
  2  3  1  0  0  0  0
  2  4  1  0  0  0  0
  2  5  1  0  0  0  0
  1  2  1  0  0  0  0
 22 23  2  0  0  0  0
 22 24  1  0  0  0  0
 20 21  1  0  0  0  0
 19 20  1  0  0  0  0
 17 18  1  0  0  0  0
 17 19  2  0  0  0  0
 15 16  1  0  0  0  0
 15 17  1  0  0  0  0
 14 15  1  0  0  0  0
 14 20  2  0  0  0  0
 11 12  1  0  0  0  0
 11 13  1  0  0  0  0
 11 14  1  0  0  0  0
  9 10  1  0  0  0  0
  9 11  1  0  0  0  0
  9 22  1  0  0  0  0
  7  8  1  0  0  0  0
  7  9  1  0  0  0  0
 26 27  1  0  0  0  0
 26 28  1  0  0  0  0
 26 29  1  0  0  0  0
 24 25  1  0  0  0  0
 24 26  1  0  0  0  0
M  END
$$$$
default_name
  -OEChem-01062215323D

 29 29  0     1  0  0  0  0  0999 V2000
   -3.6042   -3.5728    1.4576 H   0  0  0  0  0  0  0  0  0  0  0  0
   -3.5202   -2.6488    0.8866 C   0  0  0  0  0  0  0  0  0  0  0  0
   -4.2052   -1.9048    1.2896 H   0  0  0  0  0  0  0  0  0  0  0  0
   -3.7552   -2.8428   -0.1584 H   0  0  0  0  0  0  0  0  0  0  0  0
   -2.1052   -2.1358    0.9946 C   0  0  0  0  0  0  0  0  0  0  0  0
   -1.2852   -2.7288    1.6826 O   0  0  0  0  0  0  0  0  0  0  0  0
   -1.8202   -1.0288    0.3146 N   0  0  0  0  0  0  0  0  0  0  0  0
   -2.5542   -0.5788   -0.2104 H   0  0  0  0  0  0  0  0  0  0  0  0
   -0.5102   -0.3728    0.3086 C   0  0  1  0  0  0  0  0  0  0  0  0
    0.0958   -0.8097   -0.4864 H   0  0  0  0  0  0  0  0  0  0  0  0
   -0.6966    1.1244    0.0002 C   0  0  0  0  0  0  0  0  0  0  0  0
   -1.3699    1.5605    0.7403 H   0  0  0  0  0  0  0  0  0  0  0  0
    0.2680    1.6280    0.0861 H   0  0  0  0  0  0  0  0  0  0  0  0
   -1.2554    1.3927   -1.3731 C   0  0  0  0  0  0  0  0  0  0  0  0
   -0.5703    1.2975   -2.5655 N   0  0  0  0  0  0  0  0  0  0  0  0
    0.4155    1.1103   -2.6719 H   0  0  0  0  0  0  0  0  0  0  0  0
   -1.4447    1.5035   -3.5647 C   0  0  0  0  0  0  0  0  0  0  0  0
   -1.2019    1.4971   -4.6203 H   0  0  0  0  0  0  0  0  0  0  0  0
   -2.6730    1.7165   -3.0704 N   0  0  0  0  0  0  0  0  0  0  0  0
   -2.5647    1.6528   -1.6788 C   0  0  0  0  0  0  0  0  0  0  0  0
   -3.3758    1.7538   -0.9694 H   0  0  0  0  0  0  0  0  0  0  0  0
    0.2232   -0.6043    1.6406 C   0  0  0  0  0  0  0  0  0  0  0  0
    1.0240    0.2311    2.0596 O   0  0  0  0  0  0  0  0  0  0  0  0
   -0.0352   -1.7428    2.2960 N   0  0  0  0  0  0  0  0  0  0  0  0
   -0.6633   -2.4022    1.8604 H   0  0  0  0  0  0  0  0  0  0  0  0
    0.5685   -2.1153    3.5727 C   0  0  0  0  0  0  0  0  0  0  0  0
    0.3230   -1.3671    4.3297 H   0  0  0  0  0  0  0  0  0  0  0  0
    0.1944   -3.0875    3.8948 H   0  0  0  0  0  0  0  0  0  0  0  0
    1.6537   -2.1631    3.4699 H   0  0  0  0  0  0  0  0  0  0  0  0
  5  6  2  0  0  0  0
  5  7  1  0  0  0  0
  2  3  1  0  0  0  0
  2  4  1  0  0  0  0
  2  5  1  0  0  0  0
  1  2  1  0  0  0  0
 22 23  2  0  0  0  0
 22 24  1  0  0  0  0
 20 21  1  0  0  0  0
 19 20  1  0  0  0  0
 17 18  1  0  0  0  0
 17 19  2  0  0  0  0
 15 16  1  0  0  0  0
 15 17  1  0  0  0  0
 14 15  1  0  0  0  0
 14 20  2  0  0  0  0
 11 12  1  0  0  0  0
 11 13  1  0  0  0  0
 11 14  1  0  0  0  0
  9 10  1  0  0  0  0
  9 11  1  0  0  0  0
  9 22  1  0  0  0  0
  7  8  1  0  0  0  0
  7  9  1  0  0  0  0
 26 27  1  0  0  0  0
 26 28  1  0  0  0  0
 26 29  1  0  0  0  0
 24 25  1  0  0  0  0
 24 26  1  0  0  0  0
M  END
$$$$
default_name
  -OEChem-01062215323D

 29 29  0     1  0  0  0  0  0999 V2000
   -3.6042   -3.5728    1.4576 H   0  0  0  0  0  0  0  0  0  0  0  0
   -3.5202   -2.6488    0.8866 C   0  0  0  0  0  0  0  0  0  0  0  0
   -4.2052   -1.9048    1.2896 H   0  0  0  0  0  0  0  0  0  0  0  0
   -3.7552   -2.8428   -0.1584 H   0  0  0  0  0  0  0  0  0  0  0  0
   -2.1052   -2.1358    0.9946 C   0  0  0  0  0  0  0  0  0  0  0  0
   -1.2852   -2.7288    1.6826 O   0  0  0  0  0  0  0  0  0  0  0  0
   -1.8202   -1.0288    0.3146 N   0  0  0  0  0  0  0  0  0  0  0  0
   -2.5542   -0.5788   -0.2104 H   0  0  0  0  0  0  0  0  0  0  0  0
   -0.5102   -0.3728    0.3086 C   0  0  1  0  0  0  0  0  0  0  0  0
    0.0958   -0.8097   -0.4864 H   0  0  0  0  0  0  0  0  0  0  0  0
   -0.6966    1.1244    0.0002 C   0  0  0  0  0  0  0  0  0  0  0  0
   -1.3699    1.5605    0.7403 H   0  0  0  0  0  0  0  0  0  0  0  0
    0.2680    1.6280    0.0861 H   0  0  0  0  0  0  0  0  0  0  0  0
   -1.2554    1.3927   -1.3731 C   0  0  0  0  0  0  0  0  0  0  0  0
   -0.5703    1.2975   -2.5655 N   0  0  0  0  0  0  0  0  0  0  0  0
    0.4155    1.1103   -2.6719 H   0  0  0  0  0  0  0  0  0  0  0  0
   -1.4447    1.5035   -3.5647 C   0  0  0  0  0  0  0  0  0  0  0  0
   -1.2019    1.4971   -4.6203 H   0  0  0  0  0  0  0  0  0  0  0  0
   -2.6730    1.7165   -3.0704 N   0  0  0  0  0  0  0  0  0  0  0  0
   -2.5647    1.6528   -1.6788 C   0  0  0  0  0  0  0  0  0  0  0  0
   -3.3758    1.7538   -0.9694 H   0  0  0  0  0  0  0  0  0  0  0  0
    0.2232   -0.6043    1.6406 C   0  0  0  0  0  0  0  0  0  0  0  0
    0.8032    0.3273    2.1979 O   0  0  0  0  0  0  0  0  0  0  0  0
    0.2132   -1.8460    2.1413 N   0  0  0  0  0  0  0  0  0  0  0  0
   -0.2380   -2.5669    1.5977 H   0  0  0  0  0  0  0  0  0  0  0  0
    0.8537   -2.2354    3.3948 C   0  0  0  0  0  0  0  0  0  0  0  0
    0.4263   -1.6633    4.2214 H   0  0  0  0  0  0  0  0  0  0  0  0
    0.7017   -3.2994    3.5787 H   0  0  0  0  0  0  0  0  0  0  0  0
    1.9237   -2.0279    3.3448 H   0  0  0  0  0  0  0  0  0  0  0  0
  5  6  2  0  0  0  0
  5  7  1  0  0  0  0
  2  3  1  0  0  0  0
  2  4  1  0  0  0  0
  2  5  1  0  0  0  0
  1  2  1  0  0  0  0
 22 23  2  0  0  0  0
 22 24  1  0  0  0  0
 20 21  1  0  0  0  0
 19 20  1  0  0  0  0
 17 18  1  0  0  0  0
 17 19  2  0  0  0  0
 15 16  1  0  0  0  0
 15 17  1  0  0  0  0
 14 15  1  0  0  0  0
 14 20  2  0  0  0  0
 11 12  1  0  0  0  0
 11 13  1  0  0  0  0
 11 14  1  0  0  0  0
  9 10  1  0  0  0  0
  9 11  1  0  0  0  0
  9 22  1  0  0  0  0
  7  8  1  0  0  0  0
  7  9  1  0  0  0  0
 26 27  1  0  0  0  0
 26 28  1  0  0  0  0
 26 29  1  0  0  0  0
 24 25  1  0  0  0  0
 24 26  1  0  0  0  0
M  END
$$$$
default_name
  -OEChem-01062215323D

 29 29  0     1  0  0  0  0  0999 V2000
   -3.6042   -3.5728    1.4576 H   0  0  0  0  0  0  0  0  0  0  0  0
   -3.5202   -2.6488    0.8866 C   0  0  0  0  0  0  0  0  0  0  0  0
   -4.2052   -1.9048    1.2896 H   0  0  0  0  0  0  0  0  0  0  0  0
   -3.7552   -2.8428   -0.1584 H   0  0  0  0  0  0  0  0  0  0  0  0
   -2.1052   -2.1358    0.9946 C   0  0  0  0  0  0  0  0  0  0  0  0
   -1.2852   -2.7288    1.6826 O   0  0  0  0  0  0  0  0  0  0  0  0
   -1.8202   -1.0288    0.3146 N   0  0  0  0  0  0  0  0  0  0  0  0
   -2.5542   -0.5788   -0.2104 H   0  0  0  0  0  0  0  0  0  0  0  0
   -0.5102   -0.3728    0.3086 C   0  0  1  0  0  0  0  0  0  0  0  0
    0.0958   -0.8097   -0.4864 H   0  0  0  0  0  0  0  0  0  0  0  0
   -0.6966    1.1244    0.0002 C   0  0  0  0  0  0  0  0  0  0  0  0
   -1.3699    1.5605    0.7403 H   0  0  0  0  0  0  0  0  0  0  0  0
    0.2680    1.6280    0.0861 H   0  0  0  0  0  0  0  0  0  0  0  0
   -1.2554    1.3927   -1.3731 C   0  0  0  0  0  0  0  0  0  0  0  0
   -0.5703    1.2975   -2.5655 N   0  0  0  0  0  0  0  0  0  0  0  0
    0.4155    1.1103   -2.6719 H   0  0  0  0  0  0  0  0  0  0  0  0
   -1.4447    1.5035   -3.5647 C   0  0  0  0  0  0  0  0  0  0  0  0
   -1.2019    1.4971   -4.6203 H   0  0  0  0  0  0  0  0  0  0  0  0
   -2.6730    1.7165   -3.0704 N   0  0  0  0  0  0  0  0  0  0  0  0
   -2.5647    1.6528   -1.6788 C   0  0  0  0  0  0  0  0  0  0  0  0
   -3.3758    1.7538   -0.9694 H   0  0  0  0  0  0  0  0  0  0  0  0
    0.2232   -0.6043    1.6406 C   0  0  0  0  0  0  0  0  0  0  0  0
    0.5630    0.3536    2.3347 O   0  0  0  0  0  0  0  0  0  0  0  0
    0.4824   -1.8708    1.9888 N   0  0  0  0  0  0  0  0  0  0  0  0
    0.2199   -2.5983    1.3401 H   0  0  0  0  0  0  0  0  0  0  0  0
    1.1630   -2.2656    3.2192 C   0  0  0  0  0  0  0  0  0  0  0  0
    0.5967   -1.9130    4.0842 H   0  0  0  0  0  0  0  0  0  0  0  0
    1.2515   -3.3514    3.2669 H   0  0  0  0  0  0  0  0  0  0  0  0
    2.1591   -1.8214    3.2511 H   0  0  0  0  0  0  0  0  0  0  0  0
  5  6  2  0  0  0  0
  5  7  1  0  0  0  0
  2  3  1  0  0  0  0
  2  4  1  0  0  0  0
  2  5  1  0  0  0  0
  1  2  1  0  0  0  0
 22 23  2  0  0  0  0
 22 24  1  0  0  0  0
 20 21  1  0  0  0  0
 19 20  1  0  0  0  0
 17 18  1  0  0  0  0
 17 19  2  0  0  0  0
 15 16  1  0  0  0  0
 15 17  1  0  0  0  0
 14 15  1  0  0  0  0
 14 20  2  0  0  0  0
 11 12  1  0  0  0  0
 11 13  1  0  0  0  0
 11 14  1  0  0  0  0
  9 10  1  0  0  0  0
  9 11  1  0  0  0  0
  9 22  1  0  0  0  0
  7  8  1  0  0  0  0
  7  9  1  0  0  0  0
 26 27  1  0  0  0  0
 26 28  1  0  0  0  0
 26 29  1  0  0  0  0
 24 25  1  0  0  0  0
 24 26  1  0  0  0  0
M  END
$$$$
default_name
  -OEChem-01062215323D

 29 29  0     1  0  0  0  0  0999 V2000
   -3.6042   -3.5728    1.4576 H   0  0  0  0  0  0  0  0  0  0  0  0
   -3.5202   -2.6488    0.8866 C   0  0  0  0  0  0  0  0  0  0  0  0
   -4.2052   -1.9048    1.2896 H   0  0  0  0  0  0  0  0  0  0  0  0
   -3.7552   -2.8428   -0.1584 H   0  0  0  0  0  0  0  0  0  0  0  0
   -2.1052   -2.1358    0.9946 C   0  0  0  0  0  0  0  0  0  0  0  0
   -1.2852   -2.7288    1.6826 O   0  0  0  0  0  0  0  0  0  0  0  0
   -1.8202   -1.0288    0.3146 N   0  0  0  0  0  0  0  0  0  0  0  0
   -2.5542   -0.5788   -0.2104 H   0  0  0  0  0  0  0  0  0  0  0  0
   -0.5102   -0.3728    0.3086 C   0  0  1  0  0  0  0  0  0  0  0  0
    0.0958   -0.8097   -0.4864 H   0  0  0  0  0  0  0  0  0  0  0  0
   -0.6966    1.1244    0.0002 C   0  0  0  0  0  0  0  0  0  0  0  0
   -1.3699    1.5605    0.7403 H   0  0  0  0  0  0  0  0  0  0  0  0
    0.2680    1.6280    0.0861 H   0  0  0  0  0  0  0  0  0  0  0  0
   -1.2554    1.3927   -1.3731 C   0  0  0  0  0  0  0  0  0  0  0  0
   -0.5703    1.2975   -2.5655 N   0  0  0  0  0  0  0  0  0  0  0  0
    0.4155    1.1103   -2.6719 H   0  0  0  0  0  0  0  0  0  0  0  0
   -1.4447    1.5035   -3.5647 C   0  0  0  0  0  0  0  0  0  0  0  0
   -1.2019    1.4971   -4.6203 H   0  0  0  0  0  0  0  0  0  0  0  0
   -2.6730    1.7165   -3.0704 N   0  0  0  0  0  0  0  0  0  0  0  0
   -2.5647    1.6528   -1.6788 C   0  0  0  0  0  0  0  0  0  0  0  0
   -3.3758    1.7538   -0.9694 H   0  0  0  0  0  0  0  0  0  0  0  0
    0.2232   -0.6043    1.6406 C   0  0  0  0  0  0  0  0  0  0  0  0
    0.3197    0.3083    2.4608 O   0  0  0  0  0  0  0  0  0  0  0  0
    0.7539   -1.8157    1.8489 N   0  0  0  0  0  0  0  0  0  0  0  0
    0.6793   -2.4942    1.1052 H   0  0  0  0  0  0  0  0  0  0  0  0
    1.4754   -2.2038    3.0580 C   0  0  0  0  0  0  0  0  0  0  0  0
    0.8225   -2.0990    3.9275 H   0  0  0  0  0  0  0  0  0  0  0  0
    1.8064   -3.2398    2.9807 H   0  0  0  0  0  0  0  0  0  0  0  0
    2.3438   -1.5576    3.1952 H   0  0  0  0  0  0  0  0  0  0  0  0
  5  6  2  0  0  0  0
  5  7  1  0  0  0  0
  2  3  1  0  0  0  0
  2  4  1  0  0  0  0
  2  5  1  0  0  0  0
  1  2  1  0  0  0  0
 22 23  2  0  0  0  0
 22 24  1  0  0  0  0
 20 21  1  0  0  0  0
 19 20  1  0  0  0  0
 17 18  1  0  0  0  0
 17 19  2  0  0  0  0
 15 16  1  0  0  0  0
 15 17  1  0  0  0  0
 14 15  1  0  0  0  0
 14 20  2  0  0  0  0
 11 12  1  0  0  0  0
 11 13  1  0  0  0  0
 11 14  1  0  0  0  0
  9 10  1  0  0  0  0
  9 11  1  0  0  0  0
  9 22  1  0  0  0  0
  7  8  1  0  0  0  0
  7  9  1  0  0  0  0
 26 27  1  0  0  0  0
 26 28  1  0  0  0  0
 26 29  1  0  0  0  0
 24 25  1  0  0  0  0
 24 26  1  0  0  0  0
M  END
$$$$
default_name
  -OEChem-01062215323D

 29 29  0     1  0  0  0  0  0999 V2000
   -3.6042   -3.5728    1.4576 H   0  0  0  0  0  0  0  0  0  0  0  0
   -3.5202   -2.6488    0.8866 C   0  0  0  0  0  0  0  0  0  0  0  0
   -4.2052   -1.9048    1.2896 H   0  0  0  0  0  0  0  0  0  0  0  0
   -3.7552   -2.8428   -0.1584 H   0  0  0  0  0  0  0  0  0  0  0  0
   -2.1052   -2.1358    0.9946 C   0  0  0  0  0  0  0  0  0  0  0  0
   -1.2852   -2.7288    1.6826 O   0  0  0  0  0  0  0  0  0  0  0  0
   -1.8202   -1.0288    0.3146 N   0  0  0  0  0  0  0  0  0  0  0  0
   -2.5542   -0.5788   -0.2104 H   0  0  0  0  0  0  0  0  0  0  0  0
   -0.5102   -0.3728    0.3086 C   0  0  1  0  0  0  0  0  0  0  0  0
    0.0958   -0.8097   -0.4864 H   0  0  0  0  0  0  0  0  0  0  0  0
   -0.6966    1.1244    0.0002 C   0  0  0  0  0  0  0  0  0  0  0  0
   -1.3699    1.5605    0.7403 H   0  0  0  0  0  0  0  0  0  0  0  0
    0.2680    1.6280    0.0861 H   0  0  0  0  0  0  0  0  0  0  0  0
   -1.2554    1.3927   -1.3731 C   0  0  0  0  0  0  0  0  0  0  0  0
   -0.5703    1.2975   -2.5655 N   0  0  0  0  0  0  0  0  0  0  0  0
    0.4155    1.1103   -2.6719 H   0  0  0  0  0  0  0  0  0  0  0  0
   -1.4447    1.5035   -3.5647 C   0  0  0  0  0  0  0  0  0  0  0  0
   -1.2019    1.4971   -4.6203 H   0  0  0  0  0  0  0  0  0  0  0  0
   -2.6730    1.7165   -3.0704 N   0  0  0  0  0  0  0  0  0  0  0  0
   -2.5647    1.6528   -1.6788 C   0  0  0  0  0  0  0  0  0  0  0  0
   -3.3758    1.7538   -0.9694 H   0  0  0  0  0  0  0  0  0  0  0  0
    0.2232   -0.6043    1.6406 C   0  0  0  0  0  0  0  0  0  0  0  0
    0.0900    0.1944    2.5675 O   0  0  0  0  0  0  0  0  0  0  0  0
    1.0092   -1.6843    1.7311 N   0  0  0  0  0  0  0  0  0  0  0  0
    1.1088   -2.2617    0.9091 H   0  0  0  0  0  0  0  0  0  0  0  0
    1.7696   -2.0541    2.9220 C   0  0  0  0  0  0  0  0  0  0  0  0
    1.0885   -2.2088    3.7619 H   0  0  0  0  0  0  0  0  0  0  0  0
    2.3285   -2.9724    2.7397 H   0  0  0  0  0  0  0  0  0  0  0  0
    2.4653   -1.2544    3.1810 H   0  0  0  0  0  0  0  0  0  0  0  0
  5  6  2  0  0  0  0
  5  7  1  0  0  0  0
  2  3  1  0  0  0  0
  2  4  1  0  0  0  0
  2  5  1  0  0  0  0
  1  2  1  0  0  0  0
 22 23  2  0  0  0  0
 22 24  1  0  0  0  0
 20 21  1  0  0  0  0
 19 20  1  0  0  0  0
 17 18  1  0  0  0  0
 17 19  2  0  0  0  0
 15 16  1  0  0  0  0
 15 17  1  0  0  0  0
 14 15  1  0  0  0  0
 14 20  2  0  0  0  0
 11 12  1  0  0  0  0
 11 13  1  0  0  0  0
 11 14  1  0  0  0  0
  9 10  1  0  0  0  0
  9 11  1  0  0  0  0
  9 22  1  0  0  0  0
  7  8  1  0  0  0  0
  7  9  1  0  0  0  0
 26 27  1  0  0  0  0
 26 28  1  0  0  0  0
 26 29  1  0  0  0  0
 24 25  1  0  0  0  0
 24 26  1  0  0  0  0
M  END
$$$$
default_name
  -OEChem-01062215323D

 29 29  0     1  0  0  0  0  0999 V2000
   -3.6042   -3.5728    1.4576 H   0  0  0  0  0  0  0  0  0  0  0  0
   -3.5202   -2.6488    0.8866 C   0  0  0  0  0  0  0  0  0  0  0  0
   -4.2052   -1.9048    1.2896 H   0  0  0  0  0  0  0  0  0  0  0  0
   -3.7552   -2.8428   -0.1584 H   0  0  0  0  0  0  0  0  0  0  0  0
   -2.1052   -2.1358    0.9946 C   0  0  0  0  0  0  0  0  0  0  0  0
   -1.2852   -2.7288    1.6826 O   0  0  0  0  0  0  0  0  0  0  0  0
   -1.8202   -1.0288    0.3146 N   0  0  0  0  0  0  0  0  0  0  0  0
   -2.5542   -0.5788   -0.2104 H   0  0  0  0  0  0  0  0  0  0  0  0
   -0.5102   -0.3728    0.3086 C   0  0  1  0  0  0  0  0  0  0  0  0
    0.0958   -0.8097   -0.4864 H   0  0  0  0  0  0  0  0  0  0  0  0
   -0.6966    1.1244    0.0002 C   0  0  0  0  0  0  0  0  0  0  0  0
   -1.3699    1.5605    0.7403 H   0  0  0  0  0  0  0  0  0  0  0  0
    0.2680    1.6280    0.0861 H   0  0  0  0  0  0  0  0  0  0  0  0
   -1.2554    1.3927   -1.3731 C   0  0  0  0  0  0  0  0  0  0  0  0
   -0.5703    1.2975   -2.5655 N   0  0  0  0  0  0  0  0  0  0  0  0
    0.4155    1.1103   -2.6719 H   0  0  0  0  0  0  0  0  0  0  0  0
   -1.4447    1.5035   -3.5647 C   0  0  0  0  0  0  0  0  0  0  0  0
   -1.2019    1.4971   -4.6203 H   0  0  0  0  0  0  0  0  0  0  0  0
   -2.6730    1.7165   -3.0704 N   0  0  0  0  0  0  0  0  0  0  0  0
   -2.5647    1.6528   -1.6788 C   0  0  0  0  0  0  0  0  0  0  0  0
   -3.3758    1.7538   -0.9694 H   0  0  0  0  0  0  0  0  0  0  0  0
    0.2232   -0.6043    1.6406 C   0  0  0  0  0  0  0  0  0  0  0  0
   -0.1106    0.0198    2.6475 O   0  0  0  0  0  0  0  0  0  0  0  0
    1.2310   -1.4857    1.6436 N   0  0  0  0  0  0  0  0  0  0  0  0
    1.4793   -1.9167    0.7652 H   0  0  0  0  0  0  0  0  0  0  0  0
    2.0255   -1.8268    2.8207 C   0  0  0  0  0  0  0  0  0  0  0  0
    1.3765   -2.2347    3.5989 H   0  0  0  0  0  0  0  0  0  0  0  0
    2.7823   -2.5673    2.5603 H   0  0  0  0  0  0  0  0  0  0  0  0
    2.5152   -0.9327    3.2095 H   0  0  0  0  0  0  0  0  0  0  0  0
  5  6  2  0  0  0  0
  5  7  1  0  0  0  0
  2  3  1  0  0  0  0
  2  4  1  0  0  0  0
  2  5  1  0  0  0  0
  1  2  1  0  0  0  0
 22 23  2  0  0  0  0
 22 24  1  0  0  0  0
 20 21  1  0  0  0  0
 19 20  1  0  0  0  0
 17 18  1  0  0  0  0
 17 19  2  0  0  0  0
 15 16  1  0  0  0  0
 15 17  1  0  0  0  0
 14 15  1  0  0  0  0
 14 20  2  0  0  0  0
 11 12  1  0  0  0  0
 11 13  1  0  0  0  0
 11 14  1  0  0  0  0
  9 10  1  0  0  0  0
  9 11  1  0  0  0  0
  9 22  1  0  0  0  0
  7  8  1  0  0  0  0
  7  9  1  0  0  0  0
 26 27  1  0  0  0  0
 26 28  1  0  0  0  0
 26 29  1  0  0  0  0
 24 25  1  0  0  0  0
 24 26  1  0  0  0  0
M  END
$$$$
default_name
  -OEChem-01062215323D

 29 29  0     1  0  0  0  0  0999 V2000
   -3.6042   -3.5728    1.4576 H   0  0  0  0  0  0  0  0  0  0  0  0
   -3.5202   -2.6488    0.8866 C   0  0  0  0  0  0  0  0  0  0  0  0
   -4.2052   -1.9048    1.2896 H   0  0  0  0  0  0  0  0  0  0  0  0
   -3.7552   -2.8428   -0.1584 H   0  0  0  0  0  0  0  0  0  0  0  0
   -2.1052   -2.1358    0.9946 C   0  0  0  0  0  0  0  0  0  0  0  0
   -1.2852   -2.7288    1.6826 O   0  0  0  0  0  0  0  0  0  0  0  0
   -1.8202   -1.0288    0.3146 N   0  0  0  0  0  0  0  0  0  0  0  0
   -2.5542   -0.5788   -0.2104 H   0  0  0  0  0  0  0  0  0  0  0  0
   -0.5102   -0.3728    0.3086 C   0  0  1  0  0  0  0  0  0  0  0  0
    0.0958   -0.8097   -0.4864 H   0  0  0  0  0  0  0  0  0  0  0  0
   -0.6966    1.1244    0.0002 C   0  0  0  0  0  0  0  0  0  0  0  0
   -1.3699    1.5605    0.7403 H   0  0  0  0  0  0  0  0  0  0  0  0
    0.2680    1.6280    0.0861 H   0  0  0  0  0  0  0  0  0  0  0  0
   -1.2554    1.3927   -1.3731 C   0  0  0  0  0  0  0  0  0  0  0  0
   -0.5703    1.2975   -2.5655 N   0  0  0  0  0  0  0  0  0  0  0  0
    0.4155    1.1103   -2.6719 H   0  0  0  0  0  0  0  0  0  0  0  0
   -1.4447    1.5035   -3.5647 C   0  0  0  0  0  0  0  0  0  0  0  0
   -1.2019    1.4971   -4.6203 H   0  0  0  0  0  0  0  0  0  0  0  0
   -2.6730    1.7165   -3.0704 N   0  0  0  0  0  0  0  0  0  0  0  0
   -2.5647    1.6528   -1.6788 C   0  0  0  0  0  0  0  0  0  0  0  0
   -3.3758    1.7538   -0.9694 H   0  0  0  0  0  0  0  0  0  0  0  0
    0.2232   -0.6043    1.6406 C   0  0  0  0  0  0  0  0  0  0  0  0
   -0.2682   -0.2037    2.6955 O   0  0  0  0  0  0  0  0  0  0  0  0
    1.4041   -1.2333    1.5921 N   0  0  0  0  0  0  0  0  0  0  0  0
    1.7654   -1.4826    0.6831 H   0  0  0  0  0  0  0  0  0  0  0  0
    2.2257   -1.5374    2.7607 C   0  0  0  0  0  0  0  0  0  0  0  0
    1.6668   -2.1751    3.4494 H   0  0  0  0  0  0  0  0  0  0  0  0
    3.1369   -2.0522    2.4546 H   0  0  0  0  0  0  0  0  0  0  0  0
    2.4902   -0.6142    3.2786 H   0  0  0  0  0  0  0  0  0  0  0  0
  5  6  2  0  0  0  0
  5  7  1  0  0  0  0
  2  3  1  0  0  0  0
  2  4  1  0  0  0  0
  2  5  1  0  0  0  0
  1  2  1  0  0  0  0
 22 23  2  0  0  0  0
 22 24  1  0  0  0  0
 20 21  1  0  0  0  0
 19 20  1  0  0  0  0
 17 18  1  0  0  0  0
 17 19  2  0  0  0  0
 15 16  1  0  0  0  0
 15 17  1  0  0  0  0
 14 15  1  0  0  0  0
 14 20  2  0  0  0  0
 11 12  1  0  0  0  0
 11 13  1  0  0  0  0
 11 14  1  0  0  0  0
  9 10  1  0  0  0  0
  9 11  1  0  0  0  0
  9 22  1  0  0  0  0
  7  8  1  0  0  0  0
  7  9  1  0  0  0  0
 26 27  1  0  0  0  0
 26 28  1  0  0  0  0
 26 29  1  0  0  0  0
 24 25  1  0  0  0  0
 24 26  1  0  0  0  0
M  END
$$$$
default_name
  -OEChem-01062215323D

 29 29  0     1  0  0  0  0  0999 V2000
   -3.6042   -3.5728    1.4576 H   0  0  0  0  0  0  0  0  0  0  0  0
   -3.5202   -2.6488    0.8866 C   0  0  0  0  0  0  0  0  0  0  0  0
   -4.2052   -1.9048    1.2896 H   0  0  0  0  0  0  0  0  0  0  0  0
   -3.7552   -2.8428   -0.1584 H   0  0  0  0  0  0  0  0  0  0  0  0
   -2.1052   -2.1358    0.9946 C   0  0  0  0  0  0  0  0  0  0  0  0
   -1.2852   -2.7288    1.6826 O   0  0  0  0  0  0  0  0  0  0  0  0
   -1.8202   -1.0288    0.3146 N   0  0  0  0  0  0  0  0  0  0  0  0
   -2.5542   -0.5788   -0.2104 H   0  0  0  0  0  0  0  0  0  0  0  0
   -0.5102   -0.3728    0.3086 C   0  0  1  0  0  0  0  0  0  0  0  0
    0.0958   -0.8097   -0.4864 H   0  0  0  0  0  0  0  0  0  0  0  0
   -0.6966    1.1244    0.0002 C   0  0  0  0  0  0  0  0  0  0  0  0
   -1.3699    1.5605    0.7403 H   0  0  0  0  0  0  0  0  0  0  0  0
    0.2680    1.6280    0.0861 H   0  0  0  0  0  0  0  0  0  0  0  0
   -1.2554    1.3927   -1.3731 C   0  0  0  0  0  0  0  0  0  0  0  0
   -0.5703    1.2975   -2.5655 N   0  0  0  0  0  0  0  0  0  0  0  0
    0.4155    1.1103   -2.6719 H   0  0  0  0  0  0  0  0  0  0  0  0
   -1.4447    1.5035   -3.5647 C   0  0  0  0  0  0  0  0  0  0  0  0
   -1.2019    1.4971   -4.6203 H   0  0  0  0  0  0  0  0  0  0  0  0
   -2.6730    1.7165   -3.0704 N   0  0  0  0  0  0  0  0  0  0  0  0
   -2.5647    1.6528   -1.6788 C   0  0  0  0  0  0  0  0  0  0  0  0
   -3.3758    1.7538   -0.9694 H   0  0  0  0  0  0  0  0  0  0  0  0
    0.2232   -0.6043    1.6406 C   0  0  0  0  0  0  0  0  0  0  0  0
   -0.3723   -0.4609    2.7081 O   0  0  0  0  0  0  0  0  0  0  0  0
    1.5167   -0.9444    1.5803 N   0  0  0  0  0  0  0  0  0  0  0  0
    1.9476   -0.9890    0.6686 H   0  0  0  0  0  0  0  0  0  0  0  0
    2.3565   -1.2056    2.7464 C   0  0  0  0  0  0  0  0  0  0  0  0
    1.9397   -2.0340    3.3237 H   0  0  0  0  0  0  0  0  0  0  0  0
    3.3680   -1.4621    2.4300 H   0  0  0  0  0  0  0  0  0  0  0  0
    2.3920   -0.3207    3.3837 H   0  0  0  0  0  0  0  0  0  0  0  0
  5  6  2  0  0  0  0
  5  7  1  0  0  0  0
  2  3  1  0  0  0  0
  2  4  1  0  0  0  0
  2  5  1  0  0  0  0
  1  2  1  0  0  0  0
 22 23  2  0  0  0  0
 22 24  1  0  0  0  0
 20 21  1  0  0  0  0
 19 20  1  0  0  0  0
 17 18  1  0  0  0  0
 17 19  2  0  0  0  0
 15 16  1  0  0  0  0
 15 17  1  0  0  0  0
 14 15  1  0  0  0  0
 14 20  2  0  0  0  0
 11 12  1  0  0  0  0
 11 13  1  0  0  0  0
 11 14  1  0  0  0  0
  9 10  1  0  0  0  0
  9 11  1  0  0  0  0
  9 22  1  0  0  0  0
  7  8  1  0  0  0  0
  7  9  1  0  0  0  0
 26 27  1  0  0  0  0
 26 28  1  0  0  0  0
 26 29  1  0  0  0  0
 24 25  1  0  0  0  0
 24 26  1  0  0  0  0
M  END
$$$$
default_name
  -OEChem-01062215323D

 29 29  0     1  0  0  0  0  0999 V2000
   -3.6042   -3.5728    1.4576 H   0  0  0  0  0  0  0  0  0  0  0  0
   -3.5202   -2.6488    0.8866 C   0  0  0  0  0  0  0  0  0  0  0  0
   -4.2052   -1.9048    1.2896 H   0  0  0  0  0  0  0  0  0  0  0  0
   -3.7552   -2.8428   -0.1584 H   0  0  0  0  0  0  0  0  0  0  0  0
   -2.1052   -2.1358    0.9946 C   0  0  0  0  0  0  0  0  0  0  0  0
   -1.2852   -2.7288    1.6826 O   0  0  0  0  0  0  0  0  0  0  0  0
   -1.8202   -1.0288    0.3146 N   0  0  0  0  0  0  0  0  0  0  0  0
   -2.5542   -0.5788   -0.2104 H   0  0  0  0  0  0  0  0  0  0  0  0
   -0.5102   -0.3728    0.3086 C   0  0  1  0  0  0  0  0  0  0  0  0
    0.0958   -0.8097   -0.4864 H   0  0  0  0  0  0  0  0  0  0  0  0
   -0.6966    1.1244    0.0002 C   0  0  0  0  0  0  0  0  0  0  0  0
   -1.3699    1.5605    0.7403 H   0  0  0  0  0  0  0  0  0  0  0  0
    0.2680    1.6280    0.0861 H   0  0  0  0  0  0  0  0  0  0  0  0
   -1.2554    1.3927   -1.3731 C   0  0  0  0  0  0  0  0  0  0  0  0
   -0.5703    1.2975   -2.5655 N   0  0  0  0  0  0  0  0  0  0  0  0
    0.4155    1.1103   -2.6719 H   0  0  0  0  0  0  0  0  0  0  0  0
   -1.4447    1.5035   -3.5647 C   0  0  0  0  0  0  0  0  0  0  0  0
   -1.2019    1.4971   -4.6203 H   0  0  0  0  0  0  0  0  0  0  0  0
   -2.6730    1.7165   -3.0704 N   0  0  0  0  0  0  0  0  0  0  0  0
   -2.5647    1.6528   -1.6788 C   0  0  0  0  0  0  0  0  0  0  0  0
   -3.3758    1.7538   -0.9694 H   0  0  0  0  0  0  0  0  0  0  0  0
    0.2232   -0.6043    1.6406 C   0  0  0  0  0  0  0  0  0  0  0  0
   -0.4157   -0.7341    2.6845 O   0  0  0  0  0  0  0  0  0  0  0  0
    1.5612   -0.6386    1.6090 N   0  0  0  0  0  0  0  0  0  0  0  0
    2.0136   -0.4696    0.7225 H   0  0  0  0  0  0  0  0  0  0  0  0
    2.4091   -0.8540    2.7786 C   0  0  0  0  0  0  0  0  0  0  0  0
    2.1765   -1.8210    3.2303 H   0  0  0  0  0  0  0  0  0  0  0  0
    3.4599   -0.8373    2.4880 H   0  0  0  0  0  0  0  0  0  0  0  0
    2.2273   -0.0722    3.5176 H   0  0  0  0  0  0  0  0  0  0  0  0
  5  6  2  0  0  0  0
  5  7  1  0  0  0  0
  2  3  1  0  0  0  0
  2  4  1  0  0  0  0
  2  5  1  0  0  0  0
  1  2  1  0  0  0  0
 22 23  2  0  0  0  0
 22 24  1  0  0  0  0
 20 21  1  0  0  0  0
 19 20  1  0  0  0  0
 17 18  1  0  0  0  0
 17 19  2  0  0  0  0
 15 16  1  0  0  0  0
 15 17  1  0  0  0  0
 14 15  1  0  0  0  0
 14 20  2  0  0  0  0
 11 12  1  0  0  0  0
 11 13  1  0  0  0  0
 11 14  1  0  0  0  0
  9 10  1  0  0  0  0
  9 11  1  0  0  0  0
  9 22  1  0  0  0  0
  7  8  1  0  0  0  0
  7  9  1  0  0  0  0
 26 27  1  0  0  0  0
 26 28  1  0  0  0  0
 26 29  1  0  0  0  0
 24 25  1  0  0  0  0
 24 26  1  0  0  0  0
M  END
$$$$
default_name
  -OEChem-01062215323D

 29 29  0     1  0  0  0  0  0999 V2000
   -3.6042   -3.5728    1.4576 H   0  0  0  0  0  0  0  0  0  0  0  0
   -3.5202   -2.6488    0.8866 C   0  0  0  0  0  0  0  0  0  0  0  0
   -4.2052   -1.9048    1.2896 H   0  0  0  0  0  0  0  0  0  0  0  0
   -3.7552   -2.8428   -0.1584 H   0  0  0  0  0  0  0  0  0  0  0  0
   -2.1052   -2.1358    0.9946 C   0  0  0  0  0  0  0  0  0  0  0  0
   -1.2852   -2.7288    1.6826 O   0  0  0  0  0  0  0  0  0  0  0  0
   -1.8202   -1.0288    0.3146 N   0  0  0  0  0  0  0  0  0  0  0  0
   -2.5542   -0.5788   -0.2104 H   0  0  0  0  0  0  0  0  0  0  0  0
   -0.5102   -0.3728    0.3086 C   0  0  1  0  0  0  0  0  0  0  0  0
    0.0958   -0.8097   -0.4864 H   0  0  0  0  0  0  0  0  0  0  0  0
   -0.6966    1.1244    0.0002 C   0  0  0  0  0  0  0  0  0  0  0  0
   -1.3699    1.5605    0.7403 H   0  0  0  0  0  0  0  0  0  0  0  0
    0.2680    1.6280    0.0861 H   0  0  0  0  0  0  0  0  0  0  0  0
   -1.2554    1.3927   -1.3731 C   0  0  0  0  0  0  0  0  0  0  0  0
   -0.5703    1.2975   -2.5655 N   0  0  0  0  0  0  0  0  0  0  0  0
    0.4155    1.1103   -2.6719 H   0  0  0  0  0  0  0  0  0  0  0  0
   -1.4447    1.5035   -3.5647 C   0  0  0  0  0  0  0  0  0  0  0  0
   -1.2019    1.4971   -4.6203 H   0  0  0  0  0  0  0  0  0  0  0  0
   -2.6730    1.7165   -3.0704 N   0  0  0  0  0  0  0  0  0  0  0  0
   -2.5647    1.6528   -1.6788 C   0  0  0  0  0  0  0  0  0  0  0  0
   -3.3758    1.7538   -0.9694 H   0  0  0  0  0  0  0  0  0  0  0  0
    0.2232   -0.6043    1.6406 C   0  0  0  0  0  0  0  0  0  0  0  0
   -0.3955   -1.0049    2.6263 O   0  0  0  0  0  0  0  0  0  0  0  0
    1.5345   -0.3367    1.6761 N   0  0  0  0  0  0  0  0  0  0  0  0
    1.9587    0.0402    0.8413 H   0  0  0  0  0  0  0  0  0  0  0  0
    2.3798   -0.5066    2.8551 C   0  0  0  0  0  0  0  0  0  0  0  0
    2.3612   -1.5507    3.1756 H   0  0  0  0  0  0  0  0  0  0  0  0
    3.4064   -0.2203    2.6247 H   0  0  0  0  0  0  0  0  0  0  0  0
    2.0072    0.1144    3.6712 H   0  0  0  0  0  0  0  0  0  0  0  0
  5  6  2  0  0  0  0
  5  7  1  0  0  0  0
  2  3  1  0  0  0  0
  2  4  1  0  0  0  0
  2  5  1  0  0  0  0
  1  2  1  0  0  0  0
 22 23  2  0  0  0  0
 22 24  1  0  0  0  0
 20 21  1  0  0  0  0
 19 20  1  0  0  0  0
 17 18  1  0  0  0  0
 17 19  2  0  0  0  0
 15 16  1  0  0  0  0
 15 17  1  0  0  0  0
 14 15  1  0  0  0  0
 14 20  2  0  0  0  0
 11 12  1  0  0  0  0
 11 13  1  0  0  0  0
 11 14  1  0  0  0  0
  9 10  1  0  0  0  0
  9 11  1  0  0  0  0
  9 22  1  0  0  0  0
  7  8  1  0  0  0  0
  7  9  1  0  0  0  0
 26 27  1  0  0  0  0
 26 28  1  0  0  0  0
 26 29  1  0  0  0  0
 24 25  1  0  0  0  0
 24 26  1  0  0  0  0
M  END
$$$$
default_name
  -OEChem-01062215323D

 29 29  0     1  0  0  0  0  0999 V2000
   -3.6042   -3.5728    1.4576 H   0  0  0  0  0  0  0  0  0  0  0  0
   -3.5202   -2.6488    0.8866 C   0  0  0  0  0  0  0  0  0  0  0  0
   -4.2052   -1.9048    1.2896 H   0  0  0  0  0  0  0  0  0  0  0  0
   -3.7552   -2.8428   -0.1584 H   0  0  0  0  0  0  0  0  0  0  0  0
   -2.1052   -2.1358    0.9946 C   0  0  0  0  0  0  0  0  0  0  0  0
   -1.2852   -2.7288    1.6826 O   0  0  0  0  0  0  0  0  0  0  0  0
   -1.8202   -1.0288    0.3146 N   0  0  0  0  0  0  0  0  0  0  0  0
   -2.5542   -0.5788   -0.2104 H   0  0  0  0  0  0  0  0  0  0  0  0
   -0.5102   -0.3728    0.3086 C   0  0  1  0  0  0  0  0  0  0  0  0
   -0.0067   -0.6062   -0.6307 H   0  0  0  0  0  0  0  0  0  0  0  0
   -0.7090    1.1526    0.3787 C   0  0  0  0  0  0  0  0  0  0  0  0
   -1.2856    1.3971    1.2726 H   0  0  0  0  0  0  0  0  0  0  0  0
    0.2663    1.6348    0.4663 H   0  0  0  0  0  0  0  0  0  0  0  0
   -1.4190    1.7246   -0.8209 C   0  0  0  0  0  0  0  0  0  0  0  0
   -0.8781    1.9166   -2.0741 N   0  0  0  0  0  0  0  0  0  0  0  0
    0.0859    1.7715   -2.3347 H   0  0  0  0  0  0  0  0  0  0  0  0
   -1.8591    2.3372   -2.8902 C   0  0  0  0  0  0  0  0  0  0  0  0
   -1.7403    2.5784   -3.9395 H   0  0  0  0  0  0  0  0  0  0  0  0
   -3.0187    2.4146   -2.2210 N   0  0  0  0  0  0  0  0  0  0  0  0
   -2.7509    2.0318   -0.9041 C   0  0  0  0  0  0  0  0  0  0  0  0
   -3.4729    1.9557   -0.1014 H   0  0  0  0  0  0  0  0  0  0  0  0
    0.3690   -0.8971    1.4566 C   0  0  0  0  0  0  0  0  0  0  0  0
   -0.0692   -1.7442    2.2345 O   0  0  0  0  0  0  0  0  0  0  0  0
    1.5998   -0.3834    1.5736 N   0  0  0  0  0  0  0  0  0  0  0  0
    1.8661    0.3467    0.9295 H   0  0  0  0  0  0  0  0  0  0  0  0
    2.5625   -0.7733    2.6004 C   0  0  0  0  0  0  0  0  0  0  0  0
    2.7784   -1.8409    2.5180 H   0  0  0  0  0  0  0  0  0  0  0  0
    3.4882   -0.2098    2.4796 H   0  0  0  0  0  0  0  0  0  0  0  0
    2.1483   -0.5776    3.5907 H   0  0  0  0  0  0  0  0  0  0  0  0
  5  6  2  0  0  0  0
  5  7  1  0  0  0  0
  2  3  1  0  0  0  0
  2  4  1  0  0  0  0
  2  5  1  0  0  0  0
  1  2  1  0  0  0  0
 22 23  2  0  0  0  0
 22 24  1  0  0  0  0
 20 21  1  0  0  0  0
 19 20  1  0  0  0  0
 17 18  1  0  0  0  0
 17 19  2  0  0  0  0
 15 16  1  0  0  0  0
 15 17  1  0  0  0  0
 14 15  1  0  0  0  0
 14 20  2  0  0  0  0
 11 12  1  0  0  0  0
 11 13  1  0  0  0  0
 11 14  1  0  0  0  0
  9 10  1  0  0  0  0
  9 11  1  0  0  0  0
  9 22  1  0  0  0  0
  7  8  1  0  0  0  0
  7  9  1  0  0  0  0
 26 27  1  0  0  0  0
 26 28  1  0  0  0  0
 26 29  1  0  0  0  0
 24 25  1  0  0  0  0
 24 26  1  0  0  0  0
M  END
$$$$
default_name
  -OEChem-01062215323D

 29 29  0     1  0  0  0  0  0999 V2000
   -3.6042   -3.5728    1.4576 H   0  0  0  0  0  0  0  0  0  0  0  0
   -3.5202   -2.6488    0.8866 C   0  0  0  0  0  0  0  0  0  0  0  0
   -4.2052   -1.9048    1.2896 H   0  0  0  0  0  0  0  0  0  0  0  0
   -3.7552   -2.8428   -0.1584 H   0  0  0  0  0  0  0  0  0  0  0  0
   -2.1052   -2.1358    0.9946 C   0  0  0  0  0  0  0  0  0  0  0  0
   -1.2852   -2.7288    1.6826 O   0  0  0  0  0  0  0  0  0  0  0  0
   -1.8202   -1.0288    0.3146 N   0  0  0  0  0  0  0  0  0  0  0  0
   -2.5542   -0.5788   -0.2104 H   0  0  0  0  0  0  0  0  0  0  0  0
   -0.5102   -0.3728    0.3086 C   0  0  1  0  0  0  0  0  0  0  0  0
   -0.0067   -0.6062   -0.6307 H   0  0  0  0  0  0  0  0  0  0  0  0
   -0.7090    1.1526    0.3787 C   0  0  0  0  0  0  0  0  0  0  0  0
   -1.2856    1.3971    1.2726 H   0  0  0  0  0  0  0  0  0  0  0  0
    0.2663    1.6348    0.4663 H   0  0  0  0  0  0  0  0  0  0  0  0
   -1.4190    1.7246   -0.8209 C   0  0  0  0  0  0  0  0  0  0  0  0
   -0.8781    1.9166   -2.0741 N   0  0  0  0  0  0  0  0  0  0  0  0
    0.0859    1.7715   -2.3347 H   0  0  0  0  0  0  0  0  0  0  0  0
   -1.8591    2.3372   -2.8902 C   0  0  0  0  0  0  0  0  0  0  0  0
   -1.7403    2.5784   -3.9395 H   0  0  0  0  0  0  0  0  0  0  0  0
   -3.0187    2.4146   -2.2210 N   0  0  0  0  0  0  0  0  0  0  0  0
   -2.7509    2.0318   -0.9041 C   0  0  0  0  0  0  0  0  0  0  0  0
   -3.4729    1.9557   -0.1014 H   0  0  0  0  0  0  0  0  0  0  0  0
    0.3690   -0.8971    1.4566 C   0  0  0  0  0  0  0  0  0  0  0  0
    0.0527   -1.9223    2.0598 O   0  0  0  0  0  0  0  0  0  0  0  0
    1.4603   -0.1876    1.7698 N   0  0  0  0  0  0  0  0  0  0  0  0
    1.6221    0.6711    1.2645 H   0  0  0  0  0  0  0  0  0  0  0  0
    2.4032   -0.5470    2.8258 C   0  0  0  0  0  0  0  0  0  0  0  0
    2.8335   -1.5293    2.6181 H   0  0  0  0  0  0  0  0  0  0  0  0
    3.2039    0.1911    2.8805 H   0  0  0  0  0  0  0  0  0  0  0  0
    1.8864   -0.5895    3.7858 H   0  0  0  0  0  0  0  0  0  0  0  0
  5  6  2  0  0  0  0
  5  7  1  0  0  0  0
  2  3  1  0  0  0  0
  2  4  1  0  0  0  0
  2  5  1  0  0  0  0
  1  2  1  0  0  0  0
 22 23  2  0  0  0  0
 22 24  1  0  0  0  0
 20 21  1  0  0  0  0
 19 20  1  0  0  0  0
 17 18  1  0  0  0  0
 17 19  2  0  0  0  0
 15 16  1  0  0  0  0
 15 17  1  0  0  0  0
 14 15  1  0  0  0  0
 14 20  2  0  0  0  0
 11 12  1  0  0  0  0
 11 13  1  0  0  0  0
 11 14  1  0  0  0  0
  9 10  1  0  0  0  0
  9 11  1  0  0  0  0
  9 22  1  0  0  0  0
  7  8  1  0  0  0  0
  7  9  1  0  0  0  0
 26 27  1  0  0  0  0
 26 28  1  0  0  0  0
 26 29  1  0  0  0  0
 24 25  1  0  0  0  0
 24 26  1  0  0  0  0
M  END
$$$$
default_name
  -OEChem-01062215323D

 29 29  0     1  0  0  0  0  0999 V2000
   -3.6042   -3.5728    1.4576 H   0  0  0  0  0  0  0  0  0  0  0  0
   -3.5202   -2.6488    0.8866 C   0  0  0  0  0  0  0  0  0  0  0  0
   -4.2052   -1.9048    1.2896 H   0  0  0  0  0  0  0  0  0  0  0  0
   -3.7552   -2.8428   -0.1584 H   0  0  0  0  0  0  0  0  0  0  0  0
   -2.1052   -2.1358    0.9946 C   0  0  0  0  0  0  0  0  0  0  0  0
   -1.2852   -2.7288    1.6826 O   0  0  0  0  0  0  0  0  0  0  0  0
   -1.8202   -1.0288    0.3146 N   0  0  0  0  0  0  0  0  0  0  0  0
   -2.5542   -0.5788   -0.2104 H   0  0  0  0  0  0  0  0  0  0  0  0
   -0.5102   -0.3728    0.3086 C   0  0  1  0  0  0  0  0  0  0  0  0
   -0.0067   -0.6062   -0.6307 H   0  0  0  0  0  0  0  0  0  0  0  0
   -0.7090    1.1526    0.3787 C   0  0  0  0  0  0  0  0  0  0  0  0
   -1.2856    1.3971    1.2726 H   0  0  0  0  0  0  0  0  0  0  0  0
    0.2663    1.6348    0.4663 H   0  0  0  0  0  0  0  0  0  0  0  0
   -1.4190    1.7246   -0.8209 C   0  0  0  0  0  0  0  0  0  0  0  0
   -0.8781    1.9166   -2.0741 N   0  0  0  0  0  0  0  0  0  0  0  0
    0.0859    1.7715   -2.3347 H   0  0  0  0  0  0  0  0  0  0  0  0
   -1.8591    2.3372   -2.8902 C   0  0  0  0  0  0  0  0  0  0  0  0
   -1.7403    2.5784   -3.9395 H   0  0  0  0  0  0  0  0  0  0  0  0
   -3.0187    2.4146   -2.2210 N   0  0  0  0  0  0  0  0  0  0  0  0
   -2.7509    2.0318   -0.9041 C   0  0  0  0  0  0  0  0  0  0  0  0
   -3.4729    1.9557   -0.1014 H   0  0  0  0  0  0  0  0  0  0  0  0
    0.3690   -0.8971    1.4566 C   0  0  0  0  0  0  0  0  0  0  0  0
    0.2204   -2.0448    1.8754 O   0  0  0  0  0  0  0  0  0  0  0  0
    1.2704   -0.0545    1.9761 N   0  0  0  0  0  0  0  0  0  0  0  0
    1.2942    0.8877    1.6146 H   0  0  0  0  0  0  0  0  0  0  0  0
    2.1857   -0.3925    3.0629 C   0  0  0  0  0  0  0  0  0  0  0  0
    2.8177   -1.2324    2.7659 H   0  0  0  0  0  0  0  0  0  0  0  0
    2.8165    0.4641    3.3019 H   0  0  0  0  0  0  0  0  0  0  0  0
    1.6185   -0.6805    3.9494 H   0  0  0  0  0  0  0  0  0  0  0  0
  5  6  2  0  0  0  0
  5  7  1  0  0  0  0
  2  3  1  0  0  0  0
  2  4  1  0  0  0  0
  2  5  1  0  0  0  0
  1  2  1  0  0  0  0
 22 23  2  0  0  0  0
 22 24  1  0  0  0  0
 20 21  1  0  0  0  0
 19 20  1  0  0  0  0
 17 18  1  0  0  0  0
 17 19  2  0  0  0  0
 15 16  1  0  0  0  0
 15 17  1  0  0  0  0
 14 15  1  0  0  0  0
 14 20  2  0  0  0  0
 11 12  1  0  0  0  0
 11 13  1  0  0  0  0
 11 14  1  0  0  0  0
  9 10  1  0  0  0  0
  9 11  1  0  0  0  0
  9 22  1  0  0  0  0
  7  8  1  0  0  0  0
  7  9  1  0  0  0  0
 26 27  1  0  0  0  0
 26 28  1  0  0  0  0
 26 29  1  0  0  0  0
 24 25  1  0  0  0  0
 24 26  1  0  0  0  0
M  END
$$$$
default_name
  -OEChem-01062215323D

 29 29  0     1  0  0  0  0  0999 V2000
   -3.6042   -3.5728    1.4576 H   0  0  0  0  0  0  0  0  0  0  0  0
   -3.5202   -2.6488    0.8866 C   0  0  0  0  0  0  0  0  0  0  0  0
   -4.2052   -1.9048    1.2896 H   0  0  0  0  0  0  0  0  0  0  0  0
   -3.7552   -2.8428   -0.1584 H   0  0  0  0  0  0  0  0  0  0  0  0
   -2.1052   -2.1358    0.9946 C   0  0  0  0  0  0  0  0  0  0  0  0
   -1.2852   -2.7288    1.6826 O   0  0  0  0  0  0  0  0  0  0  0  0
   -1.8202   -1.0288    0.3146 N   0  0  0  0  0  0  0  0  0  0  0  0
   -2.5542   -0.5788   -0.2104 H   0  0  0  0  0  0  0  0  0  0  0  0
   -0.5102   -0.3728    0.3086 C   0  0  1  0  0  0  0  0  0  0  0  0
   -0.0067   -0.6062   -0.6307 H   0  0  0  0  0  0  0  0  0  0  0  0
   -0.7090    1.1526    0.3787 C   0  0  0  0  0  0  0  0  0  0  0  0
   -1.2856    1.3971    1.2726 H   0  0  0  0  0  0  0  0  0  0  0  0
    0.2663    1.6348    0.4663 H   0  0  0  0  0  0  0  0  0  0  0  0
   -1.4190    1.7246   -0.8209 C   0  0  0  0  0  0  0  0  0  0  0  0
   -0.8781    1.9166   -2.0741 N   0  0  0  0  0  0  0  0  0  0  0  0
    0.0859    1.7715   -2.3347 H   0  0  0  0  0  0  0  0  0  0  0  0
   -1.8591    2.3372   -2.8902 C   0  0  0  0  0  0  0  0  0  0  0  0
   -1.7403    2.5784   -3.9395 H   0  0  0  0  0  0  0  0  0  0  0  0
   -3.0187    2.4146   -2.2210 N   0  0  0  0  0  0  0  0  0  0  0  0
   -2.7509    2.0318   -0.9041 C   0  0  0  0  0  0  0  0  0  0  0  0
   -3.4729    1.9557   -0.1014 H   0  0  0  0  0  0  0  0  0  0  0  0
    0.3690   -0.8971    1.4566 C   0  0  0  0  0  0  0  0  0  0  0  0
    0.4222   -2.1036    1.6940 O   0  0  0  0  0  0  0  0  0  0  0  0
    1.0431    0.0069    2.1782 N   0  0  0  0  0  0  0  0  0  0  0  0
    0.9047    0.9818    1.9559 H   0  0  0  0  0  0  0  0  0  0  0  0
    1.9248   -0.3204    3.2957 C   0  0  0  0  0  0  0  0  0  0  0  0
    2.7320   -0.9706    2.9510 H   0  0  0  0  0  0  0  0  0  0  0  0
    2.3524    0.5907    3.7152 H   0  0  0  0  0  0  0  0  0  0  0  0
    1.3628   -0.8444    4.0704 H   0  0  0  0  0  0  0  0  0  0  0  0
  5  6  2  0  0  0  0
  5  7  1  0  0  0  0
  2  3  1  0  0  0  0
  2  4  1  0  0  0  0
  2  5  1  0  0  0  0
  1  2  1  0  0  0  0
 22 23  2  0  0  0  0
 22 24  1  0  0  0  0
 20 21  1  0  0  0  0
 19 20  1  0  0  0  0
 17 18  1  0  0  0  0
 17 19  2  0  0  0  0
 15 16  1  0  0  0  0
 15 17  1  0  0  0  0
 14 15  1  0  0  0  0
 14 20  2  0  0  0  0
 11 12  1  0  0  0  0
 11 13  1  0  0  0  0
 11 14  1  0  0  0  0
  9 10  1  0  0  0  0
  9 11  1  0  0  0  0
  9 22  1  0  0  0  0
  7  8  1  0  0  0  0
  7  9  1  0  0  0  0
 26 27  1  0  0  0  0
 26 28  1  0  0  0  0
 26 29  1  0  0  0  0
 24 25  1  0  0  0  0
 24 26  1  0  0  0  0
M  END
$$$$
default_name
  -OEChem-01062215323D

 29 29  0     1  0  0  0  0  0999 V2000
   -3.6042   -3.5728    1.4576 H   0  0  0  0  0  0  0  0  0  0  0  0
   -3.5202   -2.6488    0.8866 C   0  0  0  0  0  0  0  0  0  0  0  0
   -4.2052   -1.9048    1.2896 H   0  0  0  0  0  0  0  0  0  0  0  0
   -3.7552   -2.8428   -0.1584 H   0  0  0  0  0  0  0  0  0  0  0  0
   -2.1052   -2.1358    0.9946 C   0  0  0  0  0  0  0  0  0  0  0  0
   -1.2852   -2.7288    1.6826 O   0  0  0  0  0  0  0  0  0  0  0  0
   -1.8202   -1.0288    0.3146 N   0  0  0  0  0  0  0  0  0  0  0  0
   -2.5542   -0.5788   -0.2104 H   0  0  0  0  0  0  0  0  0  0  0  0
   -0.5102   -0.3728    0.3086 C   0  0  1  0  0  0  0  0  0  0  0  0
   -0.0067   -0.6062   -0.6307 H   0  0  0  0  0  0  0  0  0  0  0  0
   -0.7090    1.1526    0.3787 C   0  0  0  0  0  0  0  0  0  0  0  0
   -1.2856    1.3971    1.2726 H   0  0  0  0  0  0  0  0  0  0  0  0
    0.2663    1.6348    0.4663 H   0  0  0  0  0  0  0  0  0  0  0  0
   -1.4190    1.7246   -0.8209 C   0  0  0  0  0  0  0  0  0  0  0  0
   -0.8781    1.9166   -2.0741 N   0  0  0  0  0  0  0  0  0  0  0  0
    0.0859    1.7715   -2.3347 H   0  0  0  0  0  0  0  0  0  0  0  0
   -1.8591    2.3372   -2.8902 C   0  0  0  0  0  0  0  0  0  0  0  0
   -1.7403    2.5784   -3.9395 H   0  0  0  0  0  0  0  0  0  0  0  0
   -3.0187    2.4146   -2.2210 N   0  0  0  0  0  0  0  0  0  0  0  0
   -2.7509    2.0318   -0.9041 C   0  0  0  0  0  0  0  0  0  0  0  0
   -3.4729    1.9557   -0.1014 H   0  0  0  0  0  0  0  0  0  0  0  0
    0.3690   -0.8971    1.4566 C   0  0  0  0  0  0  0  0  0  0  0  0
    0.6446   -2.0945    1.5278 O   0  0  0  0  0  0  0  0  0  0  0  0
    0.7938   -0.0076    2.3625 N   0  0  0  0  0  0  0  0  0  0  0  0
    0.4801    0.9469    2.2651 H   0  0  0  0  0  0  0  0  0  0  0  0
    1.6383   -0.3356    3.5081 C   0  0  0  0  0  0  0  0  0  0  0  0
    2.5824   -0.7617    3.1611 H   0  0  0  0  0  0  0  0  0  0  0  0
    1.8431    0.5621    4.0921 H   0  0  0  0  0  0  0  0  0  0  0  0
    1.1369   -1.0700    4.1404 H   0  0  0  0  0  0  0  0  0  0  0  0
  5  6  2  0  0  0  0
  5  7  1  0  0  0  0
  2  3  1  0  0  0  0
  2  4  1  0  0  0  0
  2  5  1  0  0  0  0
  1  2  1  0  0  0  0
 22 23  2  0  0  0  0
 22 24  1  0  0  0  0
 20 21  1  0  0  0  0
 19 20  1  0  0  0  0
 17 18  1  0  0  0  0
 17 19  2  0  0  0  0
 15 16  1  0  0  0  0
 15 17  1  0  0  0  0
 14 15  1  0  0  0  0
 14 20  2  0  0  0  0
 11 12  1  0  0  0  0
 11 13  1  0  0  0  0
 11 14  1  0  0  0  0
  9 10  1  0  0  0  0
  9 11  1  0  0  0  0
  9 22  1  0  0  0  0
  7  8  1  0  0  0  0
  7  9  1  0  0  0  0
 26 27  1  0  0  0  0
 26 28  1  0  0  0  0
 26 29  1  0  0  0  0
 24 25  1  0  0  0  0
 24 26  1  0  0  0  0
M  END
$$$$
default_name
  -OEChem-01062215323D

 29 29  0     1  0  0  0  0  0999 V2000
   -3.6042   -3.5728    1.4576 H   0  0  0  0  0  0  0  0  0  0  0  0
   -3.5202   -2.6488    0.8866 C   0  0  0  0  0  0  0  0  0  0  0  0
   -4.2052   -1.9048    1.2896 H   0  0  0  0  0  0  0  0  0  0  0  0
   -3.7552   -2.8428   -0.1584 H   0  0  0  0  0  0  0  0  0  0  0  0
   -2.1052   -2.1358    0.9946 C   0  0  0  0  0  0  0  0  0  0  0  0
   -1.2852   -2.7288    1.6826 O   0  0  0  0  0  0  0  0  0  0  0  0
   -1.8202   -1.0288    0.3146 N   0  0  0  0  0  0  0  0  0  0  0  0
   -2.5542   -0.5788   -0.2104 H   0  0  0  0  0  0  0  0  0  0  0  0
   -0.5102   -0.3728    0.3086 C   0  0  1  0  0  0  0  0  0  0  0  0
   -0.0067   -0.6062   -0.6307 H   0  0  0  0  0  0  0  0  0  0  0  0
   -0.7090    1.1526    0.3787 C   0  0  0  0  0  0  0  0  0  0  0  0
   -1.2856    1.3971    1.2726 H   0  0  0  0  0  0  0  0  0  0  0  0
    0.2663    1.6348    0.4663 H   0  0  0  0  0  0  0  0  0  0  0  0
   -1.4190    1.7246   -0.8209 C   0  0  0  0  0  0  0  0  0  0  0  0
   -0.8781    1.9166   -2.0741 N   0  0  0  0  0  0  0  0  0  0  0  0
    0.0859    1.7715   -2.3347 H   0  0  0  0  0  0  0  0  0  0  0  0
   -1.8591    2.3372   -2.8902 C   0  0  0  0  0  0  0  0  0  0  0  0
   -1.7403    2.5784   -3.9395 H   0  0  0  0  0  0  0  0  0  0  0  0
   -3.0187    2.4146   -2.2210 N   0  0  0  0  0  0  0  0  0  0  0  0
   -2.7509    2.0318   -0.9041 C   0  0  0  0  0  0  0  0  0  0  0  0
   -3.4729    1.9557   -0.1014 H   0  0  0  0  0  0  0  0  0  0  0  0
    0.3690   -0.8971    1.4566 C   0  0  0  0  0  0  0  0  0  0  0  0
    0.8723   -2.0182    1.3883 O   0  0  0  0  0  0  0  0  0  0  0  0
    0.5396   -0.0970    2.5164 N   0  0  0  0  0  0  0  0  0  0  0  0
    0.0496    0.7855    2.5211 H   0  0  0  0  0  0  0  0  0  0  0  0
    1.3458   -0.4370    3.6858 C   0  0  0  0  0  0  0  0  0  0  0  0
    2.3789   -0.6198    3.3817 H   0  0  0  0  0  0  0  0  0  0  0  0
    1.3235    0.3804    4.4071 H   0  0  0  0  0  0  0  0  0  0  0  0
    0.9560   -1.3418    4.1548 H   0  0  0  0  0  0  0  0  0  0  0  0
  5  6  2  0  0  0  0
  5  7  1  0  0  0  0
  2  3  1  0  0  0  0
  2  4  1  0  0  0  0
  2  5  1  0  0  0  0
  1  2  1  0  0  0  0
 22 23  2  0  0  0  0
 22 24  1  0  0  0  0
 20 21  1  0  0  0  0
 19 20  1  0  0  0  0
 17 18  1  0  0  0  0
 17 19  2  0  0  0  0
 15 16  1  0  0  0  0
 15 17  1  0  0  0  0
 14 15  1  0  0  0  0
 14 20  2  0  0  0  0
 11 12  1  0  0  0  0
 11 13  1  0  0  0  0
 11 14  1  0  0  0  0
  9 10  1  0  0  0  0
  9 11  1  0  0  0  0
  9 22  1  0  0  0  0
  7  8  1  0  0  0  0
  7  9  1  0  0  0  0
 26 27  1  0  0  0  0
 26 28  1  0  0  0  0
 26 29  1  0  0  0  0
 24 25  1  0  0  0  0
 24 26  1  0  0  0  0
M  END
$$$$
default_name
  -OEChem-01062215323D

 29 29  0     1  0  0  0  0  0999 V2000
   -3.6042   -3.5728    1.4576 H   0  0  0  0  0  0  0  0  0  0  0  0
   -3.5202   -2.6488    0.8866 C   0  0  0  0  0  0  0  0  0  0  0  0
   -4.2052   -1.9048    1.2896 H   0  0  0  0  0  0  0  0  0  0  0  0
   -3.7552   -2.8428   -0.1584 H   0  0  0  0  0  0  0  0  0  0  0  0
   -2.1052   -2.1358    0.9946 C   0  0  0  0  0  0  0  0  0  0  0  0
   -1.2852   -2.7288    1.6826 O   0  0  0  0  0  0  0  0  0  0  0  0
   -1.8202   -1.0288    0.3146 N   0  0  0  0  0  0  0  0  0  0  0  0
   -2.5542   -0.5788   -0.2104 H   0  0  0  0  0  0  0  0  0  0  0  0
   -0.5102   -0.3728    0.3086 C   0  0  1  0  0  0  0  0  0  0  0  0
   -0.0067   -0.6062   -0.6307 H   0  0  0  0  0  0  0  0  0  0  0  0
   -0.7090    1.1526    0.3787 C   0  0  0  0  0  0  0  0  0  0  0  0
   -1.2856    1.3971    1.2726 H   0  0  0  0  0  0  0  0  0  0  0  0
    0.2663    1.6348    0.4663 H   0  0  0  0  0  0  0  0  0  0  0  0
   -1.4190    1.7246   -0.8209 C   0  0  0  0  0  0  0  0  0  0  0  0
   -0.8781    1.9166   -2.0741 N   0  0  0  0  0  0  0  0  0  0  0  0
    0.0859    1.7715   -2.3347 H   0  0  0  0  0  0  0  0  0  0  0  0
   -1.8591    2.3372   -2.8902 C   0  0  0  0  0  0  0  0  0  0  0  0
   -1.7403    2.5784   -3.9395 H   0  0  0  0  0  0  0  0  0  0  0  0
   -3.0187    2.4146   -2.2210 N   0  0  0  0  0  0  0  0  0  0  0  0
   -2.7509    2.0318   -0.9041 C   0  0  0  0  0  0  0  0  0  0  0  0
   -3.4729    1.9557   -0.1014 H   0  0  0  0  0  0  0  0  0  0  0  0
    0.3690   -0.8971    1.4566 C   0  0  0  0  0  0  0  0  0  0  0  0
    1.0898   -1.8798    1.2849 O   0  0  0  0  0  0  0  0  0  0  0  0
    0.2977   -0.2553    2.6294 N   0  0  0  0  0  0  0  0  0  0  0  0
   -0.3578    0.5085    2.7066 H   0  0  0  0  0  0  0  0  0  0  0  0
    1.0672   -0.6178    3.8166 C   0  0  0  0  0  0  0  0  0  0  0  0
    2.1355   -0.5547    3.5978 H   0  0  0  0  0  0  0  0  0  0  0  0
    0.8289    0.0579    4.6386 H   0  0  0  0  0  0  0  0  0  0  0  0
    0.8325   -1.6415    4.1124 H   0  0  0  0  0  0  0  0  0  0  0  0
  5  6  2  0  0  0  0
  5  7  1  0  0  0  0
  2  3  1  0  0  0  0
  2  4  1  0  0  0  0
  2  5  1  0  0  0  0
  1  2  1  0  0  0  0
 22 23  2  0  0  0  0
 22 24  1  0  0  0  0
 20 21  1  0  0  0  0
 19 20  1  0  0  0  0
 17 18  1  0  0  0  0
 17 19  2  0  0  0  0
 15 16  1  0  0  0  0
 15 17  1  0  0  0  0
 14 15  1  0  0  0  0
 14 20  2  0  0  0  0
 11 12  1  0  0  0  0
 11 13  1  0  0  0  0
 11 14  1  0  0  0  0
  9 10  1  0  0  0  0
  9 11  1  0  0  0  0
  9 22  1  0  0  0  0
  7  8  1  0  0  0  0
  7  9  1  0  0  0  0
 26 27  1  0  0  0  0
 26 28  1  0  0  0  0
 26 29  1  0  0  0  0
 24 25  1  0  0  0  0
 24 26  1  0  0  0  0
M  END
$$$$
default_name
  -OEChem-01062215323D

 29 29  0     1  0  0  0  0  0999 V2000
   -3.6042   -3.5728    1.4576 H   0  0  0  0  0  0  0  0  0  0  0  0
   -3.5202   -2.6488    0.8866 C   0  0  0  0  0  0  0  0  0  0  0  0
   -4.2052   -1.9048    1.2896 H   0  0  0  0  0  0  0  0  0  0  0  0
   -3.7552   -2.8428   -0.1584 H   0  0  0  0  0  0  0  0  0  0  0  0
   -2.1052   -2.1358    0.9946 C   0  0  0  0  0  0  0  0  0  0  0  0
   -1.2852   -2.7288    1.6826 O   0  0  0  0  0  0  0  0  0  0  0  0
   -1.8202   -1.0288    0.3146 N   0  0  0  0  0  0  0  0  0  0  0  0
   -2.5542   -0.5788   -0.2104 H   0  0  0  0  0  0  0  0  0  0  0  0
   -0.5102   -0.3728    0.3086 C   0  0  1  0  0  0  0  0  0  0  0  0
   -0.0067   -0.6062   -0.6307 H   0  0  0  0  0  0  0  0  0  0  0  0
   -0.7090    1.1526    0.3787 C   0  0  0  0  0  0  0  0  0  0  0  0
   -1.2856    1.3971    1.2726 H   0  0  0  0  0  0  0  0  0  0  0  0
    0.2663    1.6348    0.4663 H   0  0  0  0  0  0  0  0  0  0  0  0
   -1.4190    1.7246   -0.8209 C   0  0  0  0  0  0  0  0  0  0  0  0
   -0.8781    1.9166   -2.0741 N   0  0  0  0  0  0  0  0  0  0  0  0
    0.0859    1.7715   -2.3347 H   0  0  0  0  0  0  0  0  0  0  0  0
   -1.8591    2.3372   -2.8902 C   0  0  0  0  0  0  0  0  0  0  0  0
   -1.7403    2.5784   -3.9395 H   0  0  0  0  0  0  0  0  0  0  0  0
   -3.0187    2.4146   -2.2210 N   0  0  0  0  0  0  0  0  0  0  0  0
   -2.7509    2.0318   -0.9041 C   0  0  0  0  0  0  0  0  0  0  0  0
   -3.4729    1.9557   -0.1014 H   0  0  0  0  0  0  0  0  0  0  0  0
    0.3690   -0.8971    1.4566 C   0  0  0  0  0  0  0  0  0  0  0  0
    1.2822   -1.6889    1.2247 O   0  0  0  0  0  0  0  0  0  0  0  0
    0.0846   -0.4716    2.6937 N   0  0  0  0  0  0  0  0  0  0  0  0
   -0.7141    0.1349    2.8088 H   0  0  0  0  0  0  0  0  0  0  0  0
    0.8215   -0.8656    3.8917 C   0  0  0  0  0  0  0  0  0  0  0  0
    1.8688   -0.5709    3.7948 H   0  0  0  0  0  0  0  0  0  0  0  0
    0.3930   -0.3834    4.7708 H   0  0  0  0  0  0  0  0  0  0  0  0
    0.7749   -1.9485    4.0163 H   0  0  0  0  0  0  0  0  0  0  0  0
  5  6  2  0  0  0  0
  5  7  1  0  0  0  0
  2  3  1  0  0  0  0
  2  4  1  0  0  0  0
  2  5  1  0  0  0  0
  1  2  1  0  0  0  0
 22 23  2  0  0  0  0
 22 24  1  0  0  0  0
 20 21  1  0  0  0  0
 19 20  1  0  0  0  0
 17 18  1  0  0  0  0
 17 19  2  0  0  0  0
 15 16  1  0  0  0  0
 15 17  1  0  0  0  0
 14 15  1  0  0  0  0
 14 20  2  0  0  0  0
 11 12  1  0  0  0  0
 11 13  1  0  0  0  0
 11 14  1  0  0  0  0
  9 10  1  0  0  0  0
  9 11  1  0  0  0  0
  9 22  1  0  0  0  0
  7  8  1  0  0  0  0
  7  9  1  0  0  0  0
 26 27  1  0  0  0  0
 26 28  1  0  0  0  0
 26 29  1  0  0  0  0
 24 25  1  0  0  0  0
 24 26  1  0  0  0  0
M  END
$$$$
default_name
  -OEChem-01062215323D

 29 29  0     1  0  0  0  0  0999 V2000
   -3.6042   -3.5728    1.4576 H   0  0  0  0  0  0  0  0  0  0  0  0
   -3.5202   -2.6488    0.8866 C   0  0  0  0  0  0  0  0  0  0  0  0
   -4.2052   -1.9048    1.2896 H   0  0  0  0  0  0  0  0  0  0  0  0
   -3.7552   -2.8428   -0.1584 H   0  0  0  0  0  0  0  0  0  0  0  0
   -2.1052   -2.1358    0.9946 C   0  0  0  0  0  0  0  0  0  0  0  0
   -1.2852   -2.7288    1.6826 O   0  0  0  0  0  0  0  0  0  0  0  0
   -1.8202   -1.0288    0.3146 N   0  0  0  0  0  0  0  0  0  0  0  0
   -2.5542   -0.5788   -0.2104 H   0  0  0  0  0  0  0  0  0  0  0  0
   -0.5102   -0.3728    0.3086 C   0  0  1  0  0  0  0  0  0  0  0  0
   -0.0067   -0.6062   -0.6307 H   0  0  0  0  0  0  0  0  0  0  0  0
   -0.7090    1.1526    0.3787 C   0  0  0  0  0  0  0  0  0  0  0  0
   -1.2856    1.3971    1.2726 H   0  0  0  0  0  0  0  0  0  0  0  0
    0.2663    1.6348    0.4663 H   0  0  0  0  0  0  0  0  0  0  0  0
   -1.4190    1.7246   -0.8209 C   0  0  0  0  0  0  0  0  0  0  0  0
   -0.8781    1.9166   -2.0741 N   0  0  0  0  0  0  0  0  0  0  0  0
    0.0859    1.7715   -2.3347 H   0  0  0  0  0  0  0  0  0  0  0  0
   -1.8591    2.3372   -2.8902 C   0  0  0  0  0  0  0  0  0  0  0  0
   -1.7403    2.5784   -3.9395 H   0  0  0  0  0  0  0  0  0  0  0  0
   -3.0187    2.4146   -2.2210 N   0  0  0  0  0  0  0  0  0  0  0  0
   -2.7509    2.0318   -0.9041 C   0  0  0  0  0  0  0  0  0  0  0  0
   -3.4729    1.9557   -0.1014 H   0  0  0  0  0  0  0  0  0  0  0  0
    0.3690   -0.8971    1.4566 C   0  0  0  0  0  0  0  0  0  0  0  0
    1.4366   -1.4584    1.2118 O   0  0  0  0  0  0  0  0  0  0  0  0
   -0.0851   -0.7312    2.7051 N   0  0  0  0  0  0  0  0  0  0  0  0
   -0.9951   -0.3100    2.8208 H   0  0  0  0  0  0  0  0  0  0  0  0
    0.6253   -1.1635    3.9058 C   0  0  0  0  0  0  0  0  0  0  0  0
    1.5969   -0.6671    3.9590 H   0  0  0  0  0  0  0  0  0  0  0  0
    0.0456   -0.9134    4.7948 H   0  0  0  0  0  0  0  0  0  0  0  0
    0.7871   -2.2420    3.8730 H   0  0  0  0  0  0  0  0  0  0  0  0
  5  6  2  0  0  0  0
  5  7  1  0  0  0  0
  2  3  1  0  0  0  0
  2  4  1  0  0  0  0
  2  5  1  0  0  0  0
  1  2  1  0  0  0  0
 22 23  2  0  0  0  0
 22 24  1  0  0  0  0
 20 21  1  0  0  0  0
 19 20  1  0  0  0  0
 17 18  1  0  0  0  0
 17 19  2  0  0  0  0
 15 16  1  0  0  0  0
 15 17  1  0  0  0  0
 14 15  1  0  0  0  0
 14 20  2  0  0  0  0
 11 12  1  0  0  0  0
 11 13  1  0  0  0  0
 11 14  1  0  0  0  0
  9 10  1  0  0  0  0
  9 11  1  0  0  0  0
  9 22  1  0  0  0  0
  7  8  1  0  0  0  0
  7  9  1  0  0  0  0
 26 27  1  0  0  0  0
 26 28  1  0  0  0  0
 26 29  1  0  0  0  0
 24 25  1  0  0  0  0
 24 26  1  0  0  0  0
M  END
$$$$
default_name
  -OEChem-01062215323D

 29 29  0     1  0  0  0  0  0999 V2000
   -3.6042   -3.5728    1.4576 H   0  0  0  0  0  0  0  0  0  0  0  0
   -3.5202   -2.6488    0.8866 C   0  0  0  0  0  0  0  0  0  0  0  0
   -4.2052   -1.9048    1.2896 H   0  0  0  0  0  0  0  0  0  0  0  0
   -3.7552   -2.8428   -0.1584 H   0  0  0  0  0  0  0  0  0  0  0  0
   -2.1052   -2.1358    0.9946 C   0  0  0  0  0  0  0  0  0  0  0  0
   -1.2852   -2.7288    1.6826 O   0  0  0  0  0  0  0  0  0  0  0  0
   -1.8202   -1.0288    0.3146 N   0  0  0  0  0  0  0  0  0  0  0  0
   -2.5542   -0.5788   -0.2104 H   0  0  0  0  0  0  0  0  0  0  0  0
   -0.5102   -0.3728    0.3086 C   0  0  1  0  0  0  0  0  0  0  0  0
   -0.0067   -0.6062   -0.6307 H   0  0  0  0  0  0  0  0  0  0  0  0
   -0.7090    1.1526    0.3787 C   0  0  0  0  0  0  0  0  0  0  0  0
   -1.2856    1.3971    1.2726 H   0  0  0  0  0  0  0  0  0  0  0  0
    0.2663    1.6348    0.4663 H   0  0  0  0  0  0  0  0  0  0  0  0
   -1.4190    1.7246   -0.8209 C   0  0  0  0  0  0  0  0  0  0  0  0
   -0.8781    1.9166   -2.0741 N   0  0  0  0  0  0  0  0  0  0  0  0
    0.0859    1.7715   -2.3347 H   0  0  0  0  0  0  0  0  0  0  0  0
   -1.8591    2.3372   -2.8902 C   0  0  0  0  0  0  0  0  0  0  0  0
   -1.7403    2.5784   -3.9395 H   0  0  0  0  0  0  0  0  0  0  0  0
   -3.0187    2.4146   -2.2210 N   0  0  0  0  0  0  0  0  0  0  0  0
   -2.7509    2.0318   -0.9041 C   0  0  0  0  0  0  0  0  0  0  0  0
   -3.4729    1.9557   -0.1014 H   0  0  0  0  0  0  0  0  0  0  0  0
    0.3690   -0.8971    1.4566 C   0  0  0  0  0  0  0  0  0  0  0  0
    1.5423   -1.2040    1.2471 O   0  0  0  0  0  0  0  0  0  0  0  0
   -0.1998   -1.0164    2.6627 N   0  0  0  0  0  0  0  0  0  0  0  0
   -1.1817   -0.7958    2.7418 H   0  0  0  0  0  0  0  0  0  0  0  0
    0.4922   -1.4912    3.8581 C   0  0  0  0  0  0  0  0  0  0  0  0
    1.3384   -0.8369    4.0795 H   0  0  0  0  0  0  0  0  0  0  0  0
   -0.1897   -1.4960    4.7089 H   0  0  0  0  0  0  0  0  0  0  0  0
    0.8681   -2.5020    3.6922 H   0  0  0  0  0  0  0  0  0  0  0  0
  5  6  2  0  0  0  0
  5  7  1  0  0  0  0
  2  3  1  0  0  0  0
  2  4  1  0  0  0  0
  2  5  1  0  0  0  0
  1  2  1  0  0  0  0
 22 23  2  0  0  0  0
 22 24  1  0  0  0  0
 20 21  1  0  0  0  0
 19 20  1  0  0  0  0
 17 18  1  0  0  0  0
 17 19  2  0  0  0  0
 15 16  1  0  0  0  0
 15 17  1  0  0  0  0
 14 15  1  0  0  0  0
 14 20  2  0  0  0  0
 11 12  1  0  0  0  0
 11 13  1  0  0  0  0
 11 14  1  0  0  0  0
  9 10  1  0  0  0  0
  9 11  1  0  0  0  0
  9 22  1  0  0  0  0
  7  8  1  0  0  0  0
  7  9  1  0  0  0  0
 26 27  1  0  0  0  0
 26 28  1  0  0  0  0
 26 29  1  0  0  0  0
 24 25  1  0  0  0  0
 24 26  1  0  0  0  0
M  END
$$$$
default_name
  -OEChem-01062215323D

 29 29  0     1  0  0  0  0  0999 V2000
   -3.6042   -3.5728    1.4576 H   0  0  0  0  0  0  0  0  0  0  0  0
   -3.5202   -2.6488    0.8866 C   0  0  0  0  0  0  0  0  0  0  0  0
   -4.2052   -1.9048    1.2896 H   0  0  0  0  0  0  0  0  0  0  0  0
   -3.7552   -2.8428   -0.1584 H   0  0  0  0  0  0  0  0  0  0  0  0
   -2.1052   -2.1358    0.9946 C   0  0  0  0  0  0  0  0  0  0  0  0
   -1.2852   -2.7288    1.6826 O   0  0  0  0  0  0  0  0  0  0  0  0
   -1.8202   -1.0288    0.3146 N   0  0  0  0  0  0  0  0  0  0  0  0
   -2.5542   -0.5788   -0.2104 H   0  0  0  0  0  0  0  0  0  0  0  0
   -0.5102   -0.3728    0.3086 C   0  0  1  0  0  0  0  0  0  0  0  0
   -0.0067   -0.6062   -0.6307 H   0  0  0  0  0  0  0  0  0  0  0  0
   -0.7090    1.1526    0.3787 C   0  0  0  0  0  0  0  0  0  0  0  0
   -1.2856    1.3971    1.2726 H   0  0  0  0  0  0  0  0  0  0  0  0
    0.2663    1.6348    0.4663 H   0  0  0  0  0  0  0  0  0  0  0  0
   -1.4190    1.7246   -0.8209 C   0  0  0  0  0  0  0  0  0  0  0  0
   -0.8781    1.9166   -2.0741 N   0  0  0  0  0  0  0  0  0  0  0  0
    0.0859    1.7715   -2.3347 H   0  0  0  0  0  0  0  0  0  0  0  0
   -1.8591    2.3372   -2.8902 C   0  0  0  0  0  0  0  0  0  0  0  0
   -1.7403    2.5784   -3.9395 H   0  0  0  0  0  0  0  0  0  0  0  0
   -3.0187    2.4146   -2.2210 N   0  0  0  0  0  0  0  0  0  0  0  0
   -2.7509    2.0318   -0.9041 C   0  0  0  0  0  0  0  0  0  0  0  0
   -3.4729    1.9557   -0.1014 H   0  0  0  0  0  0  0  0  0  0  0  0
    0.3690   -0.8971    1.4566 C   0  0  0  0  0  0  0  0  0  0  0  0
    1.5921   -0.9431    1.3281 O   0  0  0  0  0  0  0  0  0  0  0  0
   -0.2518   -1.3078    2.5695 N   0  0  0  0  0  0  0  0  0  0  0  0
   -1.2611   -1.2893    2.5772 H   0  0  0  0  0  0  0  0  0  0  0  0
    0.4311   -1.8264    3.7517 C   0  0  0  0  0  0  0  0  0  0  0  0
    1.1108   -1.0687    4.1479 H   0  0  0  0  0  0  0  0  0  0  0  0
   -0.2969   -2.0916    4.5190 H   0  0  0  0  0  0  0  0  0  0  0  0
    1.0126   -2.7107    3.4862 H   0  0  0  0  0  0  0  0  0  0  0  0
  5  6  2  0  0  0  0
  5  7  1  0  0  0  0
  2  3  1  0  0  0  0
  2  4  1  0  0  0  0
  2  5  1  0  0  0  0
  1  2  1  0  0  0  0
 22 23  2  0  0  0  0
 22 24  1  0  0  0  0
 20 21  1  0  0  0  0
 19 20  1  0  0  0  0
 17 18  1  0  0  0  0
 17 19  2  0  0  0  0
 15 16  1  0  0  0  0
 15 17  1  0  0  0  0
 14 15  1  0  0  0  0
 14 20  2  0  0  0  0
 11 12  1  0  0  0  0
 11 13  1  0  0  0  0
 11 14  1  0  0  0  0
  9 10  1  0  0  0  0
  9 11  1  0  0  0  0
  9 22  1  0  0  0  0
  7  8  1  0  0  0  0
  7  9  1  0  0  0  0
 26 27  1  0  0  0  0
 26 28  1  0  0  0  0
 26 29  1  0  0  0  0
 24 25  1  0  0  0  0
 24 26  1  0  0  0  0
M  END
$$$$
default_name
  -OEChem-01062215323D

 29 29  0     1  0  0  0  0  0999 V2000
   -3.6042   -3.5728    1.4576 H   0  0  0  0  0  0  0  0  0  0  0  0
   -3.5202   -2.6488    0.8866 C   0  0  0  0  0  0  0  0  0  0  0  0
   -4.2052   -1.9048    1.2896 H   0  0  0  0  0  0  0  0  0  0  0  0
   -3.7552   -2.8428   -0.1584 H   0  0  0  0  0  0  0  0  0  0  0  0
   -2.1052   -2.1358    0.9946 C   0  0  0  0  0  0  0  0  0  0  0  0
   -1.2852   -2.7288    1.6826 O   0  0  0  0  0  0  0  0  0  0  0  0
   -1.8202   -1.0288    0.3146 N   0  0  0  0  0  0  0  0  0  0  0  0
   -2.5542   -0.5788   -0.2104 H   0  0  0  0  0  0  0  0  0  0  0  0
   -0.5102   -0.3728    0.3086 C   0  0  1  0  0  0  0  0  0  0  0  0
   -0.0067   -0.6062   -0.6307 H   0  0  0  0  0  0  0  0  0  0  0  0
   -0.7090    1.1526    0.3787 C   0  0  0  0  0  0  0  0  0  0  0  0
   -1.2856    1.3971    1.2726 H   0  0  0  0  0  0  0  0  0  0  0  0
    0.2663    1.6348    0.4663 H   0  0  0  0  0  0  0  0  0  0  0  0
   -1.4190    1.7246   -0.8209 C   0  0  0  0  0  0  0  0  0  0  0  0
   -0.8781    1.9166   -2.0741 N   0  0  0  0  0  0  0  0  0  0  0  0
    0.0859    1.7715   -2.3347 H   0  0  0  0  0  0  0  0  0  0  0  0
   -1.8591    2.3372   -2.8902 C   0  0  0  0  0  0  0  0  0  0  0  0
   -1.7403    2.5784   -3.9395 H   0  0  0  0  0  0  0  0  0  0  0  0
   -3.0187    2.4146   -2.2210 N   0  0  0  0  0  0  0  0  0  0  0  0
   -2.7509    2.0318   -0.9041 C   0  0  0  0  0  0  0  0  0  0  0  0
   -3.4729    1.9557   -0.1014 H   0  0  0  0  0  0  0  0  0  0  0  0
    0.3690   -0.8971    1.4566 C   0  0  0  0  0  0  0  0  0  0  0  0
    1.5827   -0.6934    1.4493 O   0  0  0  0  0  0  0  0  0  0  0  0
   -0.2375   -1.5855    2.4317 N   0  0  0  0  0  0  0  0  0  0  0  0
   -1.2279   -1.7571    2.3381 H   0  0  0  0  0  0  0  0  0  0  0  0
    0.4462   -2.1463    3.5941 C   0  0  0  0  0  0  0  0  0  0  0  0
    0.9297   -1.3466    4.1596 H   0  0  0  0  0  0  0  0  0  0  0  0
   -0.2687   -2.6594    4.2380 H   0  0  0  0  0  0  0  0  0  0  0  0
    1.2106   -2.8539    3.2691 H   0  0  0  0  0  0  0  0  0  0  0  0
  5  6  2  0  0  0  0
  5  7  1  0  0  0  0
  2  3  1  0  0  0  0
  2  4  1  0  0  0  0
  2  5  1  0  0  0  0
  1  2  1  0  0  0  0
 22 23  2  0  0  0  0
 22 24  1  0  0  0  0
 20 21  1  0  0  0  0
 19 20  1  0  0  0  0
 17 18  1  0  0  0  0
 17 19  2  0  0  0  0
 15 16  1  0  0  0  0
 15 17  1  0  0  0  0
 14 15  1  0  0  0  0
 14 20  2  0  0  0  0
 11 12  1  0  0  0  0
 11 13  1  0  0  0  0
 11 14  1  0  0  0  0
  9 10  1  0  0  0  0
  9 11  1  0  0  0  0
  9 22  1  0  0  0  0
  7  8  1  0  0  0  0
  7  9  1  0  0  0  0
 26 27  1  0  0  0  0
 26 28  1  0  0  0  0
 26 29  1  0  0  0  0
 24 25  1  0  0  0  0
 24 26  1  0  0  0  0
M  END
$$$$
default_name
  -OEChem-01062215323D

 29 29  0     1  0  0  0  0  0999 V2000
   -3.6042   -3.5728    1.4576 H   0  0  0  0  0  0  0  0  0  0  0  0
   -3.5202   -2.6488    0.8866 C   0  0  0  0  0  0  0  0  0  0  0  0
   -4.2052   -1.9048    1.2896 H   0  0  0  0  0  0  0  0  0  0  0  0
   -3.7552   -2.8428   -0.1584 H   0  0  0  0  0  0  0  0  0  0  0  0
   -2.1052   -2.1358    0.9946 C   0  0  0  0  0  0  0  0  0  0  0  0
   -1.2852   -2.7288    1.6826 O   0  0  0  0  0  0  0  0  0  0  0  0
   -1.8202   -1.0288    0.3146 N   0  0  0  0  0  0  0  0  0  0  0  0
   -2.5542   -0.5788   -0.2104 H   0  0  0  0  0  0  0  0  0  0  0  0
   -0.5102   -0.3728    0.3086 C   0  0  1  0  0  0  0  0  0  0  0  0
   -0.0067   -0.6062   -0.6307 H   0  0  0  0  0  0  0  0  0  0  0  0
   -0.7090    1.1526    0.3787 C   0  0  0  0  0  0  0  0  0  0  0  0
   -1.2856    1.3971    1.2726 H   0  0  0  0  0  0  0  0  0  0  0  0
    0.2663    1.6348    0.4663 H   0  0  0  0  0  0  0  0  0  0  0  0
   -1.4190    1.7246   -0.8209 C   0  0  0  0  0  0  0  0  0  0  0  0
   -0.8781    1.9166   -2.0741 N   0  0  0  0  0  0  0  0  0  0  0  0
    0.0859    1.7715   -2.3347 H   0  0  0  0  0  0  0  0  0  0  0  0
   -1.8591    2.3372   -2.8902 C   0  0  0  0  0  0  0  0  0  0  0  0
   -1.7403    2.5784   -3.9395 H   0  0  0  0  0  0  0  0  0  0  0  0
   -3.0187    2.4146   -2.2210 N   0  0  0  0  0  0  0  0  0  0  0  0
   -2.7509    2.0318   -0.9041 C   0  0  0  0  0  0  0  0  0  0  0  0
   -3.4729    1.9557   -0.1014 H   0  0  0  0  0  0  0  0  0  0  0  0
    0.3690   -0.8971    1.4566 C   0  0  0  0  0  0  0  0  0  0  0  0
    1.5147   -0.4720    1.6025 O   0  0  0  0  0  0  0  0  0  0  0  0
   -0.1579   -1.8306    2.2587 N   0  0  0  0  0  0  0  0  0  0  0  0
   -1.0844   -2.1671    2.0409 H   0  0  0  0  0  0  0  0  0  0  0  0
    0.5365   -2.4291    3.3958 C   0  0  0  0  0  0  0  0  0  0  0  0
    0.8075   -1.6518    4.1139 H   0  0  0  0  0  0  0  0  0  0  0  0
   -0.1069   -3.1609    3.8850 H   0  0  0  0  0  0  0  0  0  0  0  0
    1.4487   -2.9218    3.0557 H   0  0  0  0  0  0  0  0  0  0  0  0
  5  6  2  0  0  0  0
  5  7  1  0  0  0  0
  2  3  1  0  0  0  0
  2  4  1  0  0  0  0
  2  5  1  0  0  0  0
  1  2  1  0  0  0  0
 22 23  2  0  0  0  0
 22 24  1  0  0  0  0
 20 21  1  0  0  0  0
 19 20  1  0  0  0  0
 17 18  1  0  0  0  0
 17 19  2  0  0  0  0
 15 16  1  0  0  0  0
 15 17  1  0  0  0  0
 14 15  1  0  0  0  0
 14 20  2  0  0  0  0
 11 12  1  0  0  0  0
 11 13  1  0  0  0  0
 11 14  1  0  0  0  0
  9 10  1  0  0  0  0
  9 11  1  0  0  0  0
  9 22  1  0  0  0  0
  7  8  1  0  0  0  0
  7  9  1  0  0  0  0
 26 27  1  0  0  0  0
 26 28  1  0  0  0  0
 26 29  1  0  0  0  0
 24 25  1  0  0  0  0
 24 26  1  0  0  0  0
M  END
$$$$
default_name
  -OEChem-01062215323D

 29 29  0     1  0  0  0  0  0999 V2000
   -3.6042   -3.5728    1.4576 H   0  0  0  0  0  0  0  0  0  0  0  0
   -3.5202   -2.6488    0.8866 C   0  0  0  0  0  0  0  0  0  0  0  0
   -4.2052   -1.9048    1.2896 H   0  0  0  0  0  0  0  0  0  0  0  0
   -3.7552   -2.8428   -0.1584 H   0  0  0  0  0  0  0  0  0  0  0  0
   -2.1052   -2.1358    0.9946 C   0  0  0  0  0  0  0  0  0  0  0  0
   -1.2852   -2.7288    1.6826 O   0  0  0  0  0  0  0  0  0  0  0  0
   -1.8202   -1.0288    0.3146 N   0  0  0  0  0  0  0  0  0  0  0  0
   -2.5542   -0.5788   -0.2104 H   0  0  0  0  0  0  0  0  0  0  0  0
   -0.5102   -0.3728    0.3086 C   0  0  1  0  0  0  0  0  0  0  0  0
   -0.0067   -0.6062   -0.6307 H   0  0  0  0  0  0  0  0  0  0  0  0
   -0.7090    1.1526    0.3787 C   0  0  0  0  0  0  0  0  0  0  0  0
   -1.2856    1.3971    1.2726 H   0  0  0  0  0  0  0  0  0  0  0  0
    0.2663    1.6348    0.4663 H   0  0  0  0  0  0  0  0  0  0  0  0
   -1.4190    1.7246   -0.8209 C   0  0  0  0  0  0  0  0  0  0  0  0
   -0.8781    1.9166   -2.0741 N   0  0  0  0  0  0  0  0  0  0  0  0
    0.0859    1.7715   -2.3347 H   0  0  0  0  0  0  0  0  0  0  0  0
   -1.8591    2.3372   -2.8902 C   0  0  0  0  0  0  0  0  0  0  0  0
   -1.7403    2.5784   -3.9395 H   0  0  0  0  0  0  0  0  0  0  0  0
   -3.0187    2.4146   -2.2210 N   0  0  0  0  0  0  0  0  0  0  0  0
   -2.7509    2.0318   -0.9041 C   0  0  0  0  0  0  0  0  0  0  0  0
   -3.4729    1.9557   -0.1014 H   0  0  0  0  0  0  0  0  0  0  0  0
    0.3690   -0.8971    1.4566 C   0  0  0  0  0  0  0  0  0  0  0  0
    1.3927   -0.2940    1.7773 O   0  0  0  0  0  0  0  0  0  0  0  0
   -0.0184   -2.0264    2.0625 N   0  0  0  0  0  0  0  0  0  0  0  0
   -0.8403   -2.4915    1.7059 H   0  0  0  0  0  0  0  0  0  0  0  0
    0.6958   -2.6554    3.1703 C   0  0  0  0  0  0  0  0  0  0  0  0
    0.7524   -1.9635    4.0137 H   0  0  0  0  0  0  0  0  0  0  0  0
    0.1774   -3.5618    3.4842 H   0  0  0  0  0  0  0  0  0  0  0  0
    1.7107   -2.9099    2.8606 H   0  0  0  0  0  0  0  0  0  0  0  0
  5  6  2  0  0  0  0
  5  7  1  0  0  0  0
  2  3  1  0  0  0  0
  2  4  1  0  0  0  0
  2  5  1  0  0  0  0
  1  2  1  0  0  0  0
 22 23  2  0  0  0  0
 22 24  1  0  0  0  0
 20 21  1  0  0  0  0
 19 20  1  0  0  0  0
 17 18  1  0  0  0  0
 17 19  2  0  0  0  0
 15 16  1  0  0  0  0
 15 17  1  0  0  0  0
 14 15  1  0  0  0  0
 14 20  2  0  0  0  0
 11 12  1  0  0  0  0
 11 13  1  0  0  0  0
 11 14  1  0  0  0  0
  9 10  1  0  0  0  0
  9 11  1  0  0  0  0
  9 22  1  0  0  0  0
  7  8  1  0  0  0  0
  7  9  1  0  0  0  0
 26 27  1  0  0  0  0
 26 28  1  0  0  0  0
 26 29  1  0  0  0  0
 24 25  1  0  0  0  0
 24 26  1  0  0  0  0
M  END
$$$$
default_name
  -OEChem-01062215323D

 29 29  0     1  0  0  0  0  0999 V2000
   -3.6042   -3.5728    1.4576 H   0  0  0  0  0  0  0  0  0  0  0  0
   -3.5202   -2.6488    0.8866 C   0  0  0  0  0  0  0  0  0  0  0  0
   -4.2052   -1.9048    1.2896 H   0  0  0  0  0  0  0  0  0  0  0  0
   -3.7552   -2.8428   -0.1584 H   0  0  0  0  0  0  0  0  0  0  0  0
   -2.1052   -2.1358    0.9946 C   0  0  0  0  0  0  0  0  0  0  0  0
   -1.2852   -2.7288    1.6826 O   0  0  0  0  0  0  0  0  0  0  0  0
   -1.8202   -1.0288    0.3146 N   0  0  0  0  0  0  0  0  0  0  0  0
   -2.5542   -0.5788   -0.2104 H   0  0  0  0  0  0  0  0  0  0  0  0
   -0.5102   -0.3728    0.3086 C   0  0  1  0  0  0  0  0  0  0  0  0
   -0.0067   -0.6062   -0.6307 H   0  0  0  0  0  0  0  0  0  0  0  0
   -0.7090    1.1526    0.3787 C   0  0  0  0  0  0  0  0  0  0  0  0
   -1.2856    1.3971    1.2726 H   0  0  0  0  0  0  0  0  0  0  0  0
    0.2663    1.6348    0.4663 H   0  0  0  0  0  0  0  0  0  0  0  0
   -1.4190    1.7246   -0.8209 C   0  0  0  0  0  0  0  0  0  0  0  0
   -0.8781    1.9166   -2.0741 N   0  0  0  0  0  0  0  0  0  0  0  0
    0.0859    1.7715   -2.3347 H   0  0  0  0  0  0  0  0  0  0  0  0
   -1.8591    2.3372   -2.8902 C   0  0  0  0  0  0  0  0  0  0  0  0
   -1.7403    2.5784   -3.9395 H   0  0  0  0  0  0  0  0  0  0  0  0
   -3.0187    2.4146   -2.2210 N   0  0  0  0  0  0  0  0  0  0  0  0
   -2.7509    2.0318   -0.9041 C   0  0  0  0  0  0  0  0  0  0  0  0
   -3.4729    1.9557   -0.1014 H   0  0  0  0  0  0  0  0  0  0  0  0
    0.3690   -0.8971    1.4566 C   0  0  0  0  0  0  0  0  0  0  0  0
    1.2251   -0.1714    1.9616 O   0  0  0  0  0  0  0  0  0  0  0  0
    0.1714   -2.1596    1.8562 N   0  0  0  0  0  0  0  0  0  0  0  0
   -0.5124   -2.7081    1.3558 H   0  0  0  0  0  0  0  0  0  0  0  0
    0.9134   -2.8098    2.9332 C   0  0  0  0  0  0  0  0  0  0  0  0
    0.7682   -2.2603    3.8660 H   0  0  0  0  0  0  0  0  0  0  0  0
    0.5648   -3.8349    3.0628 H   0  0  0  0  0  0  0  0  0  0  0  0
    1.9786   -2.8189    2.6970 H   0  0  0  0  0  0  0  0  0  0  0  0
  5  6  2  0  0  0  0
  5  7  1  0  0  0  0
  2  3  1  0  0  0  0
  2  4  1  0  0  0  0
  2  5  1  0  0  0  0
  1  2  1  0  0  0  0
 22 23  2  0  0  0  0
 22 24  1  0  0  0  0
 20 21  1  0  0  0  0
 19 20  1  0  0  0  0
 17 18  1  0  0  0  0
 17 19  2  0  0  0  0
 15 16  1  0  0  0  0
 15 17  1  0  0  0  0
 14 15  1  0  0  0  0
 14 20  2  0  0  0  0
 11 12  1  0  0  0  0
 11 13  1  0  0  0  0
 11 14  1  0  0  0  0
  9 10  1  0  0  0  0
  9 11  1  0  0  0  0
  9 22  1  0  0  0  0
  7  8  1  0  0  0  0
  7  9  1  0  0  0  0
 26 27  1  0  0  0  0
 26 28  1  0  0  0  0
 26 29  1  0  0  0  0
 24 25  1  0  0  0  0
 24 26  1  0  0  0  0
M  END
$$$$
default_name
  -OEChem-01062215323D

 29 29  0     1  0  0  0  0  0999 V2000
   -3.6042   -3.5728    1.4576 H   0  0  0  0  0  0  0  0  0  0  0  0
   -3.5202   -2.6488    0.8866 C   0  0  0  0  0  0  0  0  0  0  0  0
   -4.2052   -1.9048    1.2896 H   0  0  0  0  0  0  0  0  0  0  0  0
   -3.7552   -2.8428   -0.1584 H   0  0  0  0  0  0  0  0  0  0  0  0
   -2.1052   -2.1358    0.9946 C   0  0  0  0  0  0  0  0  0  0  0  0
   -1.2852   -2.7288    1.6826 O   0  0  0  0  0  0  0  0  0  0  0  0
   -1.8202   -1.0288    0.3146 N   0  0  0  0  0  0  0  0  0  0  0  0
   -2.5542   -0.5788   -0.2104 H   0  0  0  0  0  0  0  0  0  0  0  0
   -0.5102   -0.3728    0.3086 C   0  0  1  0  0  0  0  0  0  0  0  0
   -0.0067   -0.6062   -0.6307 H   0  0  0  0  0  0  0  0  0  0  0  0
   -0.7090    1.1526    0.3787 C   0  0  0  0  0  0  0  0  0  0  0  0
   -1.2856    1.3971    1.2726 H   0  0  0  0  0  0  0  0  0  0  0  0
    0.2663    1.6348    0.4663 H   0  0  0  0  0  0  0  0  0  0  0  0
   -1.4190    1.7246   -0.8209 C   0  0  0  0  0  0  0  0  0  0  0  0
   -0.8781    1.9166   -2.0741 N   0  0  0  0  0  0  0  0  0  0  0  0
    0.0859    1.7715   -2.3347 H   0  0  0  0  0  0  0  0  0  0  0  0
   -1.8591    2.3372   -2.8902 C   0  0  0  0  0  0  0  0  0  0  0  0
   -1.7403    2.5784   -3.9395 H   0  0  0  0  0  0  0  0  0  0  0  0
   -3.0187    2.4146   -2.2210 N   0  0  0  0  0  0  0  0  0  0  0  0
   -2.7509    2.0318   -0.9041 C   0  0  0  0  0  0  0  0  0  0  0  0
   -3.4729    1.9557   -0.1014 H   0  0  0  0  0  0  0  0  0  0  0  0
    0.3690   -0.8971    1.4566 C   0  0  0  0  0  0  0  0  0  0  0  0
    1.0232   -0.1126    2.1431 O   0  0  0  0  0  0  0  0  0  0  0  0
    0.3988   -2.2210    1.6541 N   0  0  0  0  0  0  0  0  0  0  0  0
   -0.1229   -2.8021    1.0145 H   0  0  0  0  0  0  0  0  0  0  0  0
    1.1742   -2.8819    2.7005 C   0  0  0  0  0  0  0  0  0  0  0  0
    0.8539   -2.5221    3.6808 H   0  0  0  0  0  0  0  0  0  0  0  0
    1.0289   -3.9614    2.6495 H   0  0  0  0  0  0  0  0  0  0  0  0
    2.2342   -2.6550    2.5760 H   0  0  0  0  0  0  0  0  0  0  0  0
  5  6  2  0  0  0  0
  5  7  1  0  0  0  0
  2  3  1  0  0  0  0
  2  4  1  0  0  0  0
  2  5  1  0  0  0  0
  1  2  1  0  0  0  0
 22 23  2  0  0  0  0
 22 24  1  0  0  0  0
 20 21  1  0  0  0  0
 19 20  1  0  0  0  0
 17 18  1  0  0  0  0
 17 19  2  0  0  0  0
 15 16  1  0  0  0  0
 15 17  1  0  0  0  0
 14 15  1  0  0  0  0
 14 20  2  0  0  0  0
 11 12  1  0  0  0  0
 11 13  1  0  0  0  0
 11 14  1  0  0  0  0
  9 10  1  0  0  0  0
  9 11  1  0  0  0  0
  9 22  1  0  0  0  0
  7  8  1  0  0  0  0
  7  9  1  0  0  0  0
 26 27  1  0  0  0  0
 26 28  1  0  0  0  0
 26 29  1  0  0  0  0
 24 25  1  0  0  0  0
 24 26  1  0  0  0  0
M  END
$$$$
default_name
  -OEChem-01062215323D

 29 29  0     1  0  0  0  0  0999 V2000
   -3.6042   -3.5728    1.4576 H   0  0  0  0  0  0  0  0  0  0  0  0
   -3.5202   -2.6488    0.8866 C   0  0  0  0  0  0  0  0  0  0  0  0
   -4.2052   -1.9048    1.2896 H   0  0  0  0  0  0  0  0  0  0  0  0
   -3.7552   -2.8428   -0.1584 H   0  0  0  0  0  0  0  0  0  0  0  0
   -2.1052   -2.1358    0.9946 C   0  0  0  0  0  0  0  0  0  0  0  0
   -1.2852   -2.7288    1.6826 O   0  0  0  0  0  0  0  0  0  0  0  0
   -1.8202   -1.0288    0.3146 N   0  0  0  0  0  0  0  0  0  0  0  0
   -2.5542   -0.5788   -0.2104 H   0  0  0  0  0  0  0  0  0  0  0  0
   -0.5102   -0.3728    0.3086 C   0  0  1  0  0  0  0  0  0  0  0  0
   -0.0067   -0.6062   -0.6307 H   0  0  0  0  0  0  0  0  0  0  0  0
   -0.7090    1.1526    0.3787 C   0  0  0  0  0  0  0  0  0  0  0  0
   -1.2856    1.3971    1.2726 H   0  0  0  0  0  0  0  0  0  0  0  0
    0.2663    1.6348    0.4663 H   0  0  0  0  0  0  0  0  0  0  0  0
   -1.4190    1.7246   -0.8209 C   0  0  0  0  0  0  0  0  0  0  0  0
   -0.8781    1.9166   -2.0741 N   0  0  0  0  0  0  0  0  0  0  0  0
    0.0859    1.7715   -2.3347 H   0  0  0  0  0  0  0  0  0  0  0  0
   -1.8591    2.3372   -2.8902 C   0  0  0  0  0  0  0  0  0  0  0  0
   -1.7403    2.5784   -3.9395 H   0  0  0  0  0  0  0  0  0  0  0  0
   -3.0187    2.4146   -2.2210 N   0  0  0  0  0  0  0  0  0  0  0  0
   -2.7509    2.0318   -0.9041 C   0  0  0  0  0  0  0  0  0  0  0  0
   -3.4729    1.9557   -0.1014 H   0  0  0  0  0  0  0  0  0  0  0  0
    0.3690   -0.8971    1.4566 C   0  0  0  0  0  0  0  0  0  0  0  0
    0.8009   -0.1217    2.3092 O   0  0  0  0  0  0  0  0  0  0  0  0
    0.6481   -2.2065    1.4698 N   0  0  0  0  0  0  0  0  0  0  0  0
    0.3016   -2.7673    0.7053 H   0  0  0  0  0  0  0  0  0  0  0  0
    1.4607   -2.8668    2.4880 C   0  0  0  0  0  0  0  0  0  0  0  0
    1.0035   -2.7311    3.4707 H   0  0  0  0  0  0  0  0  0  0  0  0
    1.5382   -3.9329    2.2726 H   0  0  0  0  0  0  0  0  0  0  0  0
    2.4602   -2.4295    2.5060 H   0  0  0  0  0  0  0  0  0  0  0  0
  5  6  2  0  0  0  0
  5  7  1  0  0  0  0
  2  3  1  0  0  0  0
  2  4  1  0  0  0  0
  2  5  1  0  0  0  0
  1  2  1  0  0  0  0
 22 23  2  0  0  0  0
 22 24  1  0  0  0  0
 20 21  1  0  0  0  0
 19 20  1  0  0  0  0
 17 18  1  0  0  0  0
 17 19  2  0  0  0  0
 15 16  1  0  0  0  0
 15 17  1  0  0  0  0
 14 15  1  0  0  0  0
 14 20  2  0  0  0  0
 11 12  1  0  0  0  0
 11 13  1  0  0  0  0
 11 14  1  0  0  0  0
  9 10  1  0  0  0  0
  9 11  1  0  0  0  0
  9 22  1  0  0  0  0
  7  8  1  0  0  0  0
  7  9  1  0  0  0  0
 26 27  1  0  0  0  0
 26 28  1  0  0  0  0
 26 29  1  0  0  0  0
 24 25  1  0  0  0  0
 24 26  1  0  0  0  0
M  END
$$$$
default_name
  -OEChem-01062215323D

 29 29  0     1  0  0  0  0  0999 V2000
   -3.6042   -3.5728    1.4576 H   0  0  0  0  0  0  0  0  0  0  0  0
   -3.5202   -2.6488    0.8866 C   0  0  0  0  0  0  0  0  0  0  0  0
   -4.2052   -1.9048    1.2896 H   0  0  0  0  0  0  0  0  0  0  0  0
   -3.7552   -2.8428   -0.1584 H   0  0  0  0  0  0  0  0  0  0  0  0
   -2.1052   -2.1358    0.9946 C   0  0  0  0  0  0  0  0  0  0  0  0
   -1.2852   -2.7288    1.6826 O   0  0  0  0  0  0  0  0  0  0  0  0
   -1.8202   -1.0288    0.3146 N   0  0  0  0  0  0  0  0  0  0  0  0
   -2.5542   -0.5788   -0.2104 H   0  0  0  0  0  0  0  0  0  0  0  0
   -0.5102   -0.3728    0.3086 C   0  0  1  0  0  0  0  0  0  0  0  0
   -0.0067   -0.6062   -0.6307 H   0  0  0  0  0  0  0  0  0  0  0  0
   -0.7090    1.1526    0.3787 C   0  0  0  0  0  0  0  0  0  0  0  0
   -1.2856    1.3971    1.2726 H   0  0  0  0  0  0  0  0  0  0  0  0
    0.2663    1.6348    0.4663 H   0  0  0  0  0  0  0  0  0  0  0  0
   -1.4190    1.7246   -0.8209 C   0  0  0  0  0  0  0  0  0  0  0  0
   -0.8781    1.9166   -2.0741 N   0  0  0  0  0  0  0  0  0  0  0  0
    0.0859    1.7715   -2.3347 H   0  0  0  0  0  0  0  0  0  0  0  0
   -1.8591    2.3372   -2.8902 C   0  0  0  0  0  0  0  0  0  0  0  0
   -1.7403    2.5784   -3.9395 H   0  0  0  0  0  0  0  0  0  0  0  0
   -3.0187    2.4146   -2.2210 N   0  0  0  0  0  0  0  0  0  0  0  0
   -2.7509    2.0318   -0.9041 C   0  0  0  0  0  0  0  0  0  0  0  0
   -3.4729    1.9557   -0.1014 H   0  0  0  0  0  0  0  0  0  0  0  0
    0.3690   -0.8971    1.4566 C   0  0  0  0  0  0  0  0  0  0  0  0
    0.5732   -0.1980    2.4487 O   0  0  0  0  0  0  0  0  0  0  0  0
    0.9023   -2.1171    1.3159 N   0  0  0  0  0  0  0  0  0  0  0  0
    0.7322   -2.6059    0.4493 H   0  0  0  0  0  0  0  0  0  0  0  0
    1.7532   -2.7653    2.3103 C   0  0  0  0  0  0  0  0  0  0  0  0
    1.2070   -2.8729    3.2501 H   0  0  0  0  0  0  0  0  0  0  0  0
    2.0578   -3.7511    1.9576 H   0  0  0  0  0  0  0  0  0  0  0  0
    2.6411   -2.1576    2.4916 H   0  0  0  0  0  0  0  0  0  0  0  0
  5  6  2  0  0  0  0
  5  7  1  0  0  0  0
  2  3  1  0  0  0  0
  2  4  1  0  0  0  0
  2  5  1  0  0  0  0
  1  2  1  0  0  0  0
 22 23  2  0  0  0  0
 22 24  1  0  0  0  0
 20 21  1  0  0  0  0
 19 20  1  0  0  0  0
 17 18  1  0  0  0  0
 17 19  2  0  0  0  0
 15 16  1  0  0  0  0
 15 17  1  0  0  0  0
 14 15  1  0  0  0  0
 14 20  2  0  0  0  0
 11 12  1  0  0  0  0
 11 13  1  0  0  0  0
 11 14  1  0  0  0  0
  9 10  1  0  0  0  0
  9 11  1  0  0  0  0
  9 22  1  0  0  0  0
  7  8  1  0  0  0  0
  7  9  1  0  0  0  0
 26 27  1  0  0  0  0
 26 28  1  0  0  0  0
 26 29  1  0  0  0  0
 24 25  1  0  0  0  0
 24 26  1  0  0  0  0
M  END
$$$$
default_name
  -OEChem-01062215323D

 29 29  0     1  0  0  0  0  0999 V2000
   -3.6042   -3.5728    1.4576 H   0  0  0  0  0  0  0  0  0  0  0  0
   -3.5202   -2.6488    0.8866 C   0  0  0  0  0  0  0  0  0  0  0  0
   -4.2052   -1.9048    1.2896 H   0  0  0  0  0  0  0  0  0  0  0  0
   -3.7552   -2.8428   -0.1584 H   0  0  0  0  0  0  0  0  0  0  0  0
   -2.1052   -2.1358    0.9946 C   0  0  0  0  0  0  0  0  0  0  0  0
   -1.2852   -2.7288    1.6826 O   0  0  0  0  0  0  0  0  0  0  0  0
   -1.8202   -1.0288    0.3146 N   0  0  0  0  0  0  0  0  0  0  0  0
   -2.5542   -0.5788   -0.2104 H   0  0  0  0  0  0  0  0  0  0  0  0
   -0.5102   -0.3728    0.3086 C   0  0  1  0  0  0  0  0  0  0  0  0
   -0.0067   -0.6062   -0.6307 H   0  0  0  0  0  0  0  0  0  0  0  0
   -0.7090    1.1526    0.3787 C   0  0  0  0  0  0  0  0  0  0  0  0
   -1.2856    1.3971    1.2726 H   0  0  0  0  0  0  0  0  0  0  0  0
    0.2663    1.6348    0.4663 H   0  0  0  0  0  0  0  0  0  0  0  0
   -1.4190    1.7246   -0.8209 C   0  0  0  0  0  0  0  0  0  0  0  0
   -0.8781    1.9166   -2.0741 N   0  0  0  0  0  0  0  0  0  0  0  0
    0.0859    1.7715   -2.3347 H   0  0  0  0  0  0  0  0  0  0  0  0
   -1.8591    2.3372   -2.8902 C   0  0  0  0  0  0  0  0  0  0  0  0
   -1.7403    2.5784   -3.9395 H   0  0  0  0  0  0  0  0  0  0  0  0
   -3.0187    2.4146   -2.2210 N   0  0  0  0  0  0  0  0  0  0  0  0
   -2.7509    2.0318   -0.9041 C   0  0  0  0  0  0  0  0  0  0  0  0
   -3.4729    1.9557   -0.1014 H   0  0  0  0  0  0  0  0  0  0  0  0
    0.3690   -0.8971    1.4566 C   0  0  0  0  0  0  0  0  0  0  0  0
    0.3557   -0.3364    2.5521 O   0  0  0  0  0  0  0  0  0  0  0  0
    1.1442   -1.9588    1.2029 N   0  0  0  0  0  0  0  0  0  0  0  0
    1.1395   -2.3289    0.2638 H   0  0  0  0  0  0  0  0  0  0  0  0
    2.0318   -2.5846    2.1795 C   0  0  0  0  0  0  0  0  0  0  0  0
    1.4504   -2.9380    3.0340 H   0  0  0  0  0  0  0  0  0  0  0  0
    2.5524   -3.4286    1.7261 H   0  0  0  0  0  0  0  0  0  0  0  0
    2.7645   -1.8579    2.5340 H   0  0  0  0  0  0  0  0  0  0  0  0
  5  6  2  0  0  0  0
  5  7  1  0  0  0  0
  2  3  1  0  0  0  0
  2  4  1  0  0  0  0
  2  5  1  0  0  0  0
  1  2  1  0  0  0  0
 22 23  2  0  0  0  0
 22 24  1  0  0  0  0
 20 21  1  0  0  0  0
 19 20  1  0  0  0  0
 17 18  1  0  0  0  0
 17 19  2  0  0  0  0
 15 16  1  0  0  0  0
 15 17  1  0  0  0  0
 14 15  1  0  0  0  0
 14 20  2  0  0  0  0
 11 12  1  0  0  0  0
 11 13  1  0  0  0  0
 11 14  1  0  0  0  0
  9 10  1  0  0  0  0
  9 11  1  0  0  0  0
  9 22  1  0  0  0  0
  7  8  1  0  0  0  0
  7  9  1  0  0  0  0
 26 27  1  0  0  0  0
 26 28  1  0  0  0  0
 26 29  1  0  0  0  0
 24 25  1  0  0  0  0
 24 26  1  0  0  0  0
M  END
$$$$
default_name
  -OEChem-01062215323D

 29 29  0     1  0  0  0  0  0999 V2000
   -3.6042   -3.5728    1.4576 H   0  0  0  0  0  0  0  0  0  0  0  0
   -3.5202   -2.6488    0.8866 C   0  0  0  0  0  0  0  0  0  0  0  0
   -4.2052   -1.9048    1.2896 H   0  0  0  0  0  0  0  0  0  0  0  0
   -3.7552   -2.8428   -0.1584 H   0  0  0  0  0  0  0  0  0  0  0  0
   -2.1052   -2.1358    0.9946 C   0  0  0  0  0  0  0  0  0  0  0  0
   -1.2852   -2.7288    1.6826 O   0  0  0  0  0  0  0  0  0  0  0  0
   -1.8202   -1.0288    0.3146 N   0  0  0  0  0  0  0  0  0  0  0  0
   -2.5542   -0.5788   -0.2104 H   0  0  0  0  0  0  0  0  0  0  0  0
   -0.5102   -0.3728    0.3086 C   0  0  1  0  0  0  0  0  0  0  0  0
   -0.0067   -0.6062   -0.6307 H   0  0  0  0  0  0  0  0  0  0  0  0
   -0.7090    1.1526    0.3787 C   0  0  0  0  0  0  0  0  0  0  0  0
   -1.2856    1.3971    1.2726 H   0  0  0  0  0  0  0  0  0  0  0  0
    0.2663    1.6348    0.4663 H   0  0  0  0  0  0  0  0  0  0  0  0
   -1.4190    1.7246   -0.8209 C   0  0  0  0  0  0  0  0  0  0  0  0
   -0.8781    1.9166   -2.0741 N   0  0  0  0  0  0  0  0  0  0  0  0
    0.0859    1.7715   -2.3347 H   0  0  0  0  0  0  0  0  0  0  0  0
   -1.8591    2.3372   -2.8902 C   0  0  0  0  0  0  0  0  0  0  0  0
   -1.7403    2.5784   -3.9395 H   0  0  0  0  0  0  0  0  0  0  0  0
   -3.0187    2.4146   -2.2210 N   0  0  0  0  0  0  0  0  0  0  0  0
   -2.7509    2.0318   -0.9041 C   0  0  0  0  0  0  0  0  0  0  0  0
   -3.4729    1.9557   -0.1014 H   0  0  0  0  0  0  0  0  0  0  0  0
    0.3690   -0.8971    1.4566 C   0  0  0  0  0  0  0  0  0  0  0  0
    0.1632   -0.5273    2.6123 O   0  0  0  0  0  0  0  0  0  0  0  0
    1.3572   -1.7425    1.1386 N   0  0  0  0  0  0  0  0  0  0  0  0
    1.4958   -1.9553    0.1616 H   0  0  0  0  0  0  0  0  0  0  0  0
    2.2776   -2.3368    2.1045 C   0  0  0  0  0  0  0  0  0  0  0  0
    1.7171   -2.9219    2.8371 H   0  0  0  0  0  0  0  0  0  0  0  0
    2.9882   -2.9873    1.5939 H   0  0  0  0  0  0  0  0  0  0  0  0
    2.8221   -1.5509    2.6301 H   0  0  0  0  0  0  0  0  0  0  0  0
  5  6  2  0  0  0  0
  5  7  1  0  0  0  0
  2  3  1  0  0  0  0
  2  4  1  0  0  0  0
  2  5  1  0  0  0  0
  1  2  1  0  0  0  0
 22 23  2  0  0  0  0
 22 24  1  0  0  0  0
 20 21  1  0  0  0  0
 19 20  1  0  0  0  0
 17 18  1  0  0  0  0
 17 19  2  0  0  0  0
 15 16  1  0  0  0  0
 15 17  1  0  0  0  0
 14 15  1  0  0  0  0
 14 20  2  0  0  0  0
 11 12  1  0  0  0  0
 11 13  1  0  0  0  0
 11 14  1  0  0  0  0
  9 10  1  0  0  0  0
  9 11  1  0  0  0  0
  9 22  1  0  0  0  0
  7  8  1  0  0  0  0
  7  9  1  0  0  0  0
 26 27  1  0  0  0  0
 26 28  1  0  0  0  0
 26 29  1  0  0  0  0
 24 25  1  0  0  0  0
 24 26  1  0  0  0  0
M  END
$$$$
default_name
  -OEChem-01062215323D

 29 29  0     1  0  0  0  0  0999 V2000
   -3.6042   -3.5728    1.4576 H   0  0  0  0  0  0  0  0  0  0  0  0
   -3.5202   -2.6488    0.8866 C   0  0  0  0  0  0  0  0  0  0  0  0
   -4.2052   -1.9048    1.2896 H   0  0  0  0  0  0  0  0  0  0  0  0
   -3.7552   -2.8428   -0.1584 H   0  0  0  0  0  0  0  0  0  0  0  0
   -2.1052   -2.1358    0.9946 C   0  0  0  0  0  0  0  0  0  0  0  0
   -1.2852   -2.7288    1.6826 O   0  0  0  0  0  0  0  0  0  0  0  0
   -1.8202   -1.0288    0.3146 N   0  0  0  0  0  0  0  0  0  0  0  0
   -2.5542   -0.5788   -0.2104 H   0  0  0  0  0  0  0  0  0  0  0  0
   -0.5102   -0.3728    0.3086 C   0  0  1  0  0  0  0  0  0  0  0  0
   -0.0067   -0.6062   -0.6307 H   0  0  0  0  0  0  0  0  0  0  0  0
   -0.7090    1.1526    0.3787 C   0  0  0  0  0  0  0  0  0  0  0  0
   -1.2856    1.3971    1.2726 H   0  0  0  0  0  0  0  0  0  0  0  0
    0.2663    1.6348    0.4663 H   0  0  0  0  0  0  0  0  0  0  0  0
   -1.4190    1.7246   -0.8209 C   0  0  0  0  0  0  0  0  0  0  0  0
   -0.8781    1.9166   -2.0741 N   0  0  0  0  0  0  0  0  0  0  0  0
    0.0859    1.7715   -2.3347 H   0  0  0  0  0  0  0  0  0  0  0  0
   -1.8591    2.3372   -2.8902 C   0  0  0  0  0  0  0  0  0  0  0  0
   -1.7403    2.5784   -3.9395 H   0  0  0  0  0  0  0  0  0  0  0  0
   -3.0187    2.4146   -2.2210 N   0  0  0  0  0  0  0  0  0  0  0  0
   -2.7509    2.0318   -0.9041 C   0  0  0  0  0  0  0  0  0  0  0  0
   -3.4729    1.9557   -0.1014 H   0  0  0  0  0  0  0  0  0  0  0  0
    0.3690   -0.8971    1.4566 C   0  0  0  0  0  0  0  0  0  0  0  0
    0.0089   -0.7578    2.6252 O   0  0  0  0  0  0  0  0  0  0  0  0
    1.5269   -1.4829    1.1272 N   0  0  0  0  0  0  0  0  0  0  0  0
    1.7769   -1.5104    0.1496 H   0  0  0  0  0  0  0  0  0  0  0  0
    2.4737   -2.0389    2.0903 C   0  0  0  0  0  0  0  0  0  0  0  0
    1.9890   -2.8256    2.6728 H   0  0  0  0  0  0  0  0  0  0  0  0
    3.3357   -2.4573    1.5699 H   0  0  0  0  0  0  0  0  0  0  0  0
    2.8100   -1.2574    2.7734 H   0  0  0  0  0  0  0  0  0  0  0  0
  5  6  2  0  0  0  0
  5  7  1  0  0  0  0
  2  3  1  0  0  0  0
  2  4  1  0  0  0  0
  2  5  1  0  0  0  0
  1  2  1  0  0  0  0
 22 23  2  0  0  0  0
 22 24  1  0  0  0  0
 20 21  1  0  0  0  0
 19 20  1  0  0  0  0
 17 18  1  0  0  0  0
 17 19  2  0  0  0  0
 15 16  1  0  0  0  0
 15 17  1  0  0  0  0
 14 15  1  0  0  0  0
 14 20  2  0  0  0  0
 11 12  1  0  0  0  0
 11 13  1  0  0  0  0
 11 14  1  0  0  0  0
  9 10  1  0  0  0  0
  9 11  1  0  0  0  0
  9 22  1  0  0  0  0
  7  8  1  0  0  0  0
  7  9  1  0  0  0  0
 26 27  1  0  0  0  0
 26 28  1  0  0  0  0
 26 29  1  0  0  0  0
 24 25  1  0  0  0  0
 24 26  1  0  0  0  0
M  END
$$$$
default_name
  -OEChem-01062215323D

 29 29  0     1  0  0  0  0  0999 V2000
   -3.6042   -3.5728    1.4576 H   0  0  0  0  0  0  0  0  0  0  0  0
   -3.5202   -2.6488    0.8866 C   0  0  0  0  0  0  0  0  0  0  0  0
   -4.2052   -1.9048    1.2896 H   0  0  0  0  0  0  0  0  0  0  0  0
   -3.7552   -2.8428   -0.1584 H   0  0  0  0  0  0  0  0  0  0  0  0
   -2.1052   -2.1358    0.9946 C   0  0  0  0  0  0  0  0  0  0  0  0
   -1.2852   -2.7288    1.6826 O   0  0  0  0  0  0  0  0  0  0  0  0
   -1.8202   -1.0288    0.3146 N   0  0  0  0  0  0  0  0  0  0  0  0
   -2.5542   -0.5788   -0.2104 H   0  0  0  0  0  0  0  0  0  0  0  0
   -0.5102   -0.3728    0.3086 C   0  0  1  0  0  0  0  0  0  0  0  0
   -0.0067   -0.6062   -0.6307 H   0  0  0  0  0  0  0  0  0  0  0  0
   -0.7090    1.1526    0.3787 C   0  0  0  0  0  0  0  0  0  0  0  0
   -1.2856    1.3971    1.2726 H   0  0  0  0  0  0  0  0  0  0  0  0
    0.2663    1.6348    0.4663 H   0  0  0  0  0  0  0  0  0  0  0  0
   -1.4190    1.7246   -0.8209 C   0  0  0  0  0  0  0  0  0  0  0  0
   -0.8781    1.9166   -2.0741 N   0  0  0  0  0  0  0  0  0  0  0  0
    0.0859    1.7715   -2.3347 H   0  0  0  0  0  0  0  0  0  0  0  0
   -1.8591    2.3372   -2.8902 C   0  0  0  0  0  0  0  0  0  0  0  0
   -1.7403    2.5784   -3.9395 H   0  0  0  0  0  0  0  0  0  0  0  0
   -3.0187    2.4146   -2.2210 N   0  0  0  0  0  0  0  0  0  0  0  0
   -2.7509    2.0318   -0.9041 C   0  0  0  0  0  0  0  0  0  0  0  0
   -3.4729    1.9557   -0.1014 H   0  0  0  0  0  0  0  0  0  0  0  0
    0.3690   -0.8971    1.4566 C   0  0  0  0  0  0  0  0  0  0  0  0
   -0.0968   -1.0122    2.5900 O   0  0  0  0  0  0  0  0  0  0  0  0
    1.6417   -1.1977    1.1696 N   0  0  0  0  0  0  0  0  0  0  0  0
    1.9634   -1.0246    0.2286 H   0  0  0  0  0  0  0  0  0  0  0  0
    2.6069   -1.7112    2.1380 C   0  0  0  0  0  0  0  0  0  0  0  0
    2.2476   -2.6559    2.5524 H   0  0  0  0  0  0  0  0  0  0  0  0
    3.5710   -1.8747    1.6558 H   0  0  0  0  0  0  0  0  0  0  0  0
    2.7289   -0.9974    2.9543 H   0  0  0  0  0  0  0  0  0  0  0  0
  5  6  2  0  0  0  0
  5  7  1  0  0  0  0
  2  3  1  0  0  0  0
  2  4  1  0  0  0  0
  2  5  1  0  0  0  0
  1  2  1  0  0  0  0
 22 23  2  0  0  0  0
 22 24  1  0  0  0  0
 20 21  1  0  0  0  0
 19 20  1  0  0  0  0
 17 18  1  0  0  0  0
 17 19  2  0  0  0  0
 15 16  1  0  0  0  0
 15 17  1  0  0  0  0
 14 15  1  0  0  0  0
 14 20  2  0  0  0  0
 11 12  1  0  0  0  0
 11 13  1  0  0  0  0
 11 14  1  0  0  0  0
  9 10  1  0  0  0  0
  9 11  1  0  0  0  0
  9 22  1  0  0  0  0
  7  8  1  0  0  0  0
  7  9  1  0  0  0  0
 26 27  1  0  0  0  0
 26 28  1  0  0  0  0
 26 29  1  0  0  0  0
 24 25  1  0  0  0  0
 24 26  1  0  0  0  0
M  END
$$$$
default_name
  -OEChem-01062215323D

 29 29  0     1  0  0  0  0  0999 V2000
   -3.6042   -3.5728    1.4576 H   0  0  0  0  0  0  0  0  0  0  0  0
   -3.5202   -2.6488    0.8866 C   0  0  0  0  0  0  0  0  0  0  0  0
   -4.2052   -1.9048    1.2896 H   0  0  0  0  0  0  0  0  0  0  0  0
   -3.7552   -2.8428   -0.1584 H   0  0  0  0  0  0  0  0  0  0  0  0
   -2.1052   -2.1358    0.9946 C   0  0  0  0  0  0  0  0  0  0  0  0
   -1.2852   -2.7288    1.6826 O   0  0  0  0  0  0  0  0  0  0  0  0
   -1.8202   -1.0288    0.3146 N   0  0  0  0  0  0  0  0  0  0  0  0
   -2.5542   -0.5788   -0.2104 H   0  0  0  0  0  0  0  0  0  0  0  0
   -0.5102   -0.3728    0.3086 C   0  0  1  0  0  0  0  0  0  0  0  0
   -0.0067   -0.6062   -0.6307 H   0  0  0  0  0  0  0  0  0  0  0  0
   -0.7090    1.1526    0.3787 C   0  0  0  0  0  0  0  0  0  0  0  0
   -1.2856    1.3971    1.2726 H   0  0  0  0  0  0  0  0  0  0  0  0
    0.2663    1.6348    0.4663 H   0  0  0  0  0  0  0  0  0  0  0  0
   -1.4190    1.7246   -0.8209 C   0  0  0  0  0  0  0  0  0  0  0  0
   -0.8781    1.9166   -2.0741 N   0  0  0  0  0  0  0  0  0  0  0  0
    0.0859    1.7715   -2.3347 H   0  0  0  0  0  0  0  0  0  0  0  0
   -1.8591    2.3372   -2.8902 C   0  0  0  0  0  0  0  0  0  0  0  0
   -1.7403    2.5784   -3.9395 H   0  0  0  0  0  0  0  0  0  0  0  0
   -3.0187    2.4146   -2.2210 N   0  0  0  0  0  0  0  0  0  0  0  0
   -2.7509    2.0318   -0.9041 C   0  0  0  0  0  0  0  0  0  0  0  0
   -3.4729    1.9557   -0.1014 H   0  0  0  0  0  0  0  0  0  0  0  0
    0.3690   -0.8971    1.4566 C   0  0  0  0  0  0  0  0  0  0  0  0
   -0.1466   -1.2731    2.5090 O   0  0  0  0  0  0  0  0  0  0  0  0
    1.6937   -0.9063    1.2629 N   0  0  0  0  0  0  0  0  0  0  0  0
    2.0428   -0.5310    0.3932 H   0  0  0  0  0  0  0  0  0  0  0  0
    2.6680   -1.3759    2.2444 C   0  0  0  0  0  0  0  0  0  0  0  0
    2.4751   -2.4241    2.4839 H   0  0  0  0  0  0  0  0  0  0  0  0
    3.6782   -1.2791    1.8457 H   0  0  0  0  0  0  0  0  0  0  0  0
    2.5845   -0.7887    3.1602 H   0  0  0  0  0  0  0  0  0  0  0  0
  5  6  2  0  0  0  0
  5  7  1  0  0  0  0
  2  3  1  0  0  0  0
  2  4  1  0  0  0  0
  2  5  1  0  0  0  0
  1  2  1  0  0  0  0
 22 23  2  0  0  0  0
 22 24  1  0  0  0  0
 20 21  1  0  0  0  0
 19 20  1  0  0  0  0
 17 18  1  0  0  0  0
 17 19  2  0  0  0  0
 15 16  1  0  0  0  0
 15 17  1  0  0  0  0
 14 15  1  0  0  0  0
 14 20  2  0  0  0  0
 11 12  1  0  0  0  0
 11 13  1  0  0  0  0
 11 14  1  0  0  0  0
  9 10  1  0  0  0  0
  9 11  1  0  0  0  0
  9 22  1  0  0  0  0
  7  8  1  0  0  0  0
  7  9  1  0  0  0  0
 26 27  1  0  0  0  0
 26 28  1  0  0  0  0
 26 29  1  0  0  0  0
 24 25  1  0  0  0  0
 24 26  1  0  0  0  0
M  END
$$$$
default_name
  -OEChem-01062215323D

 29 29  0     1  0  0  0  0  0999 V2000
   -3.6042   -3.5728    1.4576 H   0  0  0  0  0  0  0  0  0  0  0  0
   -3.5202   -2.6488    0.8866 C   0  0  0  0  0  0  0  0  0  0  0  0
   -4.2052   -1.9048    1.2896 H   0  0  0  0  0  0  0  0  0  0  0  0
   -3.7552   -2.8428   -0.1584 H   0  0  0  0  0  0  0  0  0  0  0  0
   -2.1052   -2.1358    0.9946 C   0  0  0  0  0  0  0  0  0  0  0  0
   -1.2852   -2.7288    1.6826 O   0  0  0  0  0  0  0  0  0  0  0  0
   -1.8202   -1.0288    0.3146 N   0  0  0  0  0  0  0  0  0  0  0  0
   -2.5542   -0.5788   -0.2104 H   0  0  0  0  0  0  0  0  0  0  0  0
   -0.5102   -0.3728    0.3086 C   0  0  1  0  0  0  0  0  0  0  0  0
   -0.0067   -0.6062   -0.6307 H   0  0  0  0  0  0  0  0  0  0  0  0
   -0.7090    1.1526    0.3787 C   0  0  0  0  0  0  0  0  0  0  0  0
   -1.2856    1.3971    1.2726 H   0  0  0  0  0  0  0  0  0  0  0  0
    0.2663    1.6348    0.4663 H   0  0  0  0  0  0  0  0  0  0  0  0
   -1.4190    1.7246   -0.8209 C   0  0  0  0  0  0  0  0  0  0  0  0
   -0.8781    1.9166   -2.0741 N   0  0  0  0  0  0  0  0  0  0  0  0
    0.0859    1.7715   -2.3347 H   0  0  0  0  0  0  0  0  0  0  0  0
   -1.8591    2.3372   -2.8902 C   0  0  0  0  0  0  0  0  0  0  0  0
   -1.7403    2.5784   -3.9395 H   0  0  0  0  0  0  0  0  0  0  0  0
   -3.0187    2.4146   -2.2210 N   0  0  0  0  0  0  0  0  0  0  0  0
   -2.7509    2.0318   -0.9041 C   0  0  0  0  0  0  0  0  0  0  0  0
   -3.4729    1.9557   -0.1014 H   0  0  0  0  0  0  0  0  0  0  0  0
    0.3690   -0.8971    1.4566 C   0  0  0  0  0  0  0  0  0  0  0  0
   -0.1372   -1.5228    2.3877 O   0  0  0  0  0  0  0  0  0  0  0  0
    1.6794   -0.6286    1.4007 N   0  0  0  0  0  0  0  0  0  0  0  0
    2.0096   -0.0633    0.6323 H   0  0  0  0  0  0  0  0  0  0  0  0
    2.6528   -1.0561    2.4021 C   0  0  0  0  0  0  0  0  0  0  0  0
    2.6562   -2.1461    2.4722 H   0  0  0  0  0  0  0  0  0  0  0  0
    3.6500   -0.7113    2.1267 H   0  0  0  0  0  0  0  0  0  0  0  0
    2.3864   -0.6456    3.3773 H   0  0  0  0  0  0  0  0  0  0  0  0
  5  6  2  0  0  0  0
  5  7  1  0  0  0  0
  2  3  1  0  0  0  0
  2  4  1  0  0  0  0
  2  5  1  0  0  0  0
  1  2  1  0  0  0  0
 22 23  2  0  0  0  0
 22 24  1  0  0  0  0
 20 21  1  0  0  0  0
 19 20  1  0  0  0  0
 17 18  1  0  0  0  0
 17 19  2  0  0  0  0
 15 16  1  0  0  0  0
 15 17  1  0  0  0  0
 14 15  1  0  0  0  0
 14 20  2  0  0  0  0
 11 12  1  0  0  0  0
 11 13  1  0  0  0  0
 11 14  1  0  0  0  0
  9 10  1  0  0  0  0
  9 11  1  0  0  0  0
  9 22  1  0  0  0  0
  7  8  1  0  0  0  0
  7  9  1  0  0  0  0
 26 27  1  0  0  0  0
 26 28  1  0  0  0  0
 26 29  1  0  0  0  0
 24 25  1  0  0  0  0
 24 26  1  0  0  0  0
M  END
$$$$
default_name
  -OEChem-01062215323D

 29 29  0     1  0  0  0  0  0999 V2000
   -3.6042   -3.5728    1.4576 H   0  0  0  0  0  0  0  0  0  0  0  0
   -3.5202   -2.6488    0.8866 C   0  0  0  0  0  0  0  0  0  0  0  0
   -4.2052   -1.9048    1.2896 H   0  0  0  0  0  0  0  0  0  0  0  0
   -3.7552   -2.8428   -0.1584 H   0  0  0  0  0  0  0  0  0  0  0  0
   -2.1052   -2.1358    0.9946 C   0  0  0  0  0  0  0  0  0  0  0  0
   -1.2852   -2.7288    1.6826 O   0  0  0  0  0  0  0  0  0  0  0  0
   -1.8202   -1.0288    0.3146 N   0  0  0  0  0  0  0  0  0  0  0  0
   -2.5542   -0.5788   -0.2104 H   0  0  0  0  0  0  0  0  0  0  0  0
   -0.5102   -0.3728    0.3086 C   0  0  1  0  0  0  0  0  0  0  0  0
   -0.1224   -0.3761   -0.7111 H   0  0  0  0  0  0  0  0  0  0  0  0
   -0.6771    1.0923    0.7523 C   0  0  0  0  0  0  0  0  0  0  0  0
   -1.1427    1.1160    1.7391 H   0  0  0  0  0  0  0  0  0  0  0  0
    0.3088    1.5534    0.8353 H   0  0  0  0  0  0  0  0  0  0  0  0
   -1.5127    1.9175   -0.1918 C   0  0  0  0  0  0  0  0  0  0  0  0
   -1.1177    2.4012   -1.4206 N   0  0  0  0  0  0  0  0  0  0  0  0
   -0.1926    2.3325   -1.8177 H   0  0  0  0  0  0  0  0  0  0  0  0
   -2.1804    2.9869   -1.9977 C   0  0  0  0  0  0  0  0  0  0  0  0
   -2.1803    3.4659   -2.9692 H   0  0  0  0  0  0  0  0  0  0  0  0
   -3.2534    2.8927   -1.1989 N   0  0  0  0  0  0  0  0  0  0  0  0
   -2.8406    2.2188   -0.0465 C   0  0  0  0  0  0  0  0  0  0  0  0
   -3.4659    1.9499    0.7950 H   0  0  0  0  0  0  0  0  0  0  0  0
    0.4881   -1.1375    1.1942 C   0  0  0  0  0  0  0  0  0  0  0  0
    0.1305   -2.1471    1.8005 O   0  0  0  0  0  0  0  0  0  0  0  0
    1.7317   -0.6494    1.2832 N   0  0  0  0  0  0  0  0  0  0  0  0
    1.9323    0.2133    0.7991 H   0  0  0  0  0  0  0  0  0  0  0  0
    2.8009   -1.2543    2.0731 C   0  0  0  0  0  0  0  0  0  0  0  0
    2.9902   -2.2710    1.7215 H   0  0  0  0  0  0  0  0  0  0  0  0
    3.7146   -0.6665    1.9795 H   0  0  0  0  0  0  0  0  0  0  0  0
    2.5071   -1.2983    3.1230 H   0  0  0  0  0  0  0  0  0  0  0  0
  5  6  2  0  0  0  0
  5  7  1  0  0  0  0
  2  3  1  0  0  0  0
  2  4  1  0  0  0  0
  2  5  1  0  0  0  0
  1  2  1  0  0  0  0
 22 23  2  0  0  0  0
 22 24  1  0  0  0  0
 20 21  1  0  0  0  0
 19 20  1  0  0  0  0
 17 18  1  0  0  0  0
 17 19  2  0  0  0  0
 15 16  1  0  0  0  0
 15 17  1  0  0  0  0
 14 15  1  0  0  0  0
 14 20  2  0  0  0  0
 11 12  1  0  0  0  0
 11 13  1  0  0  0  0
 11 14  1  0  0  0  0
  9 10  1  0  0  0  0
  9 11  1  0  0  0  0
  9 22  1  0  0  0  0
  7  8  1  0  0  0  0
  7  9  1  0  0  0  0
 26 27  1  0  0  0  0
 26 28  1  0  0  0  0
 26 29  1  0  0  0  0
 24 25  1  0  0  0  0
 24 26  1  0  0  0  0
M  END
$$$$
default_name
  -OEChem-01062215323D

 29 29  0     1  0  0  0  0  0999 V2000
   -3.6042   -3.5728    1.4576 H   0  0  0  0  0  0  0  0  0  0  0  0
   -3.5202   -2.6488    0.8866 C   0  0  0  0  0  0  0  0  0  0  0  0
   -4.2052   -1.9048    1.2896 H   0  0  0  0  0  0  0  0  0  0  0  0
   -3.7552   -2.8428   -0.1584 H   0  0  0  0  0  0  0  0  0  0  0  0
   -2.1052   -2.1358    0.9946 C   0  0  0  0  0  0  0  0  0  0  0  0
   -1.2852   -2.7288    1.6826 O   0  0  0  0  0  0  0  0  0  0  0  0
   -1.8202   -1.0288    0.3146 N   0  0  0  0  0  0  0  0  0  0  0  0
   -2.5542   -0.5788   -0.2104 H   0  0  0  0  0  0  0  0  0  0  0  0
   -0.5102   -0.3728    0.3086 C   0  0  1  0  0  0  0  0  0  0  0  0
   -0.1224   -0.3761   -0.7111 H   0  0  0  0  0  0  0  0  0  0  0  0
   -0.6771    1.0923    0.7523 C   0  0  0  0  0  0  0  0  0  0  0  0
   -1.1427    1.1160    1.7391 H   0  0  0  0  0  0  0  0  0  0  0  0
    0.3088    1.5534    0.8353 H   0  0  0  0  0  0  0  0  0  0  0  0
   -1.5127    1.9175   -0.1918 C   0  0  0  0  0  0  0  0  0  0  0  0
   -1.1177    2.4012   -1.4206 N   0  0  0  0  0  0  0  0  0  0  0  0
   -0.1926    2.3325   -1.8177 H   0  0  0  0  0  0  0  0  0  0  0  0
   -2.1804    2.9869   -1.9977 C   0  0  0  0  0  0  0  0  0  0  0  0
   -2.1803    3.4659   -2.9692 H   0  0  0  0  0  0  0  0  0  0  0  0
   -3.2534    2.8927   -1.1989 N   0  0  0  0  0  0  0  0  0  0  0  0
   -2.8406    2.2188   -0.0465 C   0  0  0  0  0  0  0  0  0  0  0  0
   -3.4659    1.9499    0.7950 H   0  0  0  0  0  0  0  0  0  0  0  0
    0.4881   -1.1375    1.1942 C   0  0  0  0  0  0  0  0  0  0  0  0
    0.2288   -2.2783    1.5763 O   0  0  0  0  0  0  0  0  0  0  0  0
    1.6187   -0.5062    1.5343 N   0  0  0  0  0  0  0  0  0  0  0  0
    1.7335    0.4482    1.2261 H   0  0  0  0  0  0  0  0  0  0  0  0
    2.6721   -1.0883    2.3617 C   0  0  0  0  0  0  0  0  0  0  0  0
    3.0610   -1.9903    1.8840 H   0  0  0  0  0  0  0  0  0  0  0  0
    3.4845   -0.3729    2.4924 H   0  0  0  0  0  0  0  0  0  0  0  0
    2.2694   -1.3584    3.3391 H   0  0  0  0  0  0  0  0  0  0  0  0
  5  6  2  0  0  0  0
  5  7  1  0  0  0  0
  2  3  1  0  0  0  0
  2  4  1  0  0  0  0
  2  5  1  0  0  0  0
  1  2  1  0  0  0  0
 22 23  2  0  0  0  0
 22 24  1  0  0  0  0
 20 21  1  0  0  0  0
 19 20  1  0  0  0  0
 17 18  1  0  0  0  0
 17 19  2  0  0  0  0
 15 16  1  0  0  0  0
 15 17  1  0  0  0  0
 14 15  1  0  0  0  0
 14 20  2  0  0  0  0
 11 12  1  0  0  0  0
 11 13  1  0  0  0  0
 11 14  1  0  0  0  0
  9 10  1  0  0  0  0
  9 11  1  0  0  0  0
  9 22  1  0  0  0  0
  7  8  1  0  0  0  0
  7  9  1  0  0  0  0
 26 27  1  0  0  0  0
 26 28  1  0  0  0  0
 26 29  1  0  0  0  0
 24 25  1  0  0  0  0
 24 26  1  0  0  0  0
M  END
$$$$
default_name
  -OEChem-01062215323D

 29 29  0     1  0  0  0  0  0999 V2000
   -3.6042   -3.5728    1.4576 H   0  0  0  0  0  0  0  0  0  0  0  0
   -3.5202   -2.6488    0.8866 C   0  0  0  0  0  0  0  0  0  0  0  0
   -4.2052   -1.9048    1.2896 H   0  0  0  0  0  0  0  0  0  0  0  0
   -3.7552   -2.8428   -0.1584 H   0  0  0  0  0  0  0  0  0  0  0  0
   -2.1052   -2.1358    0.9946 C   0  0  0  0  0  0  0  0  0  0  0  0
   -1.2852   -2.7288    1.6826 O   0  0  0  0  0  0  0  0  0  0  0  0
   -1.8202   -1.0288    0.3146 N   0  0  0  0  0  0  0  0  0  0  0  0
   -2.5542   -0.5788   -0.2104 H   0  0  0  0  0  0  0  0  0  0  0  0
   -0.5102   -0.3728    0.3086 C   0  0  1  0  0  0  0  0  0  0  0  0
   -0.1224   -0.3761   -0.7111 H   0  0  0  0  0  0  0  0  0  0  0  0
   -0.6771    1.0923    0.7523 C   0  0  0  0  0  0  0  0  0  0  0  0
   -1.1427    1.1160    1.7391 H   0  0  0  0  0  0  0  0  0  0  0  0
    0.3088    1.5534    0.8353 H   0  0  0  0  0  0  0  0  0  0  0  0
   -1.5127    1.9175   -0.1918 C   0  0  0  0  0  0  0  0  0  0  0  0
   -1.1177    2.4012   -1.4206 N   0  0  0  0  0  0  0  0  0  0  0  0
   -0.1926    2.3325   -1.8177 H   0  0  0  0  0  0  0  0  0  0  0  0
   -2.1804    2.9869   -1.9977 C   0  0  0  0  0  0  0  0  0  0  0  0
   -2.1803    3.4659   -2.9692 H   0  0  0  0  0  0  0  0  0  0  0  0
   -3.2534    2.8927   -1.1989 N   0  0  0  0  0  0  0  0  0  0  0  0
   -2.8406    2.2188   -0.0465 C   0  0  0  0  0  0  0  0  0  0  0  0
   -3.4659    1.9499    0.7950 H   0  0  0  0  0  0  0  0  0  0  0  0
    0.4881   -1.1375    1.1942 C   0  0  0  0  0  0  0  0  0  0  0  0
    0.3722   -2.3528    1.3504 O   0  0  0  0  0  0  0  0  0  0  0  0
    1.4560   -0.4268    1.7863 N   0  0  0  0  0  0  0  0  0  0  0  0
    1.4515    0.5737    1.6524 H   0  0  0  0  0  0  0  0  0  0  0  0
    2.4858   -0.9957    2.6517 C   0  0  0  0  0  0  0  0  0  0  0  0
    3.0668   -1.7360    2.0971 H   0  0  0  0  0  0  0  0  0  0  0  0
    3.1526   -0.2097    3.0076 H   0  0  0  0  0  0  0  0  0  0  0  0
    2.0209   -1.4882    3.5072 H   0  0  0  0  0  0  0  0  0  0  0  0
  5  6  2  0  0  0  0
  5  7  1  0  0  0  0
  2  3  1  0  0  0  0
  2  4  1  0  0  0  0
  2  5  1  0  0  0  0
  1  2  1  0  0  0  0
 22 23  2  0  0  0  0
 22 24  1  0  0  0  0
 20 21  1  0  0  0  0
 19 20  1  0  0  0  0
 17 18  1  0  0  0  0
 17 19  2  0  0  0  0
 15 16  1  0  0  0  0
 15 17  1  0  0  0  0
 14 15  1  0  0  0  0
 14 20  2  0  0  0  0
 11 12  1  0  0  0  0
 11 13  1  0  0  0  0
 11 14  1  0  0  0  0
  9 10  1  0  0  0  0
  9 11  1  0  0  0  0
  9 22  1  0  0  0  0
  7  8  1  0  0  0  0
  7  9  1  0  0  0  0
 26 27  1  0  0  0  0
 26 28  1  0  0  0  0
 26 29  1  0  0  0  0
 24 25  1  0  0  0  0
 24 26  1  0  0  0  0
M  END
$$$$
default_name
  -OEChem-01062215323D

 29 29  0     1  0  0  0  0  0999 V2000
   -3.6042   -3.5728    1.4576 H   0  0  0  0  0  0  0  0  0  0  0  0
   -3.5202   -2.6488    0.8866 C   0  0  0  0  0  0  0  0  0  0  0  0
   -4.2052   -1.9048    1.2896 H   0  0  0  0  0  0  0  0  0  0  0  0
   -3.7552   -2.8428   -0.1584 H   0  0  0  0  0  0  0  0  0  0  0  0
   -2.1052   -2.1358    0.9946 C   0  0  0  0  0  0  0  0  0  0  0  0
   -1.2852   -2.7288    1.6826 O   0  0  0  0  0  0  0  0  0  0  0  0
   -1.8202   -1.0288    0.3146 N   0  0  0  0  0  0  0  0  0  0  0  0
   -2.5542   -0.5788   -0.2104 H   0  0  0  0  0  0  0  0  0  0  0  0
   -0.5102   -0.3728    0.3086 C   0  0  1  0  0  0  0  0  0  0  0  0
   -0.1224   -0.3761   -0.7111 H   0  0  0  0  0  0  0  0  0  0  0  0
   -0.6771    1.0923    0.7523 C   0  0  0  0  0  0  0  0  0  0  0  0
   -1.1427    1.1160    1.7391 H   0  0  0  0  0  0  0  0  0  0  0  0
    0.3088    1.5534    0.8353 H   0  0  0  0  0  0  0  0  0  0  0  0
   -1.5127    1.9175   -0.1918 C   0  0  0  0  0  0  0  0  0  0  0  0
   -1.1177    2.4012   -1.4206 N   0  0  0  0  0  0  0  0  0  0  0  0
   -0.1926    2.3325   -1.8177 H   0  0  0  0  0  0  0  0  0  0  0  0
   -2.1804    2.9869   -1.9977 C   0  0  0  0  0  0  0  0  0  0  0  0
   -2.1803    3.4659   -2.9692 H   0  0  0  0  0  0  0  0  0  0  0  0
   -3.2534    2.8927   -1.1989 N   0  0  0  0  0  0  0  0  0  0  0  0
   -2.8406    2.2188   -0.0465 C   0  0  0  0  0  0  0  0  0  0  0  0
   -3.4659    1.9499    0.7950 H   0  0  0  0  0  0  0  0  0  0  0  0
    0.4881   -1.1375    1.1942 C   0  0  0  0  0  0  0  0  0  0  0  0
    0.5508   -2.3654    1.1381 O   0  0  0  0  0  0  0  0  0  0  0  0
    1.2545   -0.4167    2.0222 N   0  0  0  0  0  0  0  0  0  0  0  0
    1.1056    0.5814    2.0490 H   0  0  0  0  0  0  0  0  0  0  0  0
    2.2547   -0.9827    2.9235 C   0  0  0  0  0  0  0  0  0  0  0  0
    3.0070   -1.5252    2.3465 H   0  0  0  0  0  0  0  0  0  0  0  0
    2.7413   -0.1881    3.4899 H   0  0  0  0  0  0  0  0  0  0  0  0
    1.7786   -1.6788    3.6158 H   0  0  0  0  0  0  0  0  0  0  0  0
  5  6  2  0  0  0  0
  5  7  1  0  0  0  0
  2  3  1  0  0  0  0
  2  4  1  0  0  0  0
  2  5  1  0  0  0  0
  1  2  1  0  0  0  0
 22 23  2  0  0  0  0
 22 24  1  0  0  0  0
 20 21  1  0  0  0  0
 19 20  1  0  0  0  0
 17 18  1  0  0  0  0
 17 19  2  0  0  0  0
 15 16  1  0  0  0  0
 15 17  1  0  0  0  0
 14 15  1  0  0  0  0
 14 20  2  0  0  0  0
 11 12  1  0  0  0  0
 11 13  1  0  0  0  0
 11 14  1  0  0  0  0
  9 10  1  0  0  0  0
  9 11  1  0  0  0  0
  9 22  1  0  0  0  0
  7  8  1  0  0  0  0
  7  9  1  0  0  0  0
 26 27  1  0  0  0  0
 26 28  1  0  0  0  0
 26 29  1  0  0  0  0
 24 25  1  0  0  0  0
 24 26  1  0  0  0  0
M  END
$$$$
default_name
  -OEChem-01062215323D

 29 29  0     1  0  0  0  0  0999 V2000
   -3.6042   -3.5728    1.4576 H   0  0  0  0  0  0  0  0  0  0  0  0
   -3.5202   -2.6488    0.8866 C   0  0  0  0  0  0  0  0  0  0  0  0
   -4.2052   -1.9048    1.2896 H   0  0  0  0  0  0  0  0  0  0  0  0
   -3.7552   -2.8428   -0.1584 H   0  0  0  0  0  0  0  0  0  0  0  0
   -2.1052   -2.1358    0.9946 C   0  0  0  0  0  0  0  0  0  0  0  0
   -1.2852   -2.7288    1.6826 O   0  0  0  0  0  0  0  0  0  0  0  0
   -1.8202   -1.0288    0.3146 N   0  0  0  0  0  0  0  0  0  0  0  0
   -2.5542   -0.5788   -0.2104 H   0  0  0  0  0  0  0  0  0  0  0  0
   -0.5102   -0.3728    0.3086 C   0  0  1  0  0  0  0  0  0  0  0  0
   -0.1224   -0.3761   -0.7111 H   0  0  0  0  0  0  0  0  0  0  0  0
   -0.6771    1.0923    0.7523 C   0  0  0  0  0  0  0  0  0  0  0  0
   -1.1427    1.1160    1.7391 H   0  0  0  0  0  0  0  0  0  0  0  0
    0.3088    1.5534    0.8353 H   0  0  0  0  0  0  0  0  0  0  0  0
   -1.5127    1.9175   -0.1918 C   0  0  0  0  0  0  0  0  0  0  0  0
   -1.1177    2.4012   -1.4206 N   0  0  0  0  0  0  0  0  0  0  0  0
   -0.1926    2.3325   -1.8177 H   0  0  0  0  0  0  0  0  0  0  0  0
   -2.1804    2.9869   -1.9977 C   0  0  0  0  0  0  0  0  0  0  0  0
   -2.1803    3.4659   -2.9692 H   0  0  0  0  0  0  0  0  0  0  0  0
   -3.2534    2.8927   -1.1989 N   0  0  0  0  0  0  0  0  0  0  0  0
   -2.8406    2.2188   -0.0465 C   0  0  0  0  0  0  0  0  0  0  0  0
   -3.4659    1.9499    0.7950 H   0  0  0  0  0  0  0  0  0  0  0  0
    0.4881   -1.1375    1.1942 C   0  0  0  0  0  0  0  0  0  0  0  0
    0.7525   -2.3153    0.9540 O   0  0  0  0  0  0  0  0  0  0  0  0
    1.0280   -0.4766    2.2257 N   0  0  0  0  0  0  0  0  0  0  0  0
    0.7193    0.4705    2.3888 H   0  0  0  0  0  0  0  0  0  0  0  0
    1.9946   -1.0502    3.1584 C   0  0  0  0  0  0  0  0  0  0  0  0
    2.8858   -1.3725    2.6151 H   0  0  0  0  0  0  0  0  0  0  0  0
    2.2788   -0.3096    3.9065 H   0  0  0  0  0  0  0  0  0  0  0  0
    1.5589   -1.9172    3.6575 H   0  0  0  0  0  0  0  0  0  0  0  0
  5  6  2  0  0  0  0
  5  7  1  0  0  0  0
  2  3  1  0  0  0  0
  2  4  1  0  0  0  0
  2  5  1  0  0  0  0
  1  2  1  0  0  0  0
 22 23  2  0  0  0  0
 22 24  1  0  0  0  0
 20 21  1  0  0  0  0
 19 20  1  0  0  0  0
 17 18  1  0  0  0  0
 17 19  2  0  0  0  0
 15 16  1  0  0  0  0
 15 17  1  0  0  0  0
 14 15  1  0  0  0  0
 14 20  2  0  0  0  0
 11 12  1  0  0  0  0
 11 13  1  0  0  0  0
 11 14  1  0  0  0  0
  9 10  1  0  0  0  0
  9 11  1  0  0  0  0
  9 22  1  0  0  0  0
  7  8  1  0  0  0  0
  7  9  1  0  0  0  0
 26 27  1  0  0  0  0
 26 28  1  0  0  0  0
 26 29  1  0  0  0  0
 24 25  1  0  0  0  0
 24 26  1  0  0  0  0
M  END
$$$$
default_name
  -OEChem-01062215323D

 29 29  0     1  0  0  0  0  0999 V2000
   -3.6042   -3.5728    1.4576 H   0  0  0  0  0  0  0  0  0  0  0  0
   -3.5202   -2.6488    0.8866 C   0  0  0  0  0  0  0  0  0  0  0  0
   -4.2052   -1.9048    1.2896 H   0  0  0  0  0  0  0  0  0  0  0  0
   -3.7552   -2.8428   -0.1584 H   0  0  0  0  0  0  0  0  0  0  0  0
   -2.1052   -2.1358    0.9946 C   0  0  0  0  0  0  0  0  0  0  0  0
   -1.2852   -2.7288    1.6826 O   0  0  0  0  0  0  0  0  0  0  0  0
   -1.8202   -1.0288    0.3146 N   0  0  0  0  0  0  0  0  0  0  0  0
   -2.5542   -0.5788   -0.2104 H   0  0  0  0  0  0  0  0  0  0  0  0
   -0.5102   -0.3728    0.3086 C   0  0  1  0  0  0  0  0  0  0  0  0
   -0.1224   -0.3761   -0.7111 H   0  0  0  0  0  0  0  0  0  0  0  0
   -0.6771    1.0923    0.7523 C   0  0  0  0  0  0  0  0  0  0  0  0
   -1.1427    1.1160    1.7391 H   0  0  0  0  0  0  0  0  0  0  0  0
    0.3088    1.5534    0.8353 H   0  0  0  0  0  0  0  0  0  0  0  0
   -1.5127    1.9175   -0.1918 C   0  0  0  0  0  0  0  0  0  0  0  0
   -1.1177    2.4012   -1.4206 N   0  0  0  0  0  0  0  0  0  0  0  0
   -0.1926    2.3325   -1.8177 H   0  0  0  0  0  0  0  0  0  0  0  0
   -2.1804    2.9869   -1.9977 C   0  0  0  0  0  0  0  0  0  0  0  0
   -2.1803    3.4659   -2.9692 H   0  0  0  0  0  0  0  0  0  0  0  0
   -3.2534    2.8927   -1.1989 N   0  0  0  0  0  0  0  0  0  0  0  0
   -2.8406    2.2188   -0.0465 C   0  0  0  0  0  0  0  0  0  0  0  0
   -3.4659    1.9499    0.7950 H   0  0  0  0  0  0  0  0  0  0  0  0
    0.4881   -1.1375    1.1942 C   0  0  0  0  0  0  0  0  0  0  0  0
    0.9636   -2.2059    0.8105 O   0  0  0  0  0  0  0  0  0  0  0  0
    0.7920   -0.6024    2.3832 N   0  0  0  0  0  0  0  0  0  0  0  0
    0.3189    0.2488    2.6488 H   0  0  0  0  0  0  0  0  0  0  0  0
    1.7232   -1.1937    3.3405 C   0  0  0  0  0  0  0  0  0  0  0  0
    2.7113   -1.2881    2.8847 H   0  0  0  0  0  0  0  0  0  0  0  0
    1.7965   -0.5658    4.2289 H   0  0  0  0  0  0  0  0  0  0  0  0
    1.3770   -2.1873    3.6294 H   0  0  0  0  0  0  0  0  0  0  0  0
  5  6  2  0  0  0  0
  5  7  1  0  0  0  0
  2  3  1  0  0  0  0
  2  4  1  0  0  0  0
  2  5  1  0  0  0  0
  1  2  1  0  0  0  0
 22 23  2  0  0  0  0
 22 24  1  0  0  0  0
 20 21  1  0  0  0  0
 19 20  1  0  0  0  0
 17 18  1  0  0  0  0
 17 19  2  0  0  0  0
 15 16  1  0  0  0  0
 15 17  1  0  0  0  0
 14 15  1  0  0  0  0
 14 20  2  0  0  0  0
 11 12  1  0  0  0  0
 11 13  1  0  0  0  0
 11 14  1  0  0  0  0
  9 10  1  0  0  0  0
  9 11  1  0  0  0  0
  9 22  1  0  0  0  0
  7  8  1  0  0  0  0
  7  9  1  0  0  0  0
 26 27  1  0  0  0  0
 26 28  1  0  0  0  0
 26 29  1  0  0  0  0
 24 25  1  0  0  0  0
 24 26  1  0  0  0  0
M  END
$$$$
default_name
  -OEChem-01062215323D

 29 29  0     1  0  0  0  0  0999 V2000
   -3.6042   -3.5728    1.4576 H   0  0  0  0  0  0  0  0  0  0  0  0
   -3.5202   -2.6488    0.8866 C   0  0  0  0  0  0  0  0  0  0  0  0
   -4.2052   -1.9048    1.2896 H   0  0  0  0  0  0  0  0  0  0  0  0
   -3.7552   -2.8428   -0.1584 H   0  0  0  0  0  0  0  0  0  0  0  0
   -2.1052   -2.1358    0.9946 C   0  0  0  0  0  0  0  0  0  0  0  0
   -1.2852   -2.7288    1.6826 O   0  0  0  0  0  0  0  0  0  0  0  0
   -1.8202   -1.0288    0.3146 N   0  0  0  0  0  0  0  0  0  0  0  0
   -2.5542   -0.5788   -0.2104 H   0  0  0  0  0  0  0  0  0  0  0  0
   -0.5102   -0.3728    0.3086 C   0  0  1  0  0  0  0  0  0  0  0  0
   -0.1224   -0.3761   -0.7111 H   0  0  0  0  0  0  0  0  0  0  0  0
   -0.6771    1.0923    0.7523 C   0  0  0  0  0  0  0  0  0  0  0  0
   -1.1427    1.1160    1.7391 H   0  0  0  0  0  0  0  0  0  0  0  0
    0.3088    1.5534    0.8353 H   0  0  0  0  0  0  0  0  0  0  0  0
   -1.5127    1.9175   -0.1918 C   0  0  0  0  0  0  0  0  0  0  0  0
   -1.1177    2.4012   -1.4206 N   0  0  0  0  0  0  0  0  0  0  0  0
   -0.1926    2.3325   -1.8177 H   0  0  0  0  0  0  0  0  0  0  0  0
   -2.1804    2.9869   -1.9977 C   0  0  0  0  0  0  0  0  0  0  0  0
   -2.1803    3.4659   -2.9692 H   0  0  0  0  0  0  0  0  0  0  0  0
   -3.2534    2.8927   -1.1989 N   0  0  0  0  0  0  0  0  0  0  0  0
   -2.8406    2.2188   -0.0465 C   0  0  0  0  0  0  0  0  0  0  0  0
   -3.4659    1.9499    0.7950 H   0  0  0  0  0  0  0  0  0  0  0  0
    0.4881   -1.1375    1.1942 C   0  0  0  0  0  0  0  0  0  0  0  0
    1.1697   -2.0447    0.7174 O   0  0  0  0  0  0  0  0  0  0  0  0
    0.5625   -0.7855    2.4838 N   0  0  0  0  0  0  0  0  0  0  0  0
   -0.0683   -0.0686    2.8111 H   0  0  0  0  0  0  0  0  0  0  0  0
    1.4589   -1.4033    3.4574 C   0  0  0  0  0  0  0  0  0  0  0  0
    2.4956   -1.2779    3.1367 H   0  0  0  0  0  0  0  0  0  0  0  0
    1.3273   -0.9393    4.4353 H   0  0  0  0  0  0  0  0  0  0  0  0
    1.2451   -2.4706    3.5335 H   0  0  0  0  0  0  0  0  0  0  0  0
  5  6  2  0  0  0  0
  5  7  1  0  0  0  0
  2  3  1  0  0  0  0
  2  4  1  0  0  0  0
  2  5  1  0  0  0  0
  1  2  1  0  0  0  0
 22 23  2  0  0  0  0
 22 24  1  0  0  0  0
 20 21  1  0  0  0  0
 19 20  1  0  0  0  0
 17 18  1  0  0  0  0
 17 19  2  0  0  0  0
 15 16  1  0  0  0  0
 15 17  1  0  0  0  0
 14 15  1  0  0  0  0
 14 20  2  0  0  0  0
 11 12  1  0  0  0  0
 11 13  1  0  0  0  0
 11 14  1  0  0  0  0
  9 10  1  0  0  0  0
  9 11  1  0  0  0  0
  9 22  1  0  0  0  0
  7  8  1  0  0  0  0
  7  9  1  0  0  0  0
 26 27  1  0  0  0  0
 26 28  1  0  0  0  0
 26 29  1  0  0  0  0
 24 25  1  0  0  0  0
 24 26  1  0  0  0  0
M  END
$$$$
default_name
  -OEChem-01062215323D

 29 29  0     1  0  0  0  0  0999 V2000
   -3.6042   -3.5728    1.4576 H   0  0  0  0  0  0  0  0  0  0  0  0
   -3.5202   -2.6488    0.8866 C   0  0  0  0  0  0  0  0  0  0  0  0
   -4.2052   -1.9048    1.2896 H   0  0  0  0  0  0  0  0  0  0  0  0
   -3.7552   -2.8428   -0.1584 H   0  0  0  0  0  0  0  0  0  0  0  0
   -2.1052   -2.1358    0.9946 C   0  0  0  0  0  0  0  0  0  0  0  0
   -1.2852   -2.7288    1.6826 O   0  0  0  0  0  0  0  0  0  0  0  0
   -1.8202   -1.0288    0.3146 N   0  0  0  0  0  0  0  0  0  0  0  0
   -2.5542   -0.5788   -0.2104 H   0  0  0  0  0  0  0  0  0  0  0  0
   -0.5102   -0.3728    0.3086 C   0  0  1  0  0  0  0  0  0  0  0  0
   -0.1224   -0.3761   -0.7111 H   0  0  0  0  0  0  0  0  0  0  0  0
   -0.6771    1.0923    0.7523 C   0  0  0  0  0  0  0  0  0  0  0  0
   -1.1427    1.1160    1.7391 H   0  0  0  0  0  0  0  0  0  0  0  0
    0.3088    1.5534    0.8353 H   0  0  0  0  0  0  0  0  0  0  0  0
   -1.5127    1.9175   -0.1918 C   0  0  0  0  0  0  0  0  0  0  0  0
   -1.1177    2.4012   -1.4206 N   0  0  0  0  0  0  0  0  0  0  0  0
   -0.1926    2.3325   -1.8177 H   0  0  0  0  0  0  0  0  0  0  0  0
   -2.1804    2.9869   -1.9977 C   0  0  0  0  0  0  0  0  0  0  0  0
   -2.1803    3.4659   -2.9692 H   0  0  0  0  0  0  0  0  0  0  0  0
   -3.2534    2.8927   -1.1989 N   0  0  0  0  0  0  0  0  0  0  0  0
   -2.8406    2.2188   -0.0465 C   0  0  0  0  0  0  0  0  0  0  0  0
   -3.4659    1.9499    0.7950 H   0  0  0  0  0  0  0  0  0  0  0  0
    0.4881   -1.1375    1.1942 C   0  0  0  0  0  0  0  0  0  0  0  0
    1.3567   -1.8426    0.6811 O   0  0  0  0  0  0  0  0  0  0  0  0
    0.3552   -1.0135    2.5206 N   0  0  0  0  0  0  0  0  0  0  0  0
   -0.4158   -0.4603    2.8647 H   0  0  0  0  0  0  0  0  0  0  0  0
    1.2199   -1.6648    3.5011 C   0  0  0  0  0  0  0  0  0  0  0  0
    2.2532   -1.3425    3.3541 H   0  0  0  0  0  0  0  0  0  0  0  0
    0.9033   -1.4047    4.5115 H   0  0  0  0  0  0  0  0  0  0  0  0
    1.1722   -2.7477    3.3763 H   0  0  0  0  0  0  0  0  0  0  0  0
  5  6  2  0  0  0  0
  5  7  1  0  0  0  0
  2  3  1  0  0  0  0
  2  4  1  0  0  0  0
  2  5  1  0  0  0  0
  1  2  1  0  0  0  0
 22 23  2  0  0  0  0
 22 24  1  0  0  0  0
 20 21  1  0  0  0  0
 19 20  1  0  0  0  0
 17 18  1  0  0  0  0
 17 19  2  0  0  0  0
 15 16  1  0  0  0  0
 15 17  1  0  0  0  0
 14 15  1  0  0  0  0
 14 20  2  0  0  0  0
 11 12  1  0  0  0  0
 11 13  1  0  0  0  0
 11 14  1  0  0  0  0
  9 10  1  0  0  0  0
  9 11  1  0  0  0  0
  9 22  1  0  0  0  0
  7  8  1  0  0  0  0
  7  9  1  0  0  0  0
 26 27  1  0  0  0  0
 26 28  1  0  0  0  0
 26 29  1  0  0  0  0
 24 25  1  0  0  0  0
 24 26  1  0  0  0  0
M  END
$$$$
default_name
  -OEChem-01062215323D

 29 29  0     1  0  0  0  0  0999 V2000
   -3.6042   -3.5728    1.4576 H   0  0  0  0  0  0  0  0  0  0  0  0
   -3.5202   -2.6488    0.8866 C   0  0  0  0  0  0  0  0  0  0  0  0
   -4.2052   -1.9048    1.2896 H   0  0  0  0  0  0  0  0  0  0  0  0
   -3.7552   -2.8428   -0.1584 H   0  0  0  0  0  0  0  0  0  0  0  0
   -2.1052   -2.1358    0.9946 C   0  0  0  0  0  0  0  0  0  0  0  0
   -1.2852   -2.7288    1.6826 O   0  0  0  0  0  0  0  0  0  0  0  0
   -1.8202   -1.0288    0.3146 N   0  0  0  0  0  0  0  0  0  0  0  0
   -2.5542   -0.5788   -0.2104 H   0  0  0  0  0  0  0  0  0  0  0  0
   -0.5102   -0.3728    0.3086 C   0  0  1  0  0  0  0  0  0  0  0  0
   -0.1224   -0.3761   -0.7111 H   0  0  0  0  0  0  0  0  0  0  0  0
   -0.6771    1.0923    0.7523 C   0  0  0  0  0  0  0  0  0  0  0  0
   -1.1427    1.1160    1.7391 H   0  0  0  0  0  0  0  0  0  0  0  0
    0.3088    1.5534    0.8353 H   0  0  0  0  0  0  0  0  0  0  0  0
   -1.5127    1.9175   -0.1918 C   0  0  0  0  0  0  0  0  0  0  0  0
   -1.1177    2.4012   -1.4206 N   0  0  0  0  0  0  0  0  0  0  0  0
   -0.1926    2.3325   -1.8177 H   0  0  0  0  0  0  0  0  0  0  0  0
   -2.1804    2.9869   -1.9977 C   0  0  0  0  0  0  0  0  0  0  0  0
   -2.1803    3.4659   -2.9692 H   0  0  0  0  0  0  0  0  0  0  0  0
   -3.2534    2.8927   -1.1989 N   0  0  0  0  0  0  0  0  0  0  0  0
   -2.8406    2.2188   -0.0465 C   0  0  0  0  0  0  0  0  0  0  0  0
   -3.4659    1.9499    0.7950 H   0  0  0  0  0  0  0  0  0  0  0  0
    0.4881   -1.1375    1.1942 C   0  0  0  0  0  0  0  0  0  0  0  0
    1.5119   -1.6134    0.7040 O   0  0  0  0  0  0  0  0  0  0  0  0
    0.1842   -1.2708    2.4912 N   0  0  0  0  0  0  0  0  0  0  0  0
   -0.7001   -0.8993    2.8060 H   0  0  0  0  0  0  0  0  0  0  0  0
    1.0224   -1.9604    3.4685 C   0  0  0  0  0  0  0  0  0  0  0  0
    2.0008   -1.4776    3.5221 H   0  0  0  0  0  0  0  0  0  0  0  0
    0.5532   -1.9302    4.4524 H   0  0  0  0  0  0  0  0  0  0  0  0
    1.1633   -2.9999    3.1685 H   0  0  0  0  0  0  0  0  0  0  0  0
  5  6  2  0  0  0  0
  5  7  1  0  0  0  0
  2  3  1  0  0  0  0
  2  4  1  0  0  0  0
  2  5  1  0  0  0  0
  1  2  1  0  0  0  0
 22 23  2  0  0  0  0
 22 24  1  0  0  0  0
 20 21  1  0  0  0  0
 19 20  1  0  0  0  0
 17 18  1  0  0  0  0
 17 19  2  0  0  0  0
 15 16  1  0  0  0  0
 15 17  1  0  0  0  0
 14 15  1  0  0  0  0
 14 20  2  0  0  0  0
 11 12  1  0  0  0  0
 11 13  1  0  0  0  0
 11 14  1  0  0  0  0
  9 10  1  0  0  0  0
  9 11  1  0  0  0  0
  9 22  1  0  0  0  0
  7  8  1  0  0  0  0
  7  9  1  0  0  0  0
 26 27  1  0  0  0  0
 26 28  1  0  0  0  0
 26 29  1  0  0  0  0
 24 25  1  0  0  0  0
 24 26  1  0  0  0  0
M  END
$$$$
default_name
  -OEChem-01062215323D

 29 29  0     1  0  0  0  0  0999 V2000
   -3.6042   -3.5728    1.4576 H   0  0  0  0  0  0  0  0  0  0  0  0
   -3.5202   -2.6488    0.8866 C   0  0  0  0  0  0  0  0  0  0  0  0
   -4.2052   -1.9048    1.2896 H   0  0  0  0  0  0  0  0  0  0  0  0
   -3.7552   -2.8428   -0.1584 H   0  0  0  0  0  0  0  0  0  0  0  0
   -2.1052   -2.1358    0.9946 C   0  0  0  0  0  0  0  0  0  0  0  0
   -1.2852   -2.7288    1.6826 O   0  0  0  0  0  0  0  0  0  0  0  0
   -1.8202   -1.0288    0.3146 N   0  0  0  0  0  0  0  0  0  0  0  0
   -2.5542   -0.5788   -0.2104 H   0  0  0  0  0  0  0  0  0  0  0  0
   -0.5102   -0.3728    0.3086 C   0  0  1  0  0  0  0  0  0  0  0  0
   -0.1224   -0.3761   -0.7111 H   0  0  0  0  0  0  0  0  0  0  0  0
   -0.6771    1.0923    0.7523 C   0  0  0  0  0  0  0  0  0  0  0  0
   -1.1427    1.1160    1.7391 H   0  0  0  0  0  0  0  0  0  0  0  0
    0.3088    1.5534    0.8353 H   0  0  0  0  0  0  0  0  0  0  0  0
   -1.5127    1.9175   -0.1918 C   0  0  0  0  0  0  0  0  0  0  0  0
   -1.1177    2.4012   -1.4206 N   0  0  0  0  0  0  0  0  0  0  0  0
   -0.1926    2.3325   -1.8177 H   0  0  0  0  0  0  0  0  0  0  0  0
   -2.1804    2.9869   -1.9977 C   0  0  0  0  0  0  0  0  0  0  0  0
   -2.1803    3.4659   -2.9692 H   0  0  0  0  0  0  0  0  0  0  0  0
   -3.2534    2.8927   -1.1989 N   0  0  0  0  0  0  0  0  0  0  0  0
   -2.8406    2.2188   -0.0465 C   0  0  0  0  0  0  0  0  0  0  0  0
   -3.4659    1.9499    0.7950 H   0  0  0  0  0  0  0  0  0  0  0  0
    0.4881   -1.1375    1.1942 C   0  0  0  0  0  0  0  0  0  0  0  0
    1.6247   -1.3728    0.7846 O   0  0  0  0  0  0  0  0  0  0  0  0
    0.0611   -1.5399    2.3976 N   0  0  0  0  0  0  0  0  0  0  0  0
   -0.9016   -1.3559    2.6389 H   0  0  0  0  0  0  0  0  0  0  0  0
    0.8798   -2.2698    3.3621 C   0  0  0  0  0  0  0  0  0  0  0  0
    1.7554   -1.6739    3.6292 H   0  0  0  0  0  0  0  0  0  0  0  0
    0.3009   -2.4800    4.2619 H   0  0  0  0  0  0  0  0  0  0  0  0
    1.2191   -3.2099    2.9243 H   0  0  0  0  0  0  0  0  0  0  0  0
  5  6  2  0  0  0  0
  5  7  1  0  0  0  0
  2  3  1  0  0  0  0
  2  4  1  0  0  0  0
  2  5  1  0  0  0  0
  1  2  1  0  0  0  0
 22 23  2  0  0  0  0
 22 24  1  0  0  0  0
 20 21  1  0  0  0  0
 19 20  1  0  0  0  0
 17 18  1  0  0  0  0
 17 19  2  0  0  0  0
 15 16  1  0  0  0  0
 15 17  1  0  0  0  0
 14 15  1  0  0  0  0
 14 20  2  0  0  0  0
 11 12  1  0  0  0  0
 11 13  1  0  0  0  0
 11 14  1  0  0  0  0
  9 10  1  0  0  0  0
  9 11  1  0  0  0  0
  9 22  1  0  0  0  0
  7  8  1  0  0  0  0
  7  9  1  0  0  0  0
 26 27  1  0  0  0  0
 26 28  1  0  0  0  0
 26 29  1  0  0  0  0
 24 25  1  0  0  0  0
 24 26  1  0  0  0  0
M  END
$$$$
default_name
  -OEChem-01062215323D

 29 29  0     1  0  0  0  0  0999 V2000
   -3.6042   -3.5728    1.4576 H   0  0  0  0  0  0  0  0  0  0  0  0
   -3.5202   -2.6488    0.8866 C   0  0  0  0  0  0  0  0  0  0  0  0
   -4.2052   -1.9048    1.2896 H   0  0  0  0  0  0  0  0  0  0  0  0
   -3.7552   -2.8428   -0.1584 H   0  0  0  0  0  0  0  0  0  0  0  0
   -2.1052   -2.1358    0.9946 C   0  0  0  0  0  0  0  0  0  0  0  0
   -1.2852   -2.7288    1.6826 O   0  0  0  0  0  0  0  0  0  0  0  0
   -1.8202   -1.0288    0.3146 N   0  0  0  0  0  0  0  0  0  0  0  0
   -2.5542   -0.5788   -0.2104 H   0  0  0  0  0  0  0  0  0  0  0  0
   -0.5102   -0.3728    0.3086 C   0  0  1  0  0  0  0  0  0  0  0  0
   -0.1224   -0.3761   -0.7111 H   0  0  0  0  0  0  0  0  0  0  0  0
   -0.6771    1.0923    0.7523 C   0  0  0  0  0  0  0  0  0  0  0  0
   -1.1427    1.1160    1.7391 H   0  0  0  0  0  0  0  0  0  0  0  0
    0.3088    1.5534    0.8353 H   0  0  0  0  0  0  0  0  0  0  0  0
   -1.5127    1.9175   -0.1918 C   0  0  0  0  0  0  0  0  0  0  0  0
   -1.1177    2.4012   -1.4206 N   0  0  0  0  0  0  0  0  0  0  0  0
   -0.1926    2.3325   -1.8177 H   0  0  0  0  0  0  0  0  0  0  0  0
   -2.1804    2.9869   -1.9977 C   0  0  0  0  0  0  0  0  0  0  0  0
   -2.1803    3.4659   -2.9692 H   0  0  0  0  0  0  0  0  0  0  0  0
   -3.2534    2.8927   -1.1989 N   0  0  0  0  0  0  0  0  0  0  0  0
   -2.8406    2.2188   -0.0465 C   0  0  0  0  0  0  0  0  0  0  0  0
   -3.4659    1.9499    0.7950 H   0  0  0  0  0  0  0  0  0  0  0  0
    0.4881   -1.1375    1.1942 C   0  0  0  0  0  0  0  0  0  0  0  0
    1.6874   -1.1371    0.9175 O   0  0  0  0  0  0  0  0  0  0  0  0
   -0.0056   -1.8024    2.2461 N   0  0  0  0  0  0  0  0  0  0  0  0
   -1.0068   -1.7989    2.3749 H   0  0  0  0  0  0  0  0  0  0  0  0
    0.8019   -2.5720    3.1889 C   0  0  0  0  0  0  0  0  0  0  0  0
    1.5339   -1.9181    3.6680 H   0  0  0  0  0  0  0  0  0  0  0  0
    0.1637   -3.0167    3.9531 H   0  0  0  0  0  0  0  0  0  0  0  0
    1.3357   -3.3634    2.6604 H   0  0  0  0  0  0  0  0  0  0  0  0
  5  6  2  0  0  0  0
  5  7  1  0  0  0  0
  2  3  1  0  0  0  0
  2  4  1  0  0  0  0
  2  5  1  0  0  0  0
  1  2  1  0  0  0  0
 22 23  2  0  0  0  0
 22 24  1  0  0  0  0
 20 21  1  0  0  0  0
 19 20  1  0  0  0  0
 17 18  1  0  0  0  0
 17 19  2  0  0  0  0
 15 16  1  0  0  0  0
 15 17  1  0  0  0  0
 14 15  1  0  0  0  0
 14 20  2  0  0  0  0
 11 12  1  0  0  0  0
 11 13  1  0  0  0  0
 11 14  1  0  0  0  0
  9 10  1  0  0  0  0
  9 11  1  0  0  0  0
  9 22  1  0  0  0  0
  7  8  1  0  0  0  0
  7  9  1  0  0  0  0
 26 27  1  0  0  0  0
 26 28  1  0  0  0  0
 26 29  1  0  0  0  0
 24 25  1  0  0  0  0
 24 26  1  0  0  0  0
M  END
$$$$
default_name
  -OEChem-01062215323D

 29 29  0     1  0  0  0  0  0999 V2000
   -3.6042   -3.5728    1.4576 H   0  0  0  0  0  0  0  0  0  0  0  0
   -3.5202   -2.6488    0.8866 C   0  0  0  0  0  0  0  0  0  0  0  0
   -4.2052   -1.9048    1.2896 H   0  0  0  0  0  0  0  0  0  0  0  0
   -3.7552   -2.8428   -0.1584 H   0  0  0  0  0  0  0  0  0  0  0  0
   -2.1052   -2.1358    0.9946 C   0  0  0  0  0  0  0  0  0  0  0  0
   -1.2852   -2.7288    1.6826 O   0  0  0  0  0  0  0  0  0  0  0  0
   -1.8202   -1.0288    0.3146 N   0  0  0  0  0  0  0  0  0  0  0  0
   -2.5542   -0.5788   -0.2104 H   0  0  0  0  0  0  0  0  0  0  0  0
   -0.5102   -0.3728    0.3086 C   0  0  1  0  0  0  0  0  0  0  0  0
   -0.1224   -0.3761   -0.7111 H   0  0  0  0  0  0  0  0  0  0  0  0
   -0.6771    1.0923    0.7523 C   0  0  0  0  0  0  0  0  0  0  0  0
   -1.1427    1.1160    1.7391 H   0  0  0  0  0  0  0  0  0  0  0  0
    0.3088    1.5534    0.8353 H   0  0  0  0  0  0  0  0  0  0  0  0
   -1.5127    1.9175   -0.1918 C   0  0  0  0  0  0  0  0  0  0  0  0
   -1.1177    2.4012   -1.4206 N   0  0  0  0  0  0  0  0  0  0  0  0
   -0.1926    2.3325   -1.8177 H   0  0  0  0  0  0  0  0  0  0  0  0
   -2.1804    2.9869   -1.9977 C   0  0  0  0  0  0  0  0  0  0  0  0
   -2.1803    3.4659   -2.9692 H   0  0  0  0  0  0  0  0  0  0  0  0
   -3.2534    2.8927   -1.1989 N   0  0  0  0  0  0  0  0  0  0  0  0
   -2.8406    2.2188   -0.0465 C   0  0  0  0  0  0  0  0  0  0  0  0
   -3.4659    1.9499    0.7950 H   0  0  0  0  0  0  0  0  0  0  0  0
    0.4881   -1.1375    1.1942 C   0  0  0  0  0  0  0  0  0  0  0  0
    1.6958   -0.9224    1.0934 O   0  0  0  0  0  0  0  0  0  0  0  0
   -0.0115   -2.0405    2.0471 N   0  0  0  0  0  0  0  0  0  0  0  0
   -1.0084   -2.1982    2.0319 H   0  0  0  0  0  0  0  0  0  0  0  0
    0.7939   -2.8465    2.9608 C   0  0  0  0  0  0  0  0  0  0  0  0
    1.3514   -2.1934    3.6360 H   0  0  0  0  0  0  0  0  0  0  0  0
    0.1509   -3.5037    3.5470 H   0  0  0  0  0  0  0  0  0  0  0  0
    1.5051   -3.4499    2.3946 H   0  0  0  0  0  0  0  0  0  0  0  0
  5  6  2  0  0  0  0
  5  7  1  0  0  0  0
  2  3  1  0  0  0  0
  2  4  1  0  0  0  0
  2  5  1  0  0  0  0
  1  2  1  0  0  0  0
 22 23  2  0  0  0  0
 22 24  1  0  0  0  0
 20 21  1  0  0  0  0
 19 20  1  0  0  0  0
 17 18  1  0  0  0  0
 17 19  2  0  0  0  0
 15 16  1  0  0  0  0
 15 17  1  0  0  0  0
 14 15  1  0  0  0  0
 14 20  2  0  0  0  0
 11 12  1  0  0  0  0
 11 13  1  0  0  0  0
 11 14  1  0  0  0  0
  9 10  1  0  0  0  0
  9 11  1  0  0  0  0
  9 22  1  0  0  0  0
  7  8  1  0  0  0  0
  7  9  1  0  0  0  0
 26 27  1  0  0  0  0
 26 28  1  0  0  0  0
 26 29  1  0  0  0  0
 24 25  1  0  0  0  0
 24 26  1  0  0  0  0
M  END
$$$$
default_name
  -OEChem-01062215323D

 29 29  0     1  0  0  0  0  0999 V2000
   -3.6042   -3.5728    1.4576 H   0  0  0  0  0  0  0  0  0  0  0  0
   -3.5202   -2.6488    0.8866 C   0  0  0  0  0  0  0  0  0  0  0  0
   -4.2052   -1.9048    1.2896 H   0  0  0  0  0  0  0  0  0  0  0  0
   -3.7552   -2.8428   -0.1584 H   0  0  0  0  0  0  0  0  0  0  0  0
   -2.1052   -2.1358    0.9946 C   0  0  0  0  0  0  0  0  0  0  0  0
   -1.2852   -2.7288    1.6826 O   0  0  0  0  0  0  0  0  0  0  0  0
   -1.8202   -1.0288    0.3146 N   0  0  0  0  0  0  0  0  0  0  0  0
   -2.5542   -0.5788   -0.2104 H   0  0  0  0  0  0  0  0  0  0  0  0
   -0.5102   -0.3728    0.3086 C   0  0  1  0  0  0  0  0  0  0  0  0
   -0.1224   -0.3761   -0.7111 H   0  0  0  0  0  0  0  0  0  0  0  0
   -0.6771    1.0923    0.7523 C   0  0  0  0  0  0  0  0  0  0  0  0
   -1.1427    1.1160    1.7391 H   0  0  0  0  0  0  0  0  0  0  0  0
    0.3088    1.5534    0.8353 H   0  0  0  0  0  0  0  0  0  0  0  0
   -1.5127    1.9175   -0.1918 C   0  0  0  0  0  0  0  0  0  0  0  0
   -1.1177    2.4012   -1.4206 N   0  0  0  0  0  0  0  0  0  0  0  0
   -0.1926    2.3325   -1.8177 H   0  0  0  0  0  0  0  0  0  0  0  0
   -2.1804    2.9869   -1.9977 C   0  0  0  0  0  0  0  0  0  0  0  0
   -2.1803    3.4659   -2.9692 H   0  0  0  0  0  0  0  0  0  0  0  0
   -3.2534    2.8927   -1.1989 N   0  0  0  0  0  0  0  0  0  0  0  0
   -2.8406    2.2188   -0.0465 C   0  0  0  0  0  0  0  0  0  0  0  0
   -3.4659    1.9499    0.7950 H   0  0  0  0  0  0  0  0  0  0  0  0
    0.4881   -1.1375    1.1942 C   0  0  0  0  0  0  0  0  0  0  0  0
    1.6492   -0.7434    1.3005 O   0  0  0  0  0  0  0  0  0  0  0  0
    0.0440   -2.2379    1.8141 N   0  0  0  0  0  0  0  0  0  0  0  0
   -0.9063   -2.5264    1.6334 H   0  0  0  0  0  0  0  0  0  0  0  0
    0.8565   -3.0745    2.6934 C   0  0  0  0  0  0  0  0  0  0  0  0
    1.2202   -2.4813    3.5354 H   0  0  0  0  0  0  0  0  0  0  0  0
    0.2634   -3.9078    3.0713 H   0  0  0  0  0  0  0  0  0  0  0  0
    1.7159   -3.4636    2.1451 H   0  0  0  0  0  0  0  0  0  0  0  0
  5  6  2  0  0  0  0
  5  7  1  0  0  0  0
  2  3  1  0  0  0  0
  2  4  1  0  0  0  0
  2  5  1  0  0  0  0
  1  2  1  0  0  0  0
 22 23  2  0  0  0  0
 22 24  1  0  0  0  0
 20 21  1  0  0  0  0
 19 20  1  0  0  0  0
 17 18  1  0  0  0  0
 17 19  2  0  0  0  0
 15 16  1  0  0  0  0
 15 17  1  0  0  0  0
 14 15  1  0  0  0  0
 14 20  2  0  0  0  0
 11 12  1  0  0  0  0
 11 13  1  0  0  0  0
 11 14  1  0  0  0  0
  9 10  1  0  0  0  0
  9 11  1  0  0  0  0
  9 22  1  0  0  0  0
  7  8  1  0  0  0  0
  7  9  1  0  0  0  0
 26 27  1  0  0  0  0
 26 28  1  0  0  0  0
 26 29  1  0  0  0  0
 24 25  1  0  0  0  0
 24 26  1  0  0  0  0
M  END
$$$$
default_name
  -OEChem-01062215323D

 29 29  0     1  0  0  0  0  0999 V2000
   -3.6042   -3.5728    1.4576 H   0  0  0  0  0  0  0  0  0  0  0  0
   -3.5202   -2.6488    0.8866 C   0  0  0  0  0  0  0  0  0  0  0  0
   -4.2052   -1.9048    1.2896 H   0  0  0  0  0  0  0  0  0  0  0  0
   -3.7552   -2.8428   -0.1584 H   0  0  0  0  0  0  0  0  0  0  0  0
   -2.1052   -2.1358    0.9946 C   0  0  0  0  0  0  0  0  0  0  0  0
   -1.2852   -2.7288    1.6826 O   0  0  0  0  0  0  0  0  0  0  0  0
   -1.8202   -1.0288    0.3146 N   0  0  0  0  0  0  0  0  0  0  0  0
   -2.5542   -0.5788   -0.2104 H   0  0  0  0  0  0  0  0  0  0  0  0
   -0.5102   -0.3728    0.3086 C   0  0  1  0  0  0  0  0  0  0  0  0
   -0.1224   -0.3761   -0.7111 H   0  0  0  0  0  0  0  0  0  0  0  0
   -0.6771    1.0923    0.7523 C   0  0  0  0  0  0  0  0  0  0  0  0
   -1.1427    1.1160    1.7391 H   0  0  0  0  0  0  0  0  0  0  0  0
    0.3088    1.5534    0.8353 H   0  0  0  0  0  0  0  0  0  0  0  0
   -1.5127    1.9175   -0.1918 C   0  0  0  0  0  0  0  0  0  0  0  0
   -1.1177    2.4012   -1.4206 N   0  0  0  0  0  0  0  0  0  0  0  0
   -0.1926    2.3325   -1.8177 H   0  0  0  0  0  0  0  0  0  0  0  0
   -2.1804    2.9869   -1.9977 C   0  0  0  0  0  0  0  0  0  0  0  0
   -2.1803    3.4659   -2.9692 H   0  0  0  0  0  0  0  0  0  0  0  0
   -3.2534    2.8927   -1.1989 N   0  0  0  0  0  0  0  0  0  0  0  0
   -2.8406    2.2188   -0.0465 C   0  0  0  0  0  0  0  0  0  0  0  0
   -3.4659    1.9499    0.7950 H   0  0  0  0  0  0  0  0  0  0  0  0
    0.4881   -1.1375    1.1942 C   0  0  0  0  0  0  0  0  0  0  0  0
    1.5509   -0.6121    1.5247 O   0  0  0  0  0  0  0  0  0  0  0  0
    0.1569   -2.3812    1.5631 N   0  0  0  0  0  0  0  0  0  0  0  0
   -0.7075   -2.7613    1.2064 H   0  0  0  0  0  0  0  0  0  0  0  0
    0.9853   -3.2405    2.4048 C   0  0  0  0  0  0  0  0  0  0  0  0
    1.1493   -2.7619    3.3730 H   0  0  0  0  0  0  0  0  0  0  0  0
    0.4934   -4.2014    2.5584 H   0  0  0  0  0  0  0  0  0  0  0  0
    1.9536   -3.4036    1.9290 H   0  0  0  0  0  0  0  0  0  0  0  0
  5  6  2  0  0  0  0
  5  7  1  0  0  0  0
  2  3  1  0  0  0  0
  2  4  1  0  0  0  0
  2  5  1  0  0  0  0
  1  2  1  0  0  0  0
 22 23  2  0  0  0  0
 22 24  1  0  0  0  0
 20 21  1  0  0  0  0
 19 20  1  0  0  0  0
 17 18  1  0  0  0  0
 17 19  2  0  0  0  0
 15 16  1  0  0  0  0
 15 17  1  0  0  0  0
 14 15  1  0  0  0  0
 14 20  2  0  0  0  0
 11 12  1  0  0  0  0
 11 13  1  0  0  0  0
 11 14  1  0  0  0  0
  9 10  1  0  0  0  0
  9 11  1  0  0  0  0
  9 22  1  0  0  0  0
  7  8  1  0  0  0  0
  7  9  1  0  0  0  0
 26 27  1  0  0  0  0
 26 28  1  0  0  0  0
 26 29  1  0  0  0  0
 24 25  1  0  0  0  0
 24 26  1  0  0  0  0
M  END
$$$$
default_name
  -OEChem-01062215323D

 29 29  0     1  0  0  0  0  0999 V2000
   -3.6042   -3.5728    1.4576 H   0  0  0  0  0  0  0  0  0  0  0  0
   -3.5202   -2.6488    0.8866 C   0  0  0  0  0  0  0  0  0  0  0  0
   -4.2052   -1.9048    1.2896 H   0  0  0  0  0  0  0  0  0  0  0  0
   -3.7552   -2.8428   -0.1584 H   0  0  0  0  0  0  0  0  0  0  0  0
   -2.1052   -2.1358    0.9946 C   0  0  0  0  0  0  0  0  0  0  0  0
   -1.2852   -2.7288    1.6826 O   0  0  0  0  0  0  0  0  0  0  0  0
   -1.8202   -1.0288    0.3146 N   0  0  0  0  0  0  0  0  0  0  0  0
   -2.5542   -0.5788   -0.2104 H   0  0  0  0  0  0  0  0  0  0  0  0
   -0.5102   -0.3728    0.3086 C   0  0  1  0  0  0  0  0  0  0  0  0
   -0.1224   -0.3761   -0.7111 H   0  0  0  0  0  0  0  0  0  0  0  0
   -0.6771    1.0923    0.7523 C   0  0  0  0  0  0  0  0  0  0  0  0
   -1.1427    1.1160    1.7391 H   0  0  0  0  0  0  0  0  0  0  0  0
    0.3088    1.5534    0.8353 H   0  0  0  0  0  0  0  0  0  0  0  0
   -1.5127    1.9175   -0.1918 C   0  0  0  0  0  0  0  0  0  0  0  0
   -1.1177    2.4012   -1.4206 N   0  0  0  0  0  0  0  0  0  0  0  0
   -0.1926    2.3325   -1.8177 H   0  0  0  0  0  0  0  0  0  0  0  0
   -2.1804    2.9869   -1.9977 C   0  0  0  0  0  0  0  0  0  0  0  0
   -2.1803    3.4659   -2.9692 H   0  0  0  0  0  0  0  0  0  0  0  0
   -3.2534    2.8927   -1.1989 N   0  0  0  0  0  0  0  0  0  0  0  0
   -2.8406    2.2188   -0.0465 C   0  0  0  0  0  0  0  0  0  0  0  0
   -3.4659    1.9499    0.7950 H   0  0  0  0  0  0  0  0  0  0  0  0
    0.4881   -1.1375    1.1942 C   0  0  0  0  0  0  0  0  0  0  0  0
    1.4076   -0.5377    1.7506 O   0  0  0  0  0  0  0  0  0  0  0  0
    0.3197   -2.4606    1.3110 N   0  0  0  0  0  0  0  0  0  0  0  0
   -0.4255   -2.8869    0.7801 H   0  0  0  0  0  0  0  0  0  0  0  0
    1.1717   -3.3331    2.1148 C   0  0  0  0  0  0  0  0  0  0  0  0
    1.1435   -3.0163    3.1598 H   0  0  0  0  0  0  0  0  0  0  0  0
    0.8254   -4.3646    2.0432 H   0  0  0  0  0  0  0  0  0  0  0  0
    2.2021   -3.2738    1.7609 H   0  0  0  0  0  0  0  0  0  0  0  0
  5  6  2  0  0  0  0
  5  7  1  0  0  0  0
  2  3  1  0  0  0  0
  2  4  1  0  0  0  0
  2  5  1  0  0  0  0
  1  2  1  0  0  0  0
 22 23  2  0  0  0  0
 22 24  1  0  0  0  0
 20 21  1  0  0  0  0
 19 20  1  0  0  0  0
 17 18  1  0  0  0  0
 17 19  2  0  0  0  0
 15 16  1  0  0  0  0
 15 17  1  0  0  0  0
 14 15  1  0  0  0  0
 14 20  2  0  0  0  0
 11 12  1  0  0  0  0
 11 13  1  0  0  0  0
 11 14  1  0  0  0  0
  9 10  1  0  0  0  0
  9 11  1  0  0  0  0
  9 22  1  0  0  0  0
  7  8  1  0  0  0  0
  7  9  1  0  0  0  0
 26 27  1  0  0  0  0
 26 28  1  0  0  0  0
 26 29  1  0  0  0  0
 24 25  1  0  0  0  0
 24 26  1  0  0  0  0
M  END
$$$$
default_name
  -OEChem-01062215323D

 29 29  0     1  0  0  0  0  0999 V2000
   -3.6042   -3.5728    1.4576 H   0  0  0  0  0  0  0  0  0  0  0  0
   -3.5202   -2.6488    0.8866 C   0  0  0  0  0  0  0  0  0  0  0  0
   -4.2052   -1.9048    1.2896 H   0  0  0  0  0  0  0  0  0  0  0  0
   -3.7552   -2.8428   -0.1584 H   0  0  0  0  0  0  0  0  0  0  0  0
   -2.1052   -2.1358    0.9946 C   0  0  0  0  0  0  0  0  0  0  0  0
   -1.2852   -2.7288    1.6826 O   0  0  0  0  0  0  0  0  0  0  0  0
   -1.8202   -1.0288    0.3146 N   0  0  0  0  0  0  0  0  0  0  0  0
   -2.5542   -0.5788   -0.2104 H   0  0  0  0  0  0  0  0  0  0  0  0
   -0.5102   -0.3728    0.3086 C   0  0  1  0  0  0  0  0  0  0  0  0
   -0.1224   -0.3761   -0.7111 H   0  0  0  0  0  0  0  0  0  0  0  0
   -0.6771    1.0923    0.7523 C   0  0  0  0  0  0  0  0  0  0  0  0
   -1.1427    1.1160    1.7391 H   0  0  0  0  0  0  0  0  0  0  0  0
    0.3088    1.5534    0.8353 H   0  0  0  0  0  0  0  0  0  0  0  0
   -1.5127    1.9175   -0.1918 C   0  0  0  0  0  0  0  0  0  0  0  0
   -1.1177    2.4012   -1.4206 N   0  0  0  0  0  0  0  0  0  0  0  0
   -0.1926    2.3325   -1.8177 H   0  0  0  0  0  0  0  0  0  0  0  0
   -2.1804    2.9869   -1.9977 C   0  0  0  0  0  0  0  0  0  0  0  0
   -2.1803    3.4659   -2.9692 H   0  0  0  0  0  0  0  0  0  0  0  0
   -3.2534    2.8927   -1.1989 N   0  0  0  0  0  0  0  0  0  0  0  0
   -2.8406    2.2188   -0.0465 C   0  0  0  0  0  0  0  0  0  0  0  0
   -3.4659    1.9499    0.7950 H   0  0  0  0  0  0  0  0  0  0  0  0
    0.4881   -1.1375    1.1942 C   0  0  0  0  0  0  0  0  0  0  0  0
    1.2290   -0.5251    1.9629 O   0  0  0  0  0  0  0  0  0  0  0  0
    0.5212   -2.4707    1.0752 N   0  0  0  0  0  0  0  0  0  0  0  0
   -0.0796   -2.8945    0.3835 H   0  0  0  0  0  0  0  0  0  0  0  0
    1.4027   -3.3461    1.8430 C   0  0  0  0  0  0  0  0  0  0  0  0
    1.2033   -3.2270    2.9104 H   0  0  0  0  0  0  0  0  0  0  0  0
    1.2366   -4.3862    1.5609 H   0  0  0  0  0  0  0  0  0  0  0  0
    2.4444   -3.0832    1.6523 H   0  0  0  0  0  0  0  0  0  0  0  0
  5  6  2  0  0  0  0
  5  7  1  0  0  0  0
  2  3  1  0  0  0  0
  2  4  1  0  0  0  0
  2  5  1  0  0  0  0
  1  2  1  0  0  0  0
 22 23  2  0  0  0  0
 22 24  1  0  0  0  0
 20 21  1  0  0  0  0
 19 20  1  0  0  0  0
 17 18  1  0  0  0  0
 17 19  2  0  0  0  0
 15 16  1  0  0  0  0
 15 17  1  0  0  0  0
 14 15  1  0  0  0  0
 14 20  2  0  0  0  0
 11 12  1  0  0  0  0
 11 13  1  0  0  0  0
 11 14  1  0  0  0  0
  9 10  1  0  0  0  0
  9 11  1  0  0  0  0
  9 22  1  0  0  0  0
  7  8  1  0  0  0  0
  7  9  1  0  0  0  0
 26 27  1  0  0  0  0
 26 28  1  0  0  0  0
 26 29  1  0  0  0  0
 24 25  1  0  0  0  0
 24 26  1  0  0  0  0
M  END
$$$$
default_name
  -OEChem-01062215323D

 29 29  0     1  0  0  0  0  0999 V2000
   -3.6042   -3.5728    1.4576 H   0  0  0  0  0  0  0  0  0  0  0  0
   -3.5202   -2.6488    0.8866 C   0  0  0  0  0  0  0  0  0  0  0  0
   -4.2052   -1.9048    1.2896 H   0  0  0  0  0  0  0  0  0  0  0  0
   -3.7552   -2.8428   -0.1584 H   0  0  0  0  0  0  0  0  0  0  0  0
   -2.1052   -2.1358    0.9946 C   0  0  0  0  0  0  0  0  0  0  0  0
   -1.2852   -2.7288    1.6826 O   0  0  0  0  0  0  0  0  0  0  0  0
   -1.8202   -1.0288    0.3146 N   0  0  0  0  0  0  0  0  0  0  0  0
   -2.5542   -0.5788   -0.2104 H   0  0  0  0  0  0  0  0  0  0  0  0
   -0.5102   -0.3728    0.3086 C   0  0  1  0  0  0  0  0  0  0  0  0
   -0.1224   -0.3761   -0.7111 H   0  0  0  0  0  0  0  0  0  0  0  0
   -0.6771    1.0923    0.7523 C   0  0  0  0  0  0  0  0  0  0  0  0
   -1.1427    1.1160    1.7391 H   0  0  0  0  0  0  0  0  0  0  0  0
    0.3088    1.5534    0.8353 H   0  0  0  0  0  0  0  0  0  0  0  0
   -1.5127    1.9175   -0.1918 C   0  0  0  0  0  0  0  0  0  0  0  0
   -1.1177    2.4012   -1.4206 N   0  0  0  0  0  0  0  0  0  0  0  0
   -0.1926    2.3325   -1.8177 H   0  0  0  0  0  0  0  0  0  0  0  0
   -2.1804    2.9869   -1.9977 C   0  0  0  0  0  0  0  0  0  0  0  0
   -2.1803    3.4659   -2.9692 H   0  0  0  0  0  0  0  0  0  0  0  0
   -3.2534    2.8927   -1.1989 N   0  0  0  0  0  0  0  0  0  0  0  0
   -2.8406    2.2188   -0.0465 C   0  0  0  0  0  0  0  0  0  0  0  0
   -3.4659    1.9499    0.7950 H   0  0  0  0  0  0  0  0  0  0  0  0
    0.4881   -1.1375    1.1942 C   0  0  0  0  0  0  0  0  0  0  0  0
    1.0272   -0.5752    2.1470 O   0  0  0  0  0  0  0  0  0  0  0  0
    0.7476   -2.4108    0.8716 N   0  0  0  0  0  0  0  0  0  0  0  0
    0.3068   -2.7837    0.0436 H   0  0  0  0  0  0  0  0  0  0  0  0
    1.6629   -3.2785    1.6081 C   0  0  0  0  0  0  0  0  0  0  0  0
    1.3246   -3.3798    2.6418 H   0  0  0  0  0  0  0  0  0  0  0  0
    1.6992   -4.2647    1.1443 H   0  0  0  0  0  0  0  0  0  0  0  0
    2.6640   -2.8447    1.6107 H   0  0  0  0  0  0  0  0  0  0  0  0
  5  6  2  0  0  0  0
  5  7  1  0  0  0  0
  2  3  1  0  0  0  0
  2  4  1  0  0  0  0
  2  5  1  0  0  0  0
  1  2  1  0  0  0  0
 22 23  2  0  0  0  0
 22 24  1  0  0  0  0
 20 21  1  0  0  0  0
 19 20  1  0  0  0  0
 17 18  1  0  0  0  0
 17 19  2  0  0  0  0
 15 16  1  0  0  0  0
 15 17  1  0  0  0  0
 14 15  1  0  0  0  0
 14 20  2  0  0  0  0
 11 12  1  0  0  0  0
 11 13  1  0  0  0  0
 11 14  1  0  0  0  0
  9 10  1  0  0  0  0
  9 11  1  0  0  0  0
  9 22  1  0  0  0  0
  7  8  1  0  0  0  0
  7  9  1  0  0  0  0
 26 27  1  0  0  0  0
 26 28  1  0  0  0  0
 26 29  1  0  0  0  0
 24 25  1  0  0  0  0
 24 26  1  0  0  0  0
M  END
$$$$
default_name
  -OEChem-01062215323D

 29 29  0     1  0  0  0  0  0999 V2000
   -3.6042   -3.5728    1.4576 H   0  0  0  0  0  0  0  0  0  0  0  0
   -3.5202   -2.6488    0.8866 C   0  0  0  0  0  0  0  0  0  0  0  0
   -4.2052   -1.9048    1.2896 H   0  0  0  0  0  0  0  0  0  0  0  0
   -3.7552   -2.8428   -0.1584 H   0  0  0  0  0  0  0  0  0  0  0  0
   -2.1052   -2.1358    0.9946 C   0  0  0  0  0  0  0  0  0  0  0  0
   -1.2852   -2.7288    1.6826 O   0  0  0  0  0  0  0  0  0  0  0  0
   -1.8202   -1.0288    0.3146 N   0  0  0  0  0  0  0  0  0  0  0  0
   -2.5542   -0.5788   -0.2104 H   0  0  0  0  0  0  0  0  0  0  0  0
   -0.5102   -0.3728    0.3086 C   0  0  1  0  0  0  0  0  0  0  0  0
   -0.1224   -0.3761   -0.7111 H   0  0  0  0  0  0  0  0  0  0  0  0
   -0.6771    1.0923    0.7523 C   0  0  0  0  0  0  0  0  0  0  0  0
   -1.1427    1.1160    1.7391 H   0  0  0  0  0  0  0  0  0  0  0  0
    0.3088    1.5534    0.8353 H   0  0  0  0  0  0  0  0  0  0  0  0
   -1.5127    1.9175   -0.1918 C   0  0  0  0  0  0  0  0  0  0  0  0
   -1.1177    2.4012   -1.4206 N   0  0  0  0  0  0  0  0  0  0  0  0
   -0.1926    2.3325   -1.8177 H   0  0  0  0  0  0  0  0  0  0  0  0
   -2.1804    2.9869   -1.9977 C   0  0  0  0  0  0  0  0  0  0  0  0
   -2.1803    3.4659   -2.9692 H   0  0  0  0  0  0  0  0  0  0  0  0
   -3.2534    2.8927   -1.1989 N   0  0  0  0  0  0  0  0  0  0  0  0
   -2.8406    2.2188   -0.0465 C   0  0  0  0  0  0  0  0  0  0  0  0
   -3.4659    1.9499    0.7950 H   0  0  0  0  0  0  0  0  0  0  0  0
    0.4881   -1.1375    1.1942 C   0  0  0  0  0  0  0  0  0  0  0  0
    0.8161   -0.6846    2.2905 O   0  0  0  0  0  0  0  0  0  0  0  0
    0.9836   -2.2849    0.7142 N   0  0  0  0  0  0  0  0  0  0  0  0
    0.7072   -2.5620   -0.2163 H   0  0  0  0  0  0  0  0  0  0  0  0
    1.9343   -3.1351    1.4260 C   0  0  0  0  0  0  0  0  0  0  0  0
    1.4990   -3.4641    2.3723 H   0  0  0  0  0  0  0  0  0  0  0  0
    2.1815   -4.0085    0.8219 H   0  0  0  0  0  0  0  0  0  0  0  0
    2.8460   -2.5747    1.6387 H   0  0  0  0  0  0  0  0  0  0  0  0
  5  6  2  0  0  0  0
  5  7  1  0  0  0  0
  2  3  1  0  0  0  0
  2  4  1  0  0  0  0
  2  5  1  0  0  0  0
  1  2  1  0  0  0  0
 22 23  2  0  0  0  0
 22 24  1  0  0  0  0
 20 21  1  0  0  0  0
 19 20  1  0  0  0  0
 17 18  1  0  0  0  0
 17 19  2  0  0  0  0
 15 16  1  0  0  0  0
 15 17  1  0  0  0  0
 14 15  1  0  0  0  0
 14 20  2  0  0  0  0
 11 12  1  0  0  0  0
 11 13  1  0  0  0  0
 11 14  1  0  0  0  0
  9 10  1  0  0  0  0
  9 11  1  0  0  0  0
  9 22  1  0  0  0  0
  7  8  1  0  0  0  0
  7  9  1  0  0  0  0
 26 27  1  0  0  0  0
 26 28  1  0  0  0  0
 26 29  1  0  0  0  0
 24 25  1  0  0  0  0
 24 26  1  0  0  0  0
M  END
$$$$
default_name
  -OEChem-01062215323D

 29 29  0     1  0  0  0  0  0999 V2000
   -3.6042   -3.5728    1.4576 H   0  0  0  0  0  0  0  0  0  0  0  0
   -3.5202   -2.6488    0.8866 C   0  0  0  0  0  0  0  0  0  0  0  0
   -4.2052   -1.9048    1.2896 H   0  0  0  0  0  0  0  0  0  0  0  0
   -3.7552   -2.8428   -0.1584 H   0  0  0  0  0  0  0  0  0  0  0  0
   -2.1052   -2.1358    0.9946 C   0  0  0  0  0  0  0  0  0  0  0  0
   -1.2852   -2.7288    1.6826 O   0  0  0  0  0  0  0  0  0  0  0  0
   -1.8202   -1.0288    0.3146 N   0  0  0  0  0  0  0  0  0  0  0  0
   -2.5542   -0.5788   -0.2104 H   0  0  0  0  0  0  0  0  0  0  0  0
   -0.5102   -0.3728    0.3086 C   0  0  1  0  0  0  0  0  0  0  0  0
   -0.1224   -0.3761   -0.7111 H   0  0  0  0  0  0  0  0  0  0  0  0
   -0.6771    1.0923    0.7523 C   0  0  0  0  0  0  0  0  0  0  0  0
   -1.1427    1.1160    1.7391 H   0  0  0  0  0  0  0  0  0  0  0  0
    0.3088    1.5534    0.8353 H   0  0  0  0  0  0  0  0  0  0  0  0
   -1.5127    1.9175   -0.1918 C   0  0  0  0  0  0  0  0  0  0  0  0
   -1.1177    2.4012   -1.4206 N   0  0  0  0  0  0  0  0  0  0  0  0
   -0.1926    2.3325   -1.8177 H   0  0  0  0  0  0  0  0  0  0  0  0
   -2.1804    2.9869   -1.9977 C   0  0  0  0  0  0  0  0  0  0  0  0
   -2.1803    3.4659   -2.9692 H   0  0  0  0  0  0  0  0  0  0  0  0
   -3.2534    2.8927   -1.1989 N   0  0  0  0  0  0  0  0  0  0  0  0
   -2.8406    2.2188   -0.0465 C   0  0  0  0  0  0  0  0  0  0  0  0
   -3.4659    1.9499    0.7950 H   0  0  0  0  0  0  0  0  0  0  0  0
    0.4881   -1.1375    1.1942 C   0  0  0  0  0  0  0  0  0  0  0  0
    0.6101   -0.8458    2.3836 O   0  0  0  0  0  0  0  0  0  0  0  0
    1.2131   -2.1018    0.6136 N   0  0  0  0  0  0  0  0  0  0  0  0
    1.0943   -2.2445   -0.3786 H   0  0  0  0  0  0  0  0  0  0  0  0
    2.1985   -2.9254    1.3091 C   0  0  0  0  0  0  0  0  0  0  0  0
    1.7148   -3.4744    2.1202 H   0  0  0  0  0  0  0  0  0  0  0  0
    2.6506   -3.6350    0.6155 H   0  0  0  0  0  0  0  0  0  0  0  0
    2.9779   -2.2914    1.7346 H   0  0  0  0  0  0  0  0  0  0  0  0
  5  6  2  0  0  0  0
  5  7  1  0  0  0  0
  2  3  1  0  0  0  0
  2  4  1  0  0  0  0
  2  5  1  0  0  0  0
  1  2  1  0  0  0  0
 22 23  2  0  0  0  0
 22 24  1  0  0  0  0
 20 21  1  0  0  0  0
 19 20  1  0  0  0  0
 17 18  1  0  0  0  0
 17 19  2  0  0  0  0
 15 16  1  0  0  0  0
 15 17  1  0  0  0  0
 14 15  1  0  0  0  0
 14 20  2  0  0  0  0
 11 12  1  0  0  0  0
 11 13  1  0  0  0  0
 11 14  1  0  0  0  0
  9 10  1  0  0  0  0
  9 11  1  0  0  0  0
  9 22  1  0  0  0  0
  7  8  1  0  0  0  0
  7  9  1  0  0  0  0
 26 27  1  0  0  0  0
 26 28  1  0  0  0  0
 26 29  1  0  0  0  0
 24 25  1  0  0  0  0
 24 26  1  0  0  0  0
M  END
$$$$
default_name
  -OEChem-01062215323D

 29 29  0     1  0  0  0  0  0999 V2000
   -3.6042   -3.5728    1.4576 H   0  0  0  0  0  0  0  0  0  0  0  0
   -3.5202   -2.6488    0.8866 C   0  0  0  0  0  0  0  0  0  0  0  0
   -4.2052   -1.9048    1.2896 H   0  0  0  0  0  0  0  0  0  0  0  0
   -3.7552   -2.8428   -0.1584 H   0  0  0  0  0  0  0  0  0  0  0  0
   -2.1052   -2.1358    0.9946 C   0  0  0  0  0  0  0  0  0  0  0  0
   -1.2852   -2.7288    1.6826 O   0  0  0  0  0  0  0  0  0  0  0  0
   -1.8202   -1.0288    0.3146 N   0  0  0  0  0  0  0  0  0  0  0  0
   -2.5542   -0.5788   -0.2104 H   0  0  0  0  0  0  0  0  0  0  0  0
   -0.5102   -0.3728    0.3086 C   0  0  1  0  0  0  0  0  0  0  0  0
   -0.1224   -0.3761   -0.7111 H   0  0  0  0  0  0  0  0  0  0  0  0
   -0.6771    1.0923    0.7523 C   0  0  0  0  0  0  0  0  0  0  0  0
   -1.1427    1.1160    1.7391 H   0  0  0  0  0  0  0  0  0  0  0  0
    0.3088    1.5534    0.8353 H   0  0  0  0  0  0  0  0  0  0  0  0
   -1.5127    1.9175   -0.1918 C   0  0  0  0  0  0  0  0  0  0  0  0
   -1.1177    2.4012   -1.4206 N   0  0  0  0  0  0  0  0  0  0  0  0
   -0.1926    2.3325   -1.8177 H   0  0  0  0  0  0  0  0  0  0  0  0
   -2.1804    2.9869   -1.9977 C   0  0  0  0  0  0  0  0  0  0  0  0
   -2.1803    3.4659   -2.9692 H   0  0  0  0  0  0  0  0  0  0  0  0
   -3.2534    2.8927   -1.1989 N   0  0  0  0  0  0  0  0  0  0  0  0
   -2.8406    2.2188   -0.0465 C   0  0  0  0  0  0  0  0  0  0  0  0
   -3.4659    1.9499    0.7950 H   0  0  0  0  0  0  0  0  0  0  0  0
    0.4881   -1.1375    1.1942 C   0  0  0  0  0  0  0  0  0  0  0  0
    0.4231   -1.0479    2.4199 O   0  0  0  0  0  0  0  0  0  0  0  0
    1.4204   -1.8738    0.5767 N   0  0  0  0  0  0  0  0  0  0  0  0
    1.4419   -1.8529   -0.4322 H   0  0  0  0  0  0  0  0  0  0  0  0
    2.4376   -2.6639    1.2655 C   0  0  0  0  0  0  0  0  0  0  0  0
    1.9571   -3.4097    1.9028 H   0  0  0  0  0  0  0  0  0  0  0  0
    3.0747   -3.1696    0.5393 H   0  0  0  0  0  0  0  0  0  0  0  0
    3.0508   -2.0142    1.8918 H   0  0  0  0  0  0  0  0  0  0  0  0
  5  6  2  0  0  0  0
  5  7  1  0  0  0  0
  2  3  1  0  0  0  0
  2  4  1  0  0  0  0
  2  5  1  0  0  0  0
  1  2  1  0  0  0  0
 22 23  2  0  0  0  0
 22 24  1  0  0  0  0
 20 21  1  0  0  0  0
 19 20  1  0  0  0  0
 17 18  1  0  0  0  0
 17 19  2  0  0  0  0
 15 16  1  0  0  0  0
 15 17  1  0  0  0  0
 14 15  1  0  0  0  0
 14 20  2  0  0  0  0
 11 12  1  0  0  0  0
 11 13  1  0  0  0  0
 11 14  1  0  0  0  0
  9 10  1  0  0  0  0
  9 11  1  0  0  0  0
  9 22  1  0  0  0  0
  7  8  1  0  0  0  0
  7  9  1  0  0  0  0
 26 27  1  0  0  0  0
 26 28  1  0  0  0  0
 26 29  1  0  0  0  0
 24 25  1  0  0  0  0
 24 26  1  0  0  0  0
M  END
$$$$
default_name
  -OEChem-01062215323D

 29 29  0     1  0  0  0  0  0999 V2000
   -3.6042   -3.5728    1.4576 H   0  0  0  0  0  0  0  0  0  0  0  0
   -3.5202   -2.6488    0.8866 C   0  0  0  0  0  0  0  0  0  0  0  0
   -4.2052   -1.9048    1.2896 H   0  0  0  0  0  0  0  0  0  0  0  0
   -3.7552   -2.8428   -0.1584 H   0  0  0  0  0  0  0  0  0  0  0  0
   -2.1052   -2.1358    0.9946 C   0  0  0  0  0  0  0  0  0  0  0  0
   -1.2852   -2.7288    1.6826 O   0  0  0  0  0  0  0  0  0  0  0  0
   -1.8202   -1.0288    0.3146 N   0  0  0  0  0  0  0  0  0  0  0  0
   -2.5542   -0.5788   -0.2104 H   0  0  0  0  0  0  0  0  0  0  0  0
   -0.5102   -0.3728    0.3086 C   0  0  1  0  0  0  0  0  0  0  0  0
   -0.1224   -0.3761   -0.7111 H   0  0  0  0  0  0  0  0  0  0  0  0
   -0.6771    1.0923    0.7523 C   0  0  0  0  0  0  0  0  0  0  0  0
   -1.1427    1.1160    1.7391 H   0  0  0  0  0  0  0  0  0  0  0  0
    0.3088    1.5534    0.8353 H   0  0  0  0  0  0  0  0  0  0  0  0
   -1.5127    1.9175   -0.1918 C   0  0  0  0  0  0  0  0  0  0  0  0
   -1.1177    2.4012   -1.4206 N   0  0  0  0  0  0  0  0  0  0  0  0
   -0.1926    2.3325   -1.8177 H   0  0  0  0  0  0  0  0  0  0  0  0
   -2.1804    2.9869   -1.9977 C   0  0  0  0  0  0  0  0  0  0  0  0
   -2.1803    3.4659   -2.9692 H   0  0  0  0  0  0  0  0  0  0  0  0
   -3.2534    2.8927   -1.1989 N   0  0  0  0  0  0  0  0  0  0  0  0
   -2.8406    2.2188   -0.0465 C   0  0  0  0  0  0  0  0  0  0  0  0
   -3.4659    1.9499    0.7950 H   0  0  0  0  0  0  0  0  0  0  0  0
    0.4881   -1.1375    1.1942 C   0  0  0  0  0  0  0  0  0  0  0  0
    0.2679   -1.2771    2.3970 O   0  0  0  0  0  0  0  0  0  0  0  0
    1.5915   -1.6165    0.6061 N   0  0  0  0  0  0  0  0  0  0  0  0
    1.7261   -1.4138   -0.3735 H   0  0  0  0  0  0  0  0  0  0  0  0
    2.6351   -2.3684    1.2980 C   0  0  0  0  0  0  0  0  0  0  0  0
    2.2096   -3.2747    1.7348 H   0  0  0  0  0  0  0  0  0  0  0  0
    3.4248   -2.6441    0.5984 H   0  0  0  0  0  0  0  0  0  0  0  0
    3.0596   -1.7621    2.0996 H   0  0  0  0  0  0  0  0  0  0  0  0
  5  6  2  0  0  0  0
  5  7  1  0  0  0  0
  2  3  1  0  0  0  0
  2  4  1  0  0  0  0
  2  5  1  0  0  0  0
  1  2  1  0  0  0  0
 22 23  2  0  0  0  0
 22 24  1  0  0  0  0
 20 21  1  0  0  0  0
 19 20  1  0  0  0  0
 17 18  1  0  0  0  0
 17 19  2  0  0  0  0
 15 16  1  0  0  0  0
 15 17  1  0  0  0  0
 14 15  1  0  0  0  0
 14 20  2  0  0  0  0
 11 12  1  0  0  0  0
 11 13  1  0  0  0  0
 11 14  1  0  0  0  0
  9 10  1  0  0  0  0
  9 11  1  0  0  0  0
  9 22  1  0  0  0  0
  7  8  1  0  0  0  0
  7  9  1  0  0  0  0
 26 27  1  0  0  0  0
 26 28  1  0  0  0  0
 26 29  1  0  0  0  0
 24 25  1  0  0  0  0
 24 26  1  0  0  0  0
M  END
$$$$
default_name
  -OEChem-01062215323D

 29 29  0     1  0  0  0  0  0999 V2000
   -3.6042   -3.5728    1.4576 H   0  0  0  0  0  0  0  0  0  0  0  0
   -3.5202   -2.6488    0.8866 C   0  0  0  0  0  0  0  0  0  0  0  0
   -4.2052   -1.9048    1.2896 H   0  0  0  0  0  0  0  0  0  0  0  0
   -3.7552   -2.8428   -0.1584 H   0  0  0  0  0  0  0  0  0  0  0  0
   -2.1052   -2.1358    0.9946 C   0  0  0  0  0  0  0  0  0  0  0  0
   -1.2852   -2.7288    1.6826 O   0  0  0  0  0  0  0  0  0  0  0  0
   -1.8202   -1.0288    0.3146 N   0  0  0  0  0  0  0  0  0  0  0  0
   -2.5542   -0.5788   -0.2104 H   0  0  0  0  0  0  0  0  0  0  0  0
   -0.5102   -0.3728    0.3086 C   0  0  1  0  0  0  0  0  0  0  0  0
   -0.1224   -0.3761   -0.7111 H   0  0  0  0  0  0  0  0  0  0  0  0
   -0.6771    1.0923    0.7523 C   0  0  0  0  0  0  0  0  0  0  0  0
   -1.1427    1.1160    1.7391 H   0  0  0  0  0  0  0  0  0  0  0  0
    0.3088    1.5534    0.8353 H   0  0  0  0  0  0  0  0  0  0  0  0
   -1.5127    1.9175   -0.1918 C   0  0  0  0  0  0  0  0  0  0  0  0
   -1.1177    2.4012   -1.4206 N   0  0  0  0  0  0  0  0  0  0  0  0
   -0.1926    2.3325   -1.8177 H   0  0  0  0  0  0  0  0  0  0  0  0
   -2.1804    2.9869   -1.9977 C   0  0  0  0  0  0  0  0  0  0  0  0
   -2.1803    3.4659   -2.9692 H   0  0  0  0  0  0  0  0  0  0  0  0
   -3.2534    2.8927   -1.1989 N   0  0  0  0  0  0  0  0  0  0  0  0
   -2.8406    2.2188   -0.0465 C   0  0  0  0  0  0  0  0  0  0  0  0
   -3.4659    1.9499    0.7950 H   0  0  0  0  0  0  0  0  0  0  0  0
    0.4881   -1.1375    1.1942 C   0  0  0  0  0  0  0  0  0  0  0  0
    0.1551   -1.5177    2.3163 O   0  0  0  0  0  0  0  0  0  0  0  0
    1.7145   -1.3474    0.6998 N   0  0  0  0  0  0  0  0  0  0  0  0
    1.9277   -0.9572   -0.2065 H   0  0  0  0  0  0  0  0  0  0  0  0
    2.7777   -2.0590    1.4044 C   0  0  0  0  0  0  0  0  0  0  0  0
    2.4549   -3.0784    1.6278 H   0  0  0  0  0  0  0  0  0  0  0  0
    3.6770   -2.0943    0.7889 H   0  0  0  0  0  0  0  0  0  0  0  0
    3.0039   -1.5521    2.3438 H   0  0  0  0  0  0  0  0  0  0  0  0
  5  6  2  0  0  0  0
  5  7  1  0  0  0  0
  2  3  1  0  0  0  0
  2  4  1  0  0  0  0
  2  5  1  0  0  0  0
  1  2  1  0  0  0  0
 22 23  2  0  0  0  0
 22 24  1  0  0  0  0
 20 21  1  0  0  0  0
 19 20  1  0  0  0  0
 17 18  1  0  0  0  0
 17 19  2  0  0  0  0
 15 16  1  0  0  0  0
 15 17  1  0  0  0  0
 14 15  1  0  0  0  0
 14 20  2  0  0  0  0
 11 12  1  0  0  0  0
 11 13  1  0  0  0  0
 11 14  1  0  0  0  0
  9 10  1  0  0  0  0
  9 11  1  0  0  0  0
  9 22  1  0  0  0  0
  7  8  1  0  0  0  0
  7  9  1  0  0  0  0
 26 27  1  0  0  0  0
 26 28  1  0  0  0  0
 26 29  1  0  0  0  0
 24 25  1  0  0  0  0
 24 26  1  0  0  0  0
M  END
$$$$
default_name
  -OEChem-01062215323D

 29 29  0     1  0  0  0  0  0999 V2000
   -3.6042   -3.5728    1.4576 H   0  0  0  0  0  0  0  0  0  0  0  0
   -3.5202   -2.6488    0.8866 C   0  0  0  0  0  0  0  0  0  0  0  0
   -4.2052   -1.9048    1.2896 H   0  0  0  0  0  0  0  0  0  0  0  0
   -3.7552   -2.8428   -0.1584 H   0  0  0  0  0  0  0  0  0  0  0  0
   -2.1052   -2.1358    0.9946 C   0  0  0  0  0  0  0  0  0  0  0  0
   -1.2852   -2.7288    1.6826 O   0  0  0  0  0  0  0  0  0  0  0  0
   -1.8202   -1.0288    0.3146 N   0  0  0  0  0  0  0  0  0  0  0  0
   -2.5542   -0.5788   -0.2104 H   0  0  0  0  0  0  0  0  0  0  0  0
   -0.5102   -0.3728    0.3086 C   0  0  1  0  0  0  0  0  0  0  0  0
   -0.1224   -0.3761   -0.7111 H   0  0  0  0  0  0  0  0  0  0  0  0
   -0.6771    1.0923    0.7523 C   0  0  0  0  0  0  0  0  0  0  0  0
   -1.1427    1.1160    1.7391 H   0  0  0  0  0  0  0  0  0  0  0  0
    0.3088    1.5534    0.8353 H   0  0  0  0  0  0  0  0  0  0  0  0
   -1.5127    1.9175   -0.1918 C   0  0  0  0  0  0  0  0  0  0  0  0
   -1.1177    2.4012   -1.4206 N   0  0  0  0  0  0  0  0  0  0  0  0
   -0.1926    2.3325   -1.8177 H   0  0  0  0  0  0  0  0  0  0  0  0
   -2.1804    2.9869   -1.9977 C   0  0  0  0  0  0  0  0  0  0  0  0
   -2.1803    3.4659   -2.9692 H   0  0  0  0  0  0  0  0  0  0  0  0
   -3.2534    2.8927   -1.1989 N   0  0  0  0  0  0  0  0  0  0  0  0
   -2.8406    2.2188   -0.0465 C   0  0  0  0  0  0  0  0  0  0  0  0
   -3.4659    1.9499    0.7950 H   0  0  0  0  0  0  0  0  0  0  0  0
    0.4881   -1.1375    1.1942 C   0  0  0  0  0  0  0  0  0  0  0  0
    0.0924   -1.7534    2.1835 O   0  0  0  0  0  0  0  0  0  0  0  0
    1.7813   -1.0849    0.8512 N   0  0  0  0  0  0  0  0  0  0  0  0
    2.0328   -0.5142    0.0575 H   0  0  0  0  0  0  0  0  0  0  0  0
    2.8556   -1.7567    1.5776 C   0  0  0  0  0  0  0  0  0  0  0  0
    2.6764   -2.8342    1.5889 H   0  0  0  0  0  0  0  0  0  0  0  0
    3.8142   -1.5576    1.0977 H   0  0  0  0  0  0  0  0  0  0  0  0
    2.8873   -1.3986    2.6078 H   0  0  0  0  0  0  0  0  0  0  0  0
  5  6  2  0  0  0  0
  5  7  1  0  0  0  0
  2  3  1  0  0  0  0
  2  4  1  0  0  0  0
  2  5  1  0  0  0  0
  1  2  1  0  0  0  0
 22 23  2  0  0  0  0
 22 24  1  0  0  0  0
 20 21  1  0  0  0  0
 19 20  1  0  0  0  0
 17 18  1  0  0  0  0
 17 19  2  0  0  0  0
 15 16  1  0  0  0  0
 15 17  1  0  0  0  0
 14 15  1  0  0  0  0
 14 20  2  0  0  0  0
 11 12  1  0  0  0  0
 11 13  1  0  0  0  0
 11 14  1  0  0  0  0
  9 10  1  0  0  0  0
  9 11  1  0  0  0  0
  9 22  1  0  0  0  0
  7  8  1  0  0  0  0
  7  9  1  0  0  0  0
 26 27  1  0  0  0  0
 26 28  1  0  0  0  0
 26 29  1  0  0  0  0
 24 25  1  0  0  0  0
 24 26  1  0  0  0  0
M  END
$$$$
default_name
  -OEChem-01062215323D

 29 29  0     1  0  0  0  0  0999 V2000
   -3.6042   -3.5728    1.4576 H   0  0  0  0  0  0  0  0  0  0  0  0
   -3.5202   -2.6488    0.8866 C   0  0  0  0  0  0  0  0  0  0  0  0
   -4.2052   -1.9048    1.2896 H   0  0  0  0  0  0  0  0  0  0  0  0
   -3.7552   -2.8428   -0.1584 H   0  0  0  0  0  0  0  0  0  0  0  0
   -2.1052   -2.1358    0.9946 C   0  0  0  0  0  0  0  0  0  0  0  0
   -1.2852   -2.7288    1.6826 O   0  0  0  0  0  0  0  0  0  0  0  0
   -1.8202   -1.0288    0.3146 N   0  0  0  0  0  0  0  0  0  0  0  0
   -2.5542   -0.5788   -0.2104 H   0  0  0  0  0  0  0  0  0  0  0  0
   -0.5102   -0.3728    0.3086 C   0  0  1  0  0  0  0  0  0  0  0  0
   -0.1224   -0.3761   -0.7111 H   0  0  0  0  0  0  0  0  0  0  0  0
   -0.6771    1.0923    0.7523 C   0  0  0  0  0  0  0  0  0  0  0  0
   -1.1427    1.1160    1.7391 H   0  0  0  0  0  0  0  0  0  0  0  0
    0.3088    1.5534    0.8353 H   0  0  0  0  0  0  0  0  0  0  0  0
   -1.5127    1.9175   -0.1918 C   0  0  0  0  0  0  0  0  0  0  0  0
   -1.1177    2.4012   -1.4206 N   0  0  0  0  0  0  0  0  0  0  0  0
   -0.1926    2.3325   -1.8177 H   0  0  0  0  0  0  0  0  0  0  0  0
   -2.1804    2.9869   -1.9977 C   0  0  0  0  0  0  0  0  0  0  0  0
   -2.1803    3.4659   -2.9692 H   0  0  0  0  0  0  0  0  0  0  0  0
   -3.2534    2.8927   -1.1989 N   0  0  0  0  0  0  0  0  0  0  0  0
   -2.8406    2.2188   -0.0465 C   0  0  0  0  0  0  0  0  0  0  0  0
   -3.4659    1.9499    0.7950 H   0  0  0  0  0  0  0  0  0  0  0  0
    0.4881   -1.1375    1.1942 C   0  0  0  0  0  0  0  0  0  0  0  0
    0.0840   -1.9680    2.0076 O   0  0  0  0  0  0  0  0  0  0  0  0
    1.7871   -0.8468    1.0502 N   0  0  0  0  0  0  0  0  0  0  0  0
    2.0344   -0.1150    0.4005 H   0  0  0  0  0  0  0  0  0  0  0  0
    2.8635   -1.4823    1.8057 C   0  0  0  0  0  0  0  0  0  0  0  0
    2.8590   -2.5588    1.6209 H   0  0  0  0  0  0  0  0  0  0  0  0
    3.8270   -1.0706    1.5038 H   0  0  0  0  0  0  0  0  0  0  0  0
    2.7179   -1.3120    2.8736 H   0  0  0  0  0  0  0  0  0  0  0  0
  5  6  2  0  0  0  0
  5  7  1  0  0  0  0
  2  3  1  0  0  0  0
  2  4  1  0  0  0  0
  2  5  1  0  0  0  0
  1  2  1  0  0  0  0
 22 23  2  0  0  0  0
 22 24  1  0  0  0  0
 20 21  1  0  0  0  0
 19 20  1  0  0  0  0
 17 18  1  0  0  0  0
 17 19  2  0  0  0  0
 15 16  1  0  0  0  0
 15 17  1  0  0  0  0
 14 15  1  0  0  0  0
 14 20  2  0  0  0  0
 11 12  1  0  0  0  0
 11 13  1  0  0  0  0
 11 14  1  0  0  0  0
  9 10  1  0  0  0  0
  9 11  1  0  0  0  0
  9 22  1  0  0  0  0
  7  8  1  0  0  0  0
  7  9  1  0  0  0  0
 26 27  1  0  0  0  0
 26 28  1  0  0  0  0
 26 29  1  0  0  0  0
 24 25  1  0  0  0  0
 24 26  1  0  0  0  0
M  END
$$$$
default_name
  -OEChem-01062215323D

 29 29  0     1  0  0  0  0  0999 V2000
   -3.6042   -3.5728    1.4576 H   0  0  0  0  0  0  0  0  0  0  0  0
   -3.5202   -2.6488    0.8866 C   0  0  0  0  0  0  0  0  0  0  0  0
   -4.2052   -1.9048    1.2896 H   0  0  0  0  0  0  0  0  0  0  0  0
   -3.7552   -2.8428   -0.1584 H   0  0  0  0  0  0  0  0  0  0  0  0
   -2.1052   -2.1358    0.9946 C   0  0  0  0  0  0  0  0  0  0  0  0
   -1.2852   -2.7288    1.6826 O   0  0  0  0  0  0  0  0  0  0  0  0
   -1.8202   -1.0288    0.3146 N   0  0  0  0  0  0  0  0  0  0  0  0
   -2.5542   -0.5788   -0.2104 H   0  0  0  0  0  0  0  0  0  0  0  0
   -0.5102   -0.3728    0.3086 C   0  0  1  0  0  0  0  0  0  0  0  0
   -0.2431   -0.1351   -0.7221 H   0  0  0  0  0  0  0  0  0  0  0  0
   -0.6031    0.9476    1.0955 C   0  0  0  0  0  0  0  0  0  0  0  0
   -0.9509    0.7363    2.1082 H   0  0  0  0  0  0  0  0  0  0  0  0
    0.3925    1.3893    1.1679 H   0  0  0  0  0  0  0  0  0  0  0  0
   -1.5301    1.9583    0.4714 C   0  0  0  0  0  0  0  0  0  0  0  0
   -1.2730    2.7182   -0.6494 N   0  0  0  0  0  0  0  0  0  0  0  0
   -0.4012    2.7550   -1.1562 H   0  0  0  0  0  0  0  0  0  0  0  0
   -2.3865    3.4082   -0.9481 C   0  0  0  0  0  0  0  0  0  0  0  0
   -2.4919    4.0991   -1.7757 H   0  0  0  0  0  0  0  0  0  0  0  0
   -3.3611    3.1182   -0.0739 N   0  0  0  0  0  0  0  0  0  0  0  0
   -2.8277    2.2011    0.8355 C   0  0  0  0  0  0  0  0  0  0  0  0
   -3.3553    1.7368    1.6587 H   0  0  0  0  0  0  0  0  0  0  0  0
    0.5726   -1.3091    0.8712 C   0  0  0  0  0  0  0  0  0  0  0  0
    0.2728   -2.4361    1.2648 O   0  0  0  0  0  0  0  0  0  0  0  0
    1.8251   -0.8393    0.9259 N   0  0  0  0  0  0  0  0  0  0  0  0
    1.9811    0.1145    0.6346 H   0  0  0  0  0  0  0  0  0  0  0  0
    2.9696   -1.5971    1.4249 C   0  0  0  0  0  0  0  0  0  0  0  0
    3.1019   -2.5023    0.8281 H   0  0  0  0  0  0  0  0  0  0  0  0
    3.8748   -0.9922    1.3645 H   0  0  0  0  0  0  0  0  0  0  0  0
    2.7987   -1.8866    2.4629 H   0  0  0  0  0  0  0  0  0  0  0  0
  5  6  2  0  0  0  0
  5  7  1  0  0  0  0
  2  3  1  0  0  0  0
  2  4  1  0  0  0  0
  2  5  1  0  0  0  0
  1  2  1  0  0  0  0
 22 23  2  0  0  0  0
 22 24  1  0  0  0  0
 20 21  1  0  0  0  0
 19 20  1  0  0  0  0
 17 18  1  0  0  0  0
 17 19  2  0  0  0  0
 15 16  1  0  0  0  0
 15 17  1  0  0  0  0
 14 15  1  0  0  0  0
 14 20  2  0  0  0  0
 11 12  1  0  0  0  0
 11 13  1  0  0  0  0
 11 14  1  0  0  0  0
  9 10  1  0  0  0  0
  9 11  1  0  0  0  0
  9 22  1  0  0  0  0
  7  8  1  0  0  0  0
  7  9  1  0  0  0  0
 26 27  1  0  0  0  0
 26 28  1  0  0  0  0
 26 29  1  0  0  0  0
 24 25  1  0  0  0  0
 24 26  1  0  0  0  0
M  END
$$$$
default_name
  -OEChem-01062215323D

 29 29  0     1  0  0  0  0  0999 V2000
   -3.6042   -3.5728    1.4576 H   0  0  0  0  0  0  0  0  0  0  0  0
   -3.5202   -2.6488    0.8866 C   0  0  0  0  0  0  0  0  0  0  0  0
   -4.2052   -1.9048    1.2896 H   0  0  0  0  0  0  0  0  0  0  0  0
   -3.7552   -2.8428   -0.1584 H   0  0  0  0  0  0  0  0  0  0  0  0
   -2.1052   -2.1358    0.9946 C   0  0  0  0  0  0  0  0  0  0  0  0
   -1.2852   -2.7288    1.6826 O   0  0  0  0  0  0  0  0  0  0  0  0
   -1.8202   -1.0288    0.3146 N   0  0  0  0  0  0  0  0  0  0  0  0
   -2.5542   -0.5788   -0.2104 H   0  0  0  0  0  0  0  0  0  0  0  0
   -0.5102   -0.3728    0.3086 C   0  0  1  0  0  0  0  0  0  0  0  0
   -0.2431   -0.1351   -0.7221 H   0  0  0  0  0  0  0  0  0  0  0  0
   -0.6031    0.9476    1.0955 C   0  0  0  0  0  0  0  0  0  0  0  0
   -0.9509    0.7363    2.1082 H   0  0  0  0  0  0  0  0  0  0  0  0
    0.3925    1.3893    1.1679 H   0  0  0  0  0  0  0  0  0  0  0  0
   -1.5301    1.9583    0.4714 C   0  0  0  0  0  0  0  0  0  0  0  0
   -1.2730    2.7182   -0.6494 N   0  0  0  0  0  0  0  0  0  0  0  0
   -0.4012    2.7550   -1.1562 H   0  0  0  0  0  0  0  0  0  0  0  0
   -2.3865    3.4082   -0.9481 C   0  0  0  0  0  0  0  0  0  0  0  0
   -2.4919    4.0991   -1.7757 H   0  0  0  0  0  0  0  0  0  0  0  0
   -3.3611    3.1182   -0.0739 N   0  0  0  0  0  0  0  0  0  0  0  0
   -2.8277    2.2011    0.8355 C   0  0  0  0  0  0  0  0  0  0  0  0
   -3.3553    1.7368    1.6587 H   0  0  0  0  0  0  0  0  0  0  0  0
    0.5726   -1.3091    0.8712 C   0  0  0  0  0  0  0  0  0  0  0  0
    0.3425   -2.5106    1.0065 O   0  0  0  0  0  0  0  0  0  0  0  0
    1.7441   -0.7595    1.2147 N   0  0  0  0  0  0  0  0  0  0  0  0
    1.8365    0.2417    1.1244 H   0  0  0  0  0  0  0  0  0  0  0  0
    2.8775   -1.5040    1.7570 C   0  0  0  0  0  0  0  0  0  0  0  0
    3.1952   -2.2660    1.0417 H   0  0  0  0  0  0  0  0  0  0  0  0
    3.7101   -0.8281    1.9545 H   0  0  0  0  0  0  0  0  0  0  0  0
    2.5867   -1.9981    2.6854 H   0  0  0  0  0  0  0  0  0  0  0  0
  5  6  2  0  0  0  0
  5  7  1  0  0  0  0
  2  3  1  0  0  0  0
  2  4  1  0  0  0  0
  2  5  1  0  0  0  0
  1  2  1  0  0  0  0
 22 23  2  0  0  0  0
 22 24  1  0  0  0  0
 20 21  1  0  0  0  0
 19 20  1  0  0  0  0
 17 18  1  0  0  0  0
 17 19  2  0  0  0  0
 15 16  1  0  0  0  0
 15 17  1  0  0  0  0
 14 15  1  0  0  0  0
 14 20  2  0  0  0  0
 11 12  1  0  0  0  0
 11 13  1  0  0  0  0
 11 14  1  0  0  0  0
  9 10  1  0  0  0  0
  9 11  1  0  0  0  0
  9 22  1  0  0  0  0
  7  8  1  0  0  0  0
  7  9  1  0  0  0  0
 26 27  1  0  0  0  0
 26 28  1  0  0  0  0
 26 29  1  0  0  0  0
 24 25  1  0  0  0  0
 24 26  1  0  0  0  0
M  END
$$$$
default_name
  -OEChem-01062215323D

 29 29  0     1  0  0  0  0  0999 V2000
   -3.6042   -3.5728    1.4576 H   0  0  0  0  0  0  0  0  0  0  0  0
   -3.5202   -2.6488    0.8866 C   0  0  0  0  0  0  0  0  0  0  0  0
   -4.2052   -1.9048    1.2896 H   0  0  0  0  0  0  0  0  0  0  0  0
   -3.7552   -2.8428   -0.1584 H   0  0  0  0  0  0  0  0  0  0  0  0
   -2.1052   -2.1358    0.9946 C   0  0  0  0  0  0  0  0  0  0  0  0
   -1.2852   -2.7288    1.6826 O   0  0  0  0  0  0  0  0  0  0  0  0
   -1.8202   -1.0288    0.3146 N   0  0  0  0  0  0  0  0  0  0  0  0
   -2.5542   -0.5788   -0.2104 H   0  0  0  0  0  0  0  0  0  0  0  0
   -0.5102   -0.3728    0.3086 C   0  0  1  0  0  0  0  0  0  0  0  0
   -0.2431   -0.1351   -0.7221 H   0  0  0  0  0  0  0  0  0  0  0  0
   -0.6031    0.9476    1.0955 C   0  0  0  0  0  0  0  0  0  0  0  0
   -0.9509    0.7363    2.1082 H   0  0  0  0  0  0  0  0  0  0  0  0
    0.3925    1.3893    1.1679 H   0  0  0  0  0  0  0  0  0  0  0  0
   -1.5301    1.9583    0.4714 C   0  0  0  0  0  0  0  0  0  0  0  0
   -1.2730    2.7182   -0.6494 N   0  0  0  0  0  0  0  0  0  0  0  0
   -0.4012    2.7550   -1.1562 H   0  0  0  0  0  0  0  0  0  0  0  0
   -2.3865    3.4082   -0.9481 C   0  0  0  0  0  0  0  0  0  0  0  0
   -2.4919    4.0991   -1.7757 H   0  0  0  0  0  0  0  0  0  0  0  0
   -3.3611    3.1182   -0.0739 N   0  0  0  0  0  0  0  0  0  0  0  0
   -2.8277    2.2011    0.8355 C   0  0  0  0  0  0  0  0  0  0  0  0
   -3.3553    1.7368    1.6587 H   0  0  0  0  0  0  0  0  0  0  0  0
    0.5726   -1.3091    0.8712 C   0  0  0  0  0  0  0  0  0  0  0  0
    0.4576   -2.5289    0.7544 O   0  0  0  0  0  0  0  0  0  0  0  0
    1.6128   -0.7426    1.4954 N   0  0  0  0  0  0  0  0  0  0  0  0
    1.6076    0.2616    1.5980 H   0  0  0  0  0  0  0  0  0  0  0  0
    2.7274   -1.4834    2.0802 C   0  0  0  0  0  0  0  0  0  0  0  0
    3.2294   -2.0679    1.3058 H   0  0  0  0  0  0  0  0  0  0  0  0
    3.4424   -0.7928    2.5284 H   0  0  0  0  0  0  0  0  0  0  0  0
    2.3575   -2.1664    2.8465 H   0  0  0  0  0  0  0  0  0  0  0  0
  5  6  2  0  0  0  0
  5  7  1  0  0  0  0
  2  3  1  0  0  0  0
  2  4  1  0  0  0  0
  2  5  1  0  0  0  0
  1  2  1  0  0  0  0
 22 23  2  0  0  0  0
 22 24  1  0  0  0  0
 20 21  1  0  0  0  0
 19 20  1  0  0  0  0
 17 18  1  0  0  0  0
 17 19  2  0  0  0  0
 15 16  1  0  0  0  0
 15 17  1  0  0  0  0
 14 15  1  0  0  0  0
 14 20  2  0  0  0  0
 11 12  1  0  0  0  0
 11 13  1  0  0  0  0
 11 14  1  0  0  0  0
  9 10  1  0  0  0  0
  9 11  1  0  0  0  0
  9 22  1  0  0  0  0
  7  8  1  0  0  0  0
  7  9  1  0  0  0  0
 26 27  1  0  0  0  0
 26 28  1  0  0  0  0
 26 29  1  0  0  0  0
 24 25  1  0  0  0  0
 24 26  1  0  0  0  0
M  END
$$$$
default_name
  -OEChem-01062215323D

 29 29  0     1  0  0  0  0  0999 V2000
   -3.6042   -3.5728    1.4576 H   0  0  0  0  0  0  0  0  0  0  0  0
   -3.5202   -2.6488    0.8866 C   0  0  0  0  0  0  0  0  0  0  0  0
   -4.2052   -1.9048    1.2896 H   0  0  0  0  0  0  0  0  0  0  0  0
   -3.7552   -2.8428   -0.1584 H   0  0  0  0  0  0  0  0  0  0  0  0
   -2.1052   -2.1358    0.9946 C   0  0  0  0  0  0  0  0  0  0  0  0
   -1.2852   -2.7288    1.6826 O   0  0  0  0  0  0  0  0  0  0  0  0
   -1.8202   -1.0288    0.3146 N   0  0  0  0  0  0  0  0  0  0  0  0
   -2.5542   -0.5788   -0.2104 H   0  0  0  0  0  0  0  0  0  0  0  0
   -0.5102   -0.3728    0.3086 C   0  0  1  0  0  0  0  0  0  0  0  0
   -0.2431   -0.1351   -0.7221 H   0  0  0  0  0  0  0  0  0  0  0  0
   -0.6031    0.9476    1.0955 C   0  0  0  0  0  0  0  0  0  0  0  0
   -0.9509    0.7363    2.1082 H   0  0  0  0  0  0  0  0  0  0  0  0
    0.3925    1.3893    1.1679 H   0  0  0  0  0  0  0  0  0  0  0  0
   -1.5301    1.9583    0.4714 C   0  0  0  0  0  0  0  0  0  0  0  0
   -1.2730    2.7182   -0.6494 N   0  0  0  0  0  0  0  0  0  0  0  0
   -0.4012    2.7550   -1.1562 H   0  0  0  0  0  0  0  0  0  0  0  0
   -2.3865    3.4082   -0.9481 C   0  0  0  0  0  0  0  0  0  0  0  0
   -2.4919    4.0991   -1.7757 H   0  0  0  0  0  0  0  0  0  0  0  0
   -3.3611    3.1182   -0.0739 N   0  0  0  0  0  0  0  0  0  0  0  0
   -2.8277    2.2011    0.8355 C   0  0  0  0  0  0  0  0  0  0  0  0
   -3.3553    1.7368    1.6587 H   0  0  0  0  0  0  0  0  0  0  0  0
    0.5726   -1.3091    0.8712 C   0  0  0  0  0  0  0  0  0  0  0  0
    0.6103   -2.4898    0.5258 O   0  0  0  0  0  0  0  0  0  0  0  0
    1.4402   -0.7899    1.7489 N   0  0  0  0  0  0  0  0  0  0  0  0
    1.3101    0.1728    2.0230 H   0  0  0  0  0  0  0  0  0  0  0  0
    2.5296   -1.5366    2.3725 C   0  0  0  0  0  0  0  0  0  0  0  0
    3.2020   -1.9213    1.6024 H   0  0  0  0  0  0  0  0  0  0  0  0
    3.0901   -0.8887    3.0470 H   0  0  0  0  0  0  0  0  0  0  0  0
    2.1266   -2.3800    2.9354 H   0  0  0  0  0  0  0  0  0  0  0  0
  5  6  2  0  0  0  0
  5  7  1  0  0  0  0
  2  3  1  0  0  0  0
  2  4  1  0  0  0  0
  2  5  1  0  0  0  0
  1  2  1  0  0  0  0
 22 23  2  0  0  0  0
 22 24  1  0  0  0  0
 20 21  1  0  0  0  0
 19 20  1  0  0  0  0
 17 18  1  0  0  0  0
 17 19  2  0  0  0  0
 15 16  1  0  0  0  0
 15 17  1  0  0  0  0
 14 15  1  0  0  0  0
 14 20  2  0  0  0  0
 11 12  1  0  0  0  0
 11 13  1  0  0  0  0
 11 14  1  0  0  0  0
  9 10  1  0  0  0  0
  9 11  1  0  0  0  0
  9 22  1  0  0  0  0
  7  8  1  0  0  0  0
  7  9  1  0  0  0  0
 26 27  1  0  0  0  0
 26 28  1  0  0  0  0
 26 29  1  0  0  0  0
 24 25  1  0  0  0  0
 24 26  1  0  0  0  0
M  END
$$$$
default_name
  -OEChem-01062215323D

 29 29  0     1  0  0  0  0  0999 V2000
   -3.6042   -3.5728    1.4576 H   0  0  0  0  0  0  0  0  0  0  0  0
   -3.5202   -2.6488    0.8866 C   0  0  0  0  0  0  0  0  0  0  0  0
   -4.2052   -1.9048    1.2896 H   0  0  0  0  0  0  0  0  0  0  0  0
   -3.7552   -2.8428   -0.1584 H   0  0  0  0  0  0  0  0  0  0  0  0
   -2.1052   -2.1358    0.9946 C   0  0  0  0  0  0  0  0  0  0  0  0
   -1.2852   -2.7288    1.6826 O   0  0  0  0  0  0  0  0  0  0  0  0
   -1.8202   -1.0288    0.3146 N   0  0  0  0  0  0  0  0  0  0  0  0
   -2.5542   -0.5788   -0.2104 H   0  0  0  0  0  0  0  0  0  0  0  0
   -0.5102   -0.3728    0.3086 C   0  0  1  0  0  0  0  0  0  0  0  0
   -0.2431   -0.1351   -0.7221 H   0  0  0  0  0  0  0  0  0  0  0  0
   -0.6031    0.9476    1.0955 C   0  0  0  0  0  0  0  0  0  0  0  0
   -0.9509    0.7363    2.1082 H   0  0  0  0  0  0  0  0  0  0  0  0
    0.3925    1.3893    1.1679 H   0  0  0  0  0  0  0  0  0  0  0  0
   -1.5301    1.9583    0.4714 C   0  0  0  0  0  0  0  0  0  0  0  0
   -1.2730    2.7182   -0.6494 N   0  0  0  0  0  0  0  0  0  0  0  0
   -0.4012    2.7550   -1.1562 H   0  0  0  0  0  0  0  0  0  0  0  0
   -2.3865    3.4082   -0.9481 C   0  0  0  0  0  0  0  0  0  0  0  0
   -2.4919    4.0991   -1.7757 H   0  0  0  0  0  0  0  0  0  0  0  0
   -3.3611    3.1182   -0.0739 N   0  0  0  0  0  0  0  0  0  0  0  0
   -2.8277    2.2011    0.8355 C   0  0  0  0  0  0  0  0  0  0  0  0
   -3.3553    1.7368    1.6587 H   0  0  0  0  0  0  0  0  0  0  0  0
    0.5726   -1.3091    0.8712 C   0  0  0  0  0  0  0  0  0  0  0  0
    0.7901   -2.3959    0.3361 O   0  0  0  0  0  0  0  0  0  0  0  0
    1.2379   -0.8982    1.9579 N   0  0  0  0  0  0  0  0  0  0  0  0
    0.9641   -0.0185    2.3704 H   0  0  0  0  0  0  0  0  0  0  0  0
    2.2974   -1.6600    2.6140 C   0  0  0  0  0  0  0  0  0  0  0  0
    3.1149   -1.8364    1.9113 H   0  0  0  0  0  0  0  0  0  0  0  0
    2.6772   -1.1090    3.4749 H   0  0  0  0  0  0  0  0  0  0  0  0
    1.9098   -2.6244    2.9460 H   0  0  0  0  0  0  0  0  0  0  0  0
  5  6  2  0  0  0  0
  5  7  1  0  0  0  0
  2  3  1  0  0  0  0
  2  4  1  0  0  0  0
  2  5  1  0  0  0  0
  1  2  1  0  0  0  0
 22 23  2  0  0  0  0
 22 24  1  0  0  0  0
 20 21  1  0  0  0  0
 19 20  1  0  0  0  0
 17 18  1  0  0  0  0
 17 19  2  0  0  0  0
 15 16  1  0  0  0  0
 15 17  1  0  0  0  0
 14 15  1  0  0  0  0
 14 20  2  0  0  0  0
 11 12  1  0  0  0  0
 11 13  1  0  0  0  0
 11 14  1  0  0  0  0
  9 10  1  0  0  0  0
  9 11  1  0  0  0  0
  9 22  1  0  0  0  0
  7  8  1  0  0  0  0
  7  9  1  0  0  0  0
 26 27  1  0  0  0  0
 26 28  1  0  0  0  0
 26 29  1  0  0  0  0
 24 25  1  0  0  0  0
 24 26  1  0  0  0  0
M  END
$$$$
default_name
  -OEChem-01062215323D

 29 29  0     1  0  0  0  0  0999 V2000
   -3.6042   -3.5728    1.4576 H   0  0  0  0  0  0  0  0  0  0  0  0
   -3.5202   -2.6488    0.8866 C   0  0  0  0  0  0  0  0  0  0  0  0
   -4.2052   -1.9048    1.2896 H   0  0  0  0  0  0  0  0  0  0  0  0
   -3.7552   -2.8428   -0.1584 H   0  0  0  0  0  0  0  0  0  0  0  0
   -2.1052   -2.1358    0.9946 C   0  0  0  0  0  0  0  0  0  0  0  0
   -1.2852   -2.7288    1.6826 O   0  0  0  0  0  0  0  0  0  0  0  0
   -1.8202   -1.0288    0.3146 N   0  0  0  0  0  0  0  0  0  0  0  0
   -2.5542   -0.5788   -0.2104 H   0  0  0  0  0  0  0  0  0  0  0  0
   -0.5102   -0.3728    0.3086 C   0  0  1  0  0  0  0  0  0  0  0  0
   -0.2431   -0.1351   -0.7221 H   0  0  0  0  0  0  0  0  0  0  0  0
   -0.6031    0.9476    1.0955 C   0  0  0  0  0  0  0  0  0  0  0  0
   -0.9509    0.7363    2.1082 H   0  0  0  0  0  0  0  0  0  0  0  0
    0.3925    1.3893    1.1679 H   0  0  0  0  0  0  0  0  0  0  0  0
   -1.5301    1.9583    0.4714 C   0  0  0  0  0  0  0  0  0  0  0  0
   -1.2730    2.7182   -0.6494 N   0  0  0  0  0  0  0  0  0  0  0  0
   -0.4012    2.7550   -1.1562 H   0  0  0  0  0  0  0  0  0  0  0  0
   -2.3865    3.4082   -0.9481 C   0  0  0  0  0  0  0  0  0  0  0  0
   -2.4919    4.0991   -1.7757 H   0  0  0  0  0  0  0  0  0  0  0  0
   -3.3611    3.1182   -0.0739 N   0  0  0  0  0  0  0  0  0  0  0  0
   -2.8277    2.2011    0.8355 C   0  0  0  0  0  0  0  0  0  0  0  0
   -3.3553    1.7368    1.6587 H   0  0  0  0  0  0  0  0  0  0  0  0
    0.5726   -1.3091    0.8712 C   0  0  0  0  0  0  0  0  0  0  0  0
    0.9847   -2.2536    0.1983 O   0  0  0  0  0  0  0  0  0  0  0  0
    1.0199   -1.0600    2.1083 N   0  0  0  0  0  0  0  0  0  0  0  0
    0.5933   -0.2994    2.6166 H   0  0  0  0  0  0  0  0  0  0  0  0
    2.0468   -1.8451    2.7882 C   0  0  0  0  0  0  0  0  0  0  0  0
    2.9741   -1.8190    2.2114 H   0  0  0  0  0  0  0  0  0  0  0  0
    2.2317   -1.4390    3.7831 H   0  0  0  0  0  0  0  0  0  0  0  0
    1.7218   -2.8829    2.8775 H   0  0  0  0  0  0  0  0  0  0  0  0
  5  6  2  0  0  0  0
  5  7  1  0  0  0  0
  2  3  1  0  0  0  0
  2  4  1  0  0  0  0
  2  5  1  0  0  0  0
  1  2  1  0  0  0  0
 22 23  2  0  0  0  0
 22 24  1  0  0  0  0
 20 21  1  0  0  0  0
 19 20  1  0  0  0  0
 17 18  1  0  0  0  0
 17 19  2  0  0  0  0
 15 16  1  0  0  0  0
 15 17  1  0  0  0  0
 14 15  1  0  0  0  0
 14 20  2  0  0  0  0
 11 12  1  0  0  0  0
 11 13  1  0  0  0  0
 11 14  1  0  0  0  0
  9 10  1  0  0  0  0
  9 11  1  0  0  0  0
  9 22  1  0  0  0  0
  7  8  1  0  0  0  0
  7  9  1  0  0  0  0
 26 27  1  0  0  0  0
 26 28  1  0  0  0  0
 26 29  1  0  0  0  0
 24 25  1  0  0  0  0
 24 26  1  0  0  0  0
M  END
$$$$
default_name
  -OEChem-01062215323D

 29 29  0     1  0  0  0  0  0999 V2000
   -3.6042   -3.5728    1.4576 H   0  0  0  0  0  0  0  0  0  0  0  0
   -3.5202   -2.6488    0.8866 C   0  0  0  0  0  0  0  0  0  0  0  0
   -4.2052   -1.9048    1.2896 H   0  0  0  0  0  0  0  0  0  0  0  0
   -3.7552   -2.8428   -0.1584 H   0  0  0  0  0  0  0  0  0  0  0  0
   -2.1052   -2.1358    0.9946 C   0  0  0  0  0  0  0  0  0  0  0  0
   -1.2852   -2.7288    1.6826 O   0  0  0  0  0  0  0  0  0  0  0  0
   -1.8202   -1.0288    0.3146 N   0  0  0  0  0  0  0  0  0  0  0  0
   -2.5542   -0.5788   -0.2104 H   0  0  0  0  0  0  0  0  0  0  0  0
   -0.5102   -0.3728    0.3086 C   0  0  1  0  0  0  0  0  0  0  0  0
   -0.2431   -0.1351   -0.7221 H   0  0  0  0  0  0  0  0  0  0  0  0
   -0.6031    0.9476    1.0955 C   0  0  0  0  0  0  0  0  0  0  0  0
   -0.9509    0.7363    2.1082 H   0  0  0  0  0  0  0  0  0  0  0  0
    0.3925    1.3893    1.1679 H   0  0  0  0  0  0  0  0  0  0  0  0
   -1.5301    1.9583    0.4714 C   0  0  0  0  0  0  0  0  0  0  0  0
   -1.2730    2.7182   -0.6494 N   0  0  0  0  0  0  0  0  0  0  0  0
   -0.4012    2.7550   -1.1562 H   0  0  0  0  0  0  0  0  0  0  0  0
   -2.3865    3.4082   -0.9481 C   0  0  0  0  0  0  0  0  0  0  0  0
   -2.4919    4.0991   -1.7757 H   0  0  0  0  0  0  0  0  0  0  0  0
   -3.3611    3.1182   -0.0739 N   0  0  0  0  0  0  0  0  0  0  0  0
   -2.8277    2.2011    0.8355 C   0  0  0  0  0  0  0  0  0  0  0  0
   -3.3553    1.7368    1.6587 H   0  0  0  0  0  0  0  0  0  0  0  0
    0.5726   -1.3091    0.8712 C   0  0  0  0  0  0  0  0  0  0  0  0
    1.1810   -2.0726    0.1217 O   0  0  0  0  0  0  0  0  0  0  0  0
    0.8009   -1.2643    2.1897 N   0  0  0  0  0  0  0  0  0  0  0  0
    0.2229   -0.6507    2.7449 H   0  0  0  0  0  0  0  0  0  0  0  0
    1.7948   -2.0794    2.8832 C   0  0  0  0  0  0  0  0  0  0  0  0
    2.7891   -1.8701    2.4822 H   0  0  0  0  0  0  0  0  0  0  0  0
    1.7842   -1.8560    3.9504 H   0  0  0  0  0  0  0  0  0  0  0  0
    1.5756   -3.1379    2.7346 H   0  0  0  0  0  0  0  0  0  0  0  0
  5  6  2  0  0  0  0
  5  7  1  0  0  0  0
  2  3  1  0  0  0  0
  2  4  1  0  0  0  0
  2  5  1  0  0  0  0
  1  2  1  0  0  0  0
 22 23  2  0  0  0  0
 22 24  1  0  0  0  0
 20 21  1  0  0  0  0
 19 20  1  0  0  0  0
 17 18  1  0  0  0  0
 17 19  2  0  0  0  0
 15 16  1  0  0  0  0
 15 17  1  0  0  0  0
 14 15  1  0  0  0  0
 14 20  2  0  0  0  0
 11 12  1  0  0  0  0
 11 13  1  0  0  0  0
 11 14  1  0  0  0  0
  9 10  1  0  0  0  0
  9 11  1  0  0  0  0
  9 22  1  0  0  0  0
  7  8  1  0  0  0  0
  7  9  1  0  0  0  0
 26 27  1  0  0  0  0
 26 28  1  0  0  0  0
 26 29  1  0  0  0  0
 24 25  1  0  0  0  0
 24 26  1  0  0  0  0
M  END
$$$$
default_name
  -OEChem-01062215323D

 29 29  0     1  0  0  0  0  0999 V2000
   -3.6042   -3.5728    1.4576 H   0  0  0  0  0  0  0  0  0  0  0  0
   -3.5202   -2.6488    0.8866 C   0  0  0  0  0  0  0  0  0  0  0  0
   -4.2052   -1.9048    1.2896 H   0  0  0  0  0  0  0  0  0  0  0  0
   -3.7552   -2.8428   -0.1584 H   0  0  0  0  0  0  0  0  0  0  0  0
   -2.1052   -2.1358    0.9946 C   0  0  0  0  0  0  0  0  0  0  0  0
   -1.2852   -2.7288    1.6826 O   0  0  0  0  0  0  0  0  0  0  0  0
   -1.8202   -1.0288    0.3146 N   0  0  0  0  0  0  0  0  0  0  0  0
   -2.5542   -0.5788   -0.2104 H   0  0  0  0  0  0  0  0  0  0  0  0
   -0.5102   -0.3728    0.3086 C   0  0  1  0  0  0  0  0  0  0  0  0
   -0.2431   -0.1351   -0.7221 H   0  0  0  0  0  0  0  0  0  0  0  0
   -0.6031    0.9476    1.0955 C   0  0  0  0  0  0  0  0  0  0  0  0
   -0.9509    0.7363    2.1082 H   0  0  0  0  0  0  0  0  0  0  0  0
    0.3925    1.3893    1.1679 H   0  0  0  0  0  0  0  0  0  0  0  0
   -1.5301    1.9583    0.4714 C   0  0  0  0  0  0  0  0  0  0  0  0
   -1.2730    2.7182   -0.6494 N   0  0  0  0  0  0  0  0  0  0  0  0
   -0.4012    2.7550   -1.1562 H   0  0  0  0  0  0  0  0  0  0  0  0
   -2.3865    3.4082   -0.9481 C   0  0  0  0  0  0  0  0  0  0  0  0
   -2.4919    4.0991   -1.7757 H   0  0  0  0  0  0  0  0  0  0  0  0
   -3.3611    3.1182   -0.0739 N   0  0  0  0  0  0  0  0  0  0  0  0
   -2.8277    2.2011    0.8355 C   0  0  0  0  0  0  0  0  0  0  0  0
   -3.3553    1.7368    1.6587 H   0  0  0  0  0  0  0  0  0  0  0  0
    0.5726   -1.3091    0.8712 C   0  0  0  0  0  0  0  0  0  0  0  0
    1.3654   -1.8653    0.1117 O   0  0  0  0  0  0  0  0  0  0  0  0
    0.5960   -1.4972    2.1966 N   0  0  0  0  0  0  0  0  0  0  0  0
   -0.1218   -1.0484    2.7464 H   0  0  0  0  0  0  0  0  0  0  0  0
    1.5586   -2.3469    2.8926 C   0  0  0  0  0  0  0  0  0  0  0  0
    2.5726   -1.9864    2.7054 H   0  0  0  0  0  0  0  0  0  0  0  0
    1.3650   -2.3317    3.9656 H   0  0  0  0  0  0  0  0  0  0  0  0
    1.4809   -3.3720    2.5271 H   0  0  0  0  0  0  0  0  0  0  0  0
  5  6  2  0  0  0  0
  5  7  1  0  0  0  0
  2  3  1  0  0  0  0
  2  4  1  0  0  0  0
  2  5  1  0  0  0  0
  1  2  1  0  0  0  0
 22 23  2  0  0  0  0
 22 24  1  0  0  0  0
 20 21  1  0  0  0  0
 19 20  1  0  0  0  0
 17 18  1  0  0  0  0
 17 19  2  0  0  0  0
 15 16  1  0  0  0  0
 15 17  1  0  0  0  0
 14 15  1  0  0  0  0
 14 20  2  0  0  0  0
 11 12  1  0  0  0  0
 11 13  1  0  0  0  0
 11 14  1  0  0  0  0
  9 10  1  0  0  0  0
  9 11  1  0  0  0  0
  9 22  1  0  0  0  0
  7  8  1  0  0  0  0
  7  9  1  0  0  0  0
 26 27  1  0  0  0  0
 26 28  1  0  0  0  0
 26 29  1  0  0  0  0
 24 25  1  0  0  0  0
 24 26  1  0  0  0  0
M  END
$$$$
default_name
  -OEChem-01062215323D

 29 29  0     1  0  0  0  0  0999 V2000
   -3.6042   -3.5728    1.4576 H   0  0  0  0  0  0  0  0  0  0  0  0
   -3.5202   -2.6488    0.8866 C   0  0  0  0  0  0  0  0  0  0  0  0
   -4.2052   -1.9048    1.2896 H   0  0  0  0  0  0  0  0  0  0  0  0
   -3.7552   -2.8428   -0.1584 H   0  0  0  0  0  0  0  0  0  0  0  0
   -2.1052   -2.1358    0.9946 C   0  0  0  0  0  0  0  0  0  0  0  0
   -1.2852   -2.7288    1.6826 O   0  0  0  0  0  0  0  0  0  0  0  0
   -1.8202   -1.0288    0.3146 N   0  0  0  0  0  0  0  0  0  0  0  0
   -2.5542   -0.5788   -0.2104 H   0  0  0  0  0  0  0  0  0  0  0  0
   -0.5102   -0.3728    0.3086 C   0  0  1  0  0  0  0  0  0  0  0  0
   -0.2431   -0.1351   -0.7221 H   0  0  0  0  0  0  0  0  0  0  0  0
   -0.6031    0.9476    1.0955 C   0  0  0  0  0  0  0  0  0  0  0  0
   -0.9509    0.7363    2.1082 H   0  0  0  0  0  0  0  0  0  0  0  0
    0.3925    1.3893    1.1679 H   0  0  0  0  0  0  0  0  0  0  0  0
   -1.5301    1.9583    0.4714 C   0  0  0  0  0  0  0  0  0  0  0  0
   -1.2730    2.7182   -0.6494 N   0  0  0  0  0  0  0  0  0  0  0  0
   -0.4012    2.7550   -1.1562 H   0  0  0  0  0  0  0  0  0  0  0  0
   -2.3865    3.4082   -0.9481 C   0  0  0  0  0  0  0  0  0  0  0  0
   -2.4919    4.0991   -1.7757 H   0  0  0  0  0  0  0  0  0  0  0  0
   -3.3611    3.1182   -0.0739 N   0  0  0  0  0  0  0  0  0  0  0  0
   -2.8277    2.2011    0.8355 C   0  0  0  0  0  0  0  0  0  0  0  0
   -3.3553    1.7368    1.6587 H   0  0  0  0  0  0  0  0  0  0  0  0
    0.5726   -1.3091    0.8712 C   0  0  0  0  0  0  0  0  0  0  0  0
    1.5256   -1.6457    0.1689 O   0  0  0  0  0  0  0  0  0  0  0  0
    0.4189   -1.7429    2.1285 N   0  0  0  0  0  0  0  0  0  0  0  0
   -0.4174   -1.4655    2.6211 H   0  0  0  0  0  0  0  0  0  0  0  0
    1.3543   -2.6293    2.8158 C   0  0  0  0  0  0  0  0  0  0  0  0
    2.3394   -2.1598    2.8657 H   0  0  0  0  0  0  0  0  0  0  0  0
    1.0027   -2.8336    3.8275 H   0  0  0  0  0  0  0  0  0  0  0  0
    1.4444   -3.5693    2.2691 H   0  0  0  0  0  0  0  0  0  0  0  0
  5  6  2  0  0  0  0
  5  7  1  0  0  0  0
  2  3  1  0  0  0  0
  2  4  1  0  0  0  0
  2  5  1  0  0  0  0
  1  2  1  0  0  0  0
 22 23  2  0  0  0  0
 22 24  1  0  0  0  0
 20 21  1  0  0  0  0
 19 20  1  0  0  0  0
 17 18  1  0  0  0  0
 17 19  2  0  0  0  0
 15 16  1  0  0  0  0
 15 17  1  0  0  0  0
 14 15  1  0  0  0  0
 14 20  2  0  0  0  0
 11 12  1  0  0  0  0
 11 13  1  0  0  0  0
 11 14  1  0  0  0  0
  9 10  1  0  0  0  0
  9 11  1  0  0  0  0
  9 22  1  0  0  0  0
  7  8  1  0  0  0  0
  7  9  1  0  0  0  0
 26 27  1  0  0  0  0
 26 28  1  0  0  0  0
 26 29  1  0  0  0  0
 24 25  1  0  0  0  0
 24 26  1  0  0  0  0
M  END
$$$$
default_name
  -OEChem-01062215323D

 29 29  0     1  0  0  0  0  0999 V2000
   -3.6042   -3.5728    1.4576 H   0  0  0  0  0  0  0  0  0  0  0  0
   -3.5202   -2.6488    0.8866 C   0  0  0  0  0  0  0  0  0  0  0  0
   -4.2052   -1.9048    1.2896 H   0  0  0  0  0  0  0  0  0  0  0  0
   -3.7552   -2.8428   -0.1584 H   0  0  0  0  0  0  0  0  0  0  0  0
   -2.1052   -2.1358    0.9946 C   0  0  0  0  0  0  0  0  0  0  0  0
   -1.2852   -2.7288    1.6826 O   0  0  0  0  0  0  0  0  0  0  0  0
   -1.8202   -1.0288    0.3146 N   0  0  0  0  0  0  0  0  0  0  0  0
   -2.5542   -0.5788   -0.2104 H   0  0  0  0  0  0  0  0  0  0  0  0
   -0.5102   -0.3728    0.3086 C   0  0  1  0  0  0  0  0  0  0  0  0
   -0.2431   -0.1351   -0.7221 H   0  0  0  0  0  0  0  0  0  0  0  0
   -0.6031    0.9476    1.0955 C   0  0  0  0  0  0  0  0  0  0  0  0
   -0.9509    0.7363    2.1082 H   0  0  0  0  0  0  0  0  0  0  0  0
    0.3925    1.3893    1.1679 H   0  0  0  0  0  0  0  0  0  0  0  0
   -1.5301    1.9583    0.4714 C   0  0  0  0  0  0  0  0  0  0  0  0
   -1.2730    2.7182   -0.6494 N   0  0  0  0  0  0  0  0  0  0  0  0
   -0.4012    2.7550   -1.1562 H   0  0  0  0  0  0  0  0  0  0  0  0
   -2.3865    3.4082   -0.9481 C   0  0  0  0  0  0  0  0  0  0  0  0
   -2.4919    4.0991   -1.7757 H   0  0  0  0  0  0  0  0  0  0  0  0
   -3.3611    3.1182   -0.0739 N   0  0  0  0  0  0  0  0  0  0  0  0
   -2.8277    2.2011    0.8355 C   0  0  0  0  0  0  0  0  0  0  0  0
   -3.3553    1.7368    1.6587 H   0  0  0  0  0  0  0  0  0  0  0  0
    0.5726   -1.3091    0.8712 C   0  0  0  0  0  0  0  0  0  0  0  0
    1.6505   -1.4289    0.2894 O   0  0  0  0  0  0  0  0  0  0  0  0
    0.2819   -1.9845    1.9901 N   0  0  0  0  0  0  0  0  0  0  0  0
   -0.6436   -1.8735    2.3775 H   0  0  0  0  0  0  0  0  0  0  0  0
    1.1959   -2.9075    2.6579 C   0  0  0  0  0  0  0  0  0  0  0  0
    2.1052   -2.3786    2.9521 H   0  0  0  0  0  0  0  0  0  0  0  0
    0.7221   -3.3275    3.5456 H   0  0  0  0  0  0  0  0  0  0  0  0
    1.4684   -3.7163    1.9782 H   0  0  0  0  0  0  0  0  0  0  0  0
  5  6  2  0  0  0  0
  5  7  1  0  0  0  0
  2  3  1  0  0  0  0
  2  4  1  0  0  0  0
  2  5  1  0  0  0  0
  1  2  1  0  0  0  0
 22 23  2  0  0  0  0
 22 24  1  0  0  0  0
 20 21  1  0  0  0  0
 19 20  1  0  0  0  0
 17 18  1  0  0  0  0
 17 19  2  0  0  0  0
 15 16  1  0  0  0  0
 15 17  1  0  0  0  0
 14 15  1  0  0  0  0
 14 20  2  0  0  0  0
 11 12  1  0  0  0  0
 11 13  1  0  0  0  0
 11 14  1  0  0  0  0
  9 10  1  0  0  0  0
  9 11  1  0  0  0  0
  9 22  1  0  0  0  0
  7  8  1  0  0  0  0
  7  9  1  0  0  0  0
 26 27  1  0  0  0  0
 26 28  1  0  0  0  0
 26 29  1  0  0  0  0
 24 25  1  0  0  0  0
 24 26  1  0  0  0  0
M  END
$$$$
default_name
  -OEChem-01062215323D

 29 29  0     1  0  0  0  0  0999 V2000
   -3.6042   -3.5728    1.4576 H   0  0  0  0  0  0  0  0  0  0  0  0
   -3.5202   -2.6488    0.8866 C   0  0  0  0  0  0  0  0  0  0  0  0
   -4.2052   -1.9048    1.2896 H   0  0  0  0  0  0  0  0  0  0  0  0
   -3.7552   -2.8428   -0.1584 H   0  0  0  0  0  0  0  0  0  0  0  0
   -2.1052   -2.1358    0.9946 C   0  0  0  0  0  0  0  0  0  0  0  0
   -1.2852   -2.7288    1.6826 O   0  0  0  0  0  0  0  0  0  0  0  0
   -1.8202   -1.0288    0.3146 N   0  0  0  0  0  0  0  0  0  0  0  0
   -2.5542   -0.5788   -0.2104 H   0  0  0  0  0  0  0  0  0  0  0  0
   -0.5102   -0.3728    0.3086 C   0  0  1  0  0  0  0  0  0  0  0  0
   -0.2431   -0.1351   -0.7221 H   0  0  0  0  0  0  0  0  0  0  0  0
   -0.6031    0.9476    1.0955 C   0  0  0  0  0  0  0  0  0  0  0  0
   -0.9509    0.7363    2.1082 H   0  0  0  0  0  0  0  0  0  0  0  0
    0.3925    1.3893    1.1679 H   0  0  0  0  0  0  0  0  0  0  0  0
   -1.5301    1.9583    0.4714 C   0  0  0  0  0  0  0  0  0  0  0  0
   -1.2730    2.7182   -0.6494 N   0  0  0  0  0  0  0  0  0  0  0  0
   -0.4012    2.7550   -1.1562 H   0  0  0  0  0  0  0  0  0  0  0  0
   -2.3865    3.4082   -0.9481 C   0  0  0  0  0  0  0  0  0  0  0  0
   -2.4919    4.0991   -1.7757 H   0  0  0  0  0  0  0  0  0  0  0  0
   -3.3611    3.1182   -0.0739 N   0  0  0  0  0  0  0  0  0  0  0  0
   -2.8277    2.2011    0.8355 C   0  0  0  0  0  0  0  0  0  0  0  0
   -3.3553    1.7368    1.6587 H   0  0  0  0  0  0  0  0  0  0  0  0
    0.5726   -1.3091    0.8712 C   0  0  0  0  0  0  0  0  0  0  0  0
    1.7316   -1.2296    0.4649 O   0  0  0  0  0  0  0  0  0  0  0  0
    0.1942   -2.2056    1.7908 N   0  0  0  0  0  0  0  0  0  0  0  0
   -0.7852   -2.2447    2.0321 H   0  0  0  0  0  0  0  0  0  0  0  0
    1.0940   -3.1624    2.4297 C   0  0  0  0  0  0  0  0  0  0  0  0
    1.8861   -2.6279    2.9589 H   0  0  0  0  0  0  0  0  0  0  0  0
    0.5422   -3.7799    3.1390 H   0  0  0  0  0  0  0  0  0  0  0  0
    1.5513   -3.8031    1.6742 H   0  0  0  0  0  0  0  0  0  0  0  0
  5  6  2  0  0  0  0
  5  7  1  0  0  0  0
  2  3  1  0  0  0  0
  2  4  1  0  0  0  0
  2  5  1  0  0  0  0
  1  2  1  0  0  0  0
 22 23  2  0  0  0  0
 22 24  1  0  0  0  0
 20 21  1  0  0  0  0
 19 20  1  0  0  0  0
 17 18  1  0  0  0  0
 17 19  2  0  0  0  0
 15 16  1  0  0  0  0
 15 17  1  0  0  0  0
 14 15  1  0  0  0  0
 14 20  2  0  0  0  0
 11 12  1  0  0  0  0
 11 13  1  0  0  0  0
 11 14  1  0  0  0  0
  9 10  1  0  0  0  0
  9 11  1  0  0  0  0
  9 22  1  0  0  0  0
  7  8  1  0  0  0  0
  7  9  1  0  0  0  0
 26 27  1  0  0  0  0
 26 28  1  0  0  0  0
 26 29  1  0  0  0  0
 24 25  1  0  0  0  0
 24 26  1  0  0  0  0
M  END
$$$$
default_name
  -OEChem-01062215323D

 29 29  0     1  0  0  0  0  0999 V2000
   -3.6042   -3.5728    1.4576 H   0  0  0  0  0  0  0  0  0  0  0  0
   -3.5202   -2.6488    0.8866 C   0  0  0  0  0  0  0  0  0  0  0  0
   -4.2052   -1.9048    1.2896 H   0  0  0  0  0  0  0  0  0  0  0  0
   -3.7552   -2.8428   -0.1584 H   0  0  0  0  0  0  0  0  0  0  0  0
   -2.1052   -2.1358    0.9946 C   0  0  0  0  0  0  0  0  0  0  0  0
   -1.2852   -2.7288    1.6826 O   0  0  0  0  0  0  0  0  0  0  0  0
   -1.8202   -1.0288    0.3146 N   0  0  0  0  0  0  0  0  0  0  0  0
   -2.5542   -0.5788   -0.2104 H   0  0  0  0  0  0  0  0  0  0  0  0
   -0.5102   -0.3728    0.3086 C   0  0  1  0  0  0  0  0  0  0  0  0
   -0.2431   -0.1351   -0.7221 H   0  0  0  0  0  0  0  0  0  0  0  0
   -0.6031    0.9476    1.0955 C   0  0  0  0  0  0  0  0  0  0  0  0
   -0.9509    0.7363    2.1082 H   0  0  0  0  0  0  0  0  0  0  0  0
    0.3925    1.3893    1.1679 H   0  0  0  0  0  0  0  0  0  0  0  0
   -1.5301    1.9583    0.4714 C   0  0  0  0  0  0  0  0  0  0  0  0
   -1.2730    2.7182   -0.6494 N   0  0  0  0  0  0  0  0  0  0  0  0
   -0.4012    2.7550   -1.1562 H   0  0  0  0  0  0  0  0  0  0  0  0
   -2.3865    3.4082   -0.9481 C   0  0  0  0  0  0  0  0  0  0  0  0
   -2.4919    4.0991   -1.7757 H   0  0  0  0  0  0  0  0  0  0  0  0
   -3.3611    3.1182   -0.0739 N   0  0  0  0  0  0  0  0  0  0  0  0
   -2.8277    2.2011    0.8355 C   0  0  0  0  0  0  0  0  0  0  0  0
   -3.3553    1.7368    1.6587 H   0  0  0  0  0  0  0  0  0  0  0  0
    0.5726   -1.3091    0.8712 C   0  0  0  0  0  0  0  0  0  0  0  0
    1.7635   -1.0614    0.6836 O   0  0  0  0  0  0  0  0  0  0  0  0
    0.1619   -2.3912    1.5442 N   0  0  0  0  0  0  0  0  0  0  0  0
   -0.8323   -2.5537    1.6087 H   0  0  0  0  0  0  0  0  0  0  0  0
    1.0557   -3.3767    2.1468 C   0  0  0  0  0  0  0  0  0  0  0  0
    1.6971   -2.8907    2.8855 H   0  0  0  0  0  0  0  0  0  0  0  0
    0.4753   -4.1597    2.6356 H   0  0  0  0  0  0  0  0  0  0  0  0
    1.6876   -3.8236    1.3778 H   0  0  0  0  0  0  0  0  0  0  0  0
  5  6  2  0  0  0  0
  5  7  1  0  0  0  0
  2  3  1  0  0  0  0
  2  4  1  0  0  0  0
  2  5  1  0  0  0  0
  1  2  1  0  0  0  0
 22 23  2  0  0  0  0
 22 24  1  0  0  0  0
 20 21  1  0  0  0  0
 19 20  1  0  0  0  0
 17 18  1  0  0  0  0
 17 19  2  0  0  0  0
 15 16  1  0  0  0  0
 15 17  1  0  0  0  0
 14 15  1  0  0  0  0
 14 20  2  0  0  0  0
 11 12  1  0  0  0  0
 11 13  1  0  0  0  0
 11 14  1  0  0  0  0
  9 10  1  0  0  0  0
  9 11  1  0  0  0  0
  9 22  1  0  0  0  0
  7  8  1  0  0  0  0
  7  9  1  0  0  0  0
 26 27  1  0  0  0  0
 26 28  1  0  0  0  0
 26 29  1  0  0  0  0
 24 25  1  0  0  0  0
 24 26  1  0  0  0  0
M  END
$$$$
default_name
  -OEChem-01062215323D

 29 29  0     1  0  0  0  0  0999 V2000
   -3.6042   -3.5728    1.4576 H   0  0  0  0  0  0  0  0  0  0  0  0
   -3.5202   -2.6488    0.8866 C   0  0  0  0  0  0  0  0  0  0  0  0
   -4.2052   -1.9048    1.2896 H   0  0  0  0  0  0  0  0  0  0  0  0
   -3.7552   -2.8428   -0.1584 H   0  0  0  0  0  0  0  0  0  0  0  0
   -2.1052   -2.1358    0.9946 C   0  0  0  0  0  0  0  0  0  0  0  0
   -1.2852   -2.7288    1.6826 O   0  0  0  0  0  0  0  0  0  0  0  0
   -1.8202   -1.0288    0.3146 N   0  0  0  0  0  0  0  0  0  0  0  0
   -2.5542   -0.5788   -0.2104 H   0  0  0  0  0  0  0  0  0  0  0  0
   -0.5102   -0.3728    0.3086 C   0  0  1  0  0  0  0  0  0  0  0  0
   -0.2431   -0.1351   -0.7221 H   0  0  0  0  0  0  0  0  0  0  0  0
   -0.6031    0.9476    1.0955 C   0  0  0  0  0  0  0  0  0  0  0  0
   -0.9509    0.7363    2.1082 H   0  0  0  0  0  0  0  0  0  0  0  0
    0.3925    1.3893    1.1679 H   0  0  0  0  0  0  0  0  0  0  0  0
   -1.5301    1.9583    0.4714 C   0  0  0  0  0  0  0  0  0  0  0  0
   -1.2730    2.7182   -0.6494 N   0  0  0  0  0  0  0  0  0  0  0  0
   -0.4012    2.7550   -1.1562 H   0  0  0  0  0  0  0  0  0  0  0  0
   -2.3865    3.4082   -0.9481 C   0  0  0  0  0  0  0  0  0  0  0  0
   -2.4919    4.0991   -1.7757 H   0  0  0  0  0  0  0  0  0  0  0  0
   -3.3611    3.1182   -0.0739 N   0  0  0  0  0  0  0  0  0  0  0  0
   -2.8277    2.2011    0.8355 C   0  0  0  0  0  0  0  0  0  0  0  0
   -3.3553    1.7368    1.6587 H   0  0  0  0  0  0  0  0  0  0  0  0
    0.5726   -1.3091    0.8712 C   0  0  0  0  0  0  0  0  0  0  0  0
    1.7438   -0.9357    0.9305 O   0  0  0  0  0  0  0  0  0  0  0  0
    0.1871   -2.5286    1.2670 N   0  0  0  0  0  0  0  0  0  0  0  0
   -0.7819   -2.7794    1.1359 H   0  0  0  0  0  0  0  0  0  0  0  0
    1.0835   -3.5357    1.8285 C   0  0  0  0  0  0  0  0  0  0  0  0
    1.5509   -3.1490    2.7369 H   0  0  0  0  0  0  0  0  0  0  0  0
    0.5259   -4.4413    2.0696 H   0  0  0  0  0  0  0  0  0  0  0  0
    1.8678   -3.7766    1.1092 H   0  0  0  0  0  0  0  0  0  0  0  0
  5  6  2  0  0  0  0
  5  7  1  0  0  0  0
  2  3  1  0  0  0  0
  2  4  1  0  0  0  0
  2  5  1  0  0  0  0
  1  2  1  0  0  0  0
 22 23  2  0  0  0  0
 22 24  1  0  0  0  0
 20 21  1  0  0  0  0
 19 20  1  0  0  0  0
 17 18  1  0  0  0  0
 17 19  2  0  0  0  0
 15 16  1  0  0  0  0
 15 17  1  0  0  0  0
 14 15  1  0  0  0  0
 14 20  2  0  0  0  0
 11 12  1  0  0  0  0
 11 13  1  0  0  0  0
 11 14  1  0  0  0  0
  9 10  1  0  0  0  0
  9 11  1  0  0  0  0
  9 22  1  0  0  0  0
  7  8  1  0  0  0  0
  7  9  1  0  0  0  0
 26 27  1  0  0  0  0
 26 28  1  0  0  0  0
 26 29  1  0  0  0  0
 24 25  1  0  0  0  0
 24 26  1  0  0  0  0
M  END
$$$$
default_name
  -OEChem-01062215323D

 29 29  0     1  0  0  0  0  0999 V2000
   -3.6042   -3.5728    1.4576 H   0  0  0  0  0  0  0  0  0  0  0  0
   -3.5202   -2.6488    0.8866 C   0  0  0  0  0  0  0  0  0  0  0  0
   -4.2052   -1.9048    1.2896 H   0  0  0  0  0  0  0  0  0  0  0  0
   -3.7552   -2.8428   -0.1584 H   0  0  0  0  0  0  0  0  0  0  0  0
   -2.1052   -2.1358    0.9946 C   0  0  0  0  0  0  0  0  0  0  0  0
   -1.2852   -2.7288    1.6826 O   0  0  0  0  0  0  0  0  0  0  0  0
   -1.8202   -1.0288    0.3146 N   0  0  0  0  0  0  0  0  0  0  0  0
   -2.5542   -0.5788   -0.2104 H   0  0  0  0  0  0  0  0  0  0  0  0
   -0.5102   -0.3728    0.3086 C   0  0  1  0  0  0  0  0  0  0  0  0
   -0.2431   -0.1351   -0.7221 H   0  0  0  0  0  0  0  0  0  0  0  0
   -0.6031    0.9476    1.0955 C   0  0  0  0  0  0  0  0  0  0  0  0
   -0.9509    0.7363    2.1082 H   0  0  0  0  0  0  0  0  0  0  0  0
    0.3925    1.3893    1.1679 H   0  0  0  0  0  0  0  0  0  0  0  0
   -1.5301    1.9583    0.4714 C   0  0  0  0  0  0  0  0  0  0  0  0
   -1.2730    2.7182   -0.6494 N   0  0  0  0  0  0  0  0  0  0  0  0
   -0.4012    2.7550   -1.1562 H   0  0  0  0  0  0  0  0  0  0  0  0
   -2.3865    3.4082   -0.9481 C   0  0  0  0  0  0  0  0  0  0  0  0
   -2.4919    4.0991   -1.7757 H   0  0  0  0  0  0  0  0  0  0  0  0
   -3.3611    3.1182   -0.0739 N   0  0  0  0  0  0  0  0  0  0  0  0
   -2.8277    2.2011    0.8355 C   0  0  0  0  0  0  0  0  0  0  0  0
   -3.3553    1.7368    1.6587 H   0  0  0  0  0  0  0  0  0  0  0  0
    0.5726   -1.3091    0.8712 C   0  0  0  0  0  0  0  0  0  0  0  0
    1.6741   -0.8612    1.1887 O   0  0  0  0  0  0  0  0  0  0  0  0
    0.2681   -2.6085    0.9783 N   0  0  0  0  0  0  0  0  0  0  0  0
   -0.6373   -2.9066    0.6460 H   0  0  0  0  0  0  0  0  0  0  0  0
    1.1756   -3.6288    1.4964 C   0  0  0  0  0  0  0  0  0  0  0  0
    1.4576   -3.3853    2.5233 H   0  0  0  0  0  0  0  0  0  0  0  0
    0.6907   -4.6053    1.4795 H   0  0  0  0  0  0  0  0  0  0  0  0
    2.0798   -3.6651    0.8867 H   0  0  0  0  0  0  0  0  0  0  0  0
  5  6  2  0  0  0  0
  5  7  1  0  0  0  0
  2  3  1  0  0  0  0
  2  4  1  0  0  0  0
  2  5  1  0  0  0  0
  1  2  1  0  0  0  0
 22 23  2  0  0  0  0
 22 24  1  0  0  0  0
 20 21  1  0  0  0  0
 19 20  1  0  0  0  0
 17 18  1  0  0  0  0
 17 19  2  0  0  0  0
 15 16  1  0  0  0  0
 15 17  1  0  0  0  0
 14 15  1  0  0  0  0
 14 20  2  0  0  0  0
 11 12  1  0  0  0  0
 11 13  1  0  0  0  0
 11 14  1  0  0  0  0
  9 10  1  0  0  0  0
  9 11  1  0  0  0  0
  9 22  1  0  0  0  0
  7  8  1  0  0  0  0
  7  9  1  0  0  0  0
 26 27  1  0  0  0  0
 26 28  1  0  0  0  0
 26 29  1  0  0  0  0
 24 25  1  0  0  0  0
 24 26  1  0  0  0  0
M  END
$$$$
default_name
  -OEChem-01062215323D

 29 29  0     1  0  0  0  0  0999 V2000
   -3.6042   -3.5728    1.4576 H   0  0  0  0  0  0  0  0  0  0  0  0
   -3.5202   -2.6488    0.8866 C   0  0  0  0  0  0  0  0  0  0  0  0
   -4.2052   -1.9048    1.2896 H   0  0  0  0  0  0  0  0  0  0  0  0
   -3.7552   -2.8428   -0.1584 H   0  0  0  0  0  0  0  0  0  0  0  0
   -2.1052   -2.1358    0.9946 C   0  0  0  0  0  0  0  0  0  0  0  0
   -1.2852   -2.7288    1.6826 O   0  0  0  0  0  0  0  0  0  0  0  0
   -1.8202   -1.0288    0.3146 N   0  0  0  0  0  0  0  0  0  0  0  0
   -2.5542   -0.5788   -0.2104 H   0  0  0  0  0  0  0  0  0  0  0  0
   -0.5102   -0.3728    0.3086 C   0  0  1  0  0  0  0  0  0  0  0  0
   -0.2431   -0.1351   -0.7221 H   0  0  0  0  0  0  0  0  0  0  0  0
   -0.6031    0.9476    1.0955 C   0  0  0  0  0  0  0  0  0  0  0  0
   -0.9509    0.7363    2.1082 H   0  0  0  0  0  0  0  0  0  0  0  0
    0.3925    1.3893    1.1679 H   0  0  0  0  0  0  0  0  0  0  0  0
   -1.5301    1.9583    0.4714 C   0  0  0  0  0  0  0  0  0  0  0  0
   -1.2730    2.7182   -0.6494 N   0  0  0  0  0  0  0  0  0  0  0  0
   -0.4012    2.7550   -1.1562 H   0  0  0  0  0  0  0  0  0  0  0  0
   -2.3865    3.4082   -0.9481 C   0  0  0  0  0  0  0  0  0  0  0  0
   -2.4919    4.0991   -1.7757 H   0  0  0  0  0  0  0  0  0  0  0  0
   -3.3611    3.1182   -0.0739 N   0  0  0  0  0  0  0  0  0  0  0  0
   -2.8277    2.2011    0.8355 C   0  0  0  0  0  0  0  0  0  0  0  0
   -3.3553    1.7368    1.6587 H   0  0  0  0  0  0  0  0  0  0  0  0
    0.5726   -1.3091    0.8712 C   0  0  0  0  0  0  0  0  0  0  0  0
    1.5590   -0.8429    1.4408 O   0  0  0  0  0  0  0  0  0  0  0  0
    0.3994   -2.6253    0.6976 N   0  0  0  0  0  0  0  0  0  0  0  0
   -0.4085   -2.9265    0.1725 H   0  0  0  0  0  0  0  0  0  0  0  0
    1.3257   -3.6494    1.1732 C   0  0  0  0  0  0  0  0  0  0  0  0
    1.4234   -3.5835    2.2592 H   0  0  0  0  0  0  0  0  0  0  0  0
    0.9584   -4.6406    0.9056 H   0  0  0  0  0  0  0  0  0  0  0  0
    2.3090   -3.4968    0.7256 H   0  0  0  0  0  0  0  0  0  0  0  0
  5  6  2  0  0  0  0
  5  7  1  0  0  0  0
  2  3  1  0  0  0  0
  2  4  1  0  0  0  0
  2  5  1  0  0  0  0
  1  2  1  0  0  0  0
 22 23  2  0  0  0  0
 22 24  1  0  0  0  0
 20 21  1  0  0  0  0
 19 20  1  0  0  0  0
 17 18  1  0  0  0  0
 17 19  2  0  0  0  0
 15 16  1  0  0  0  0
 15 17  1  0  0  0  0
 14 15  1  0  0  0  0
 14 20  2  0  0  0  0
 11 12  1  0  0  0  0
 11 13  1  0  0  0  0
 11 14  1  0  0  0  0
  9 10  1  0  0  0  0
  9 11  1  0  0  0  0
  9 22  1  0  0  0  0
  7  8  1  0  0  0  0
  7  9  1  0  0  0  0
 26 27  1  0  0  0  0
 26 28  1  0  0  0  0
 26 29  1  0  0  0  0
 24 25  1  0  0  0  0
 24 26  1  0  0  0  0
M  END
$$$$
default_name
  -OEChem-01062215323D

 29 29  0     1  0  0  0  0  0999 V2000
   -3.6042   -3.5728    1.4576 H   0  0  0  0  0  0  0  0  0  0  0  0
   -3.5202   -2.6488    0.8866 C   0  0  0  0  0  0  0  0  0  0  0  0
   -4.2052   -1.9048    1.2896 H   0  0  0  0  0  0  0  0  0  0  0  0
   -3.7552   -2.8428   -0.1584 H   0  0  0  0  0  0  0  0  0  0  0  0
   -2.1052   -2.1358    0.9946 C   0  0  0  0  0  0  0  0  0  0  0  0
   -1.2852   -2.7288    1.6826 O   0  0  0  0  0  0  0  0  0  0  0  0
   -1.8202   -1.0288    0.3146 N   0  0  0  0  0  0  0  0  0  0  0  0
   -2.5542   -0.5788   -0.2104 H   0  0  0  0  0  0  0  0  0  0  0  0
   -0.5102   -0.3728    0.3086 C   0  0  1  0  0  0  0  0  0  0  0  0
   -0.2431   -0.1351   -0.7221 H   0  0  0  0  0  0  0  0  0  0  0  0
   -0.6031    0.9476    1.0955 C   0  0  0  0  0  0  0  0  0  0  0  0
   -0.9509    0.7363    2.1082 H   0  0  0  0  0  0  0  0  0  0  0  0
    0.3925    1.3893    1.1679 H   0  0  0  0  0  0  0  0  0  0  0  0
   -1.5301    1.9583    0.4714 C   0  0  0  0  0  0  0  0  0  0  0  0
   -1.2730    2.7182   -0.6494 N   0  0  0  0  0  0  0  0  0  0  0  0
   -0.4012    2.7550   -1.1562 H   0  0  0  0  0  0  0  0  0  0  0  0
   -2.3865    3.4082   -0.9481 C   0  0  0  0  0  0  0  0  0  0  0  0
   -2.4919    4.0991   -1.7757 H   0  0  0  0  0  0  0  0  0  0  0  0
   -3.3611    3.1182   -0.0739 N   0  0  0  0  0  0  0  0  0  0  0  0
   -2.8277    2.2011    0.8355 C   0  0  0  0  0  0  0  0  0  0  0  0
   -3.3553    1.7368    1.6587 H   0  0  0  0  0  0  0  0  0  0  0  0
    0.5726   -1.3091    0.8712 C   0  0  0  0  0  0  0  0  0  0  0  0
    1.4063   -0.8820    1.6695 O   0  0  0  0  0  0  0  0  0  0  0  0
    0.5720   -2.5780    0.4440 N   0  0  0  0  0  0  0  0  0  0  0  0
   -0.1109   -2.8377   -0.2525 H   0  0  0  0  0  0  0  0  0  0  0  0
    1.5236   -3.5962    0.8809 C   0  0  0  0  0  0  0  0  0  0  0  0
    1.4508   -3.7300    1.9626 H   0  0  0  0  0  0  0  0  0  0  0  0
    1.3107   -4.5448    0.3871 H   0  0  0  0  0  0  0  0  0  0  0  0
    2.5399   -3.2832    0.6367 H   0  0  0  0  0  0  0  0  0  0  0  0
  5  6  2  0  0  0  0
  5  7  1  0  0  0  0
  2  3  1  0  0  0  0
  2  4  1  0  0  0  0
  2  5  1  0  0  0  0
  1  2  1  0  0  0  0
 22 23  2  0  0  0  0
 22 24  1  0  0  0  0
 20 21  1  0  0  0  0
 19 20  1  0  0  0  0
 17 18  1  0  0  0  0
 17 19  2  0  0  0  0
 15 16  1  0  0  0  0
 15 17  1  0  0  0  0
 14 15  1  0  0  0  0
 14 20  2  0  0  0  0
 11 12  1  0  0  0  0
 11 13  1  0  0  0  0
 11 14  1  0  0  0  0
  9 10  1  0  0  0  0
  9 11  1  0  0  0  0
  9 22  1  0  0  0  0
  7  8  1  0  0  0  0
  7  9  1  0  0  0  0
 26 27  1  0  0  0  0
 26 28  1  0  0  0  0
 26 29  1  0  0  0  0
 24 25  1  0  0  0  0
 24 26  1  0  0  0  0
M  END
$$$$
default_name
  -OEChem-01062215323D

 29 29  0     1  0  0  0  0  0999 V2000
   -3.6042   -3.5728    1.4576 H   0  0  0  0  0  0  0  0  0  0  0  0
   -3.5202   -2.6488    0.8866 C   0  0  0  0  0  0  0  0  0  0  0  0
   -4.2052   -1.9048    1.2896 H   0  0  0  0  0  0  0  0  0  0  0  0
   -3.7552   -2.8428   -0.1584 H   0  0  0  0  0  0  0  0  0  0  0  0
   -2.1052   -2.1358    0.9946 C   0  0  0  0  0  0  0  0  0  0  0  0
   -1.2852   -2.7288    1.6826 O   0  0  0  0  0  0  0  0  0  0  0  0
   -1.8202   -1.0288    0.3146 N   0  0  0  0  0  0  0  0  0  0  0  0
   -2.5542   -0.5788   -0.2104 H   0  0  0  0  0  0  0  0  0  0  0  0
   -0.5102   -0.3728    0.3086 C   0  0  1  0  0  0  0  0  0  0  0  0
   -0.2431   -0.1351   -0.7221 H   0  0  0  0  0  0  0  0  0  0  0  0
   -0.6031    0.9476    1.0955 C   0  0  0  0  0  0  0  0  0  0  0  0
   -0.9509    0.7363    2.1082 H   0  0  0  0  0  0  0  0  0  0  0  0
    0.3925    1.3893    1.1679 H   0  0  0  0  0  0  0  0  0  0  0  0
   -1.5301    1.9583    0.4714 C   0  0  0  0  0  0  0  0  0  0  0  0
   -1.2730    2.7182   -0.6494 N   0  0  0  0  0  0  0  0  0  0  0  0
   -0.4012    2.7550   -1.1562 H   0  0  0  0  0  0  0  0  0  0  0  0
   -2.3865    3.4082   -0.9481 C   0  0  0  0  0  0  0  0  0  0  0  0
   -2.4919    4.0991   -1.7757 H   0  0  0  0  0  0  0  0  0  0  0  0
   -3.3611    3.1182   -0.0739 N   0  0  0  0  0  0  0  0  0  0  0  0
   -2.8277    2.2011    0.8355 C   0  0  0  0  0  0  0  0  0  0  0  0
   -3.3553    1.7368    1.6587 H   0  0  0  0  0  0  0  0  0  0  0  0
    0.5726   -1.3091    0.8712 C   0  0  0  0  0  0  0  0  0  0  0  0
    1.2266   -0.9759    1.8592 O   0  0  0  0  0  0  0  0  0  0  0  0
    0.7742   -2.4697    0.2350 N   0  0  0  0  0  0  0  0  0  0  0  0
    0.2351   -2.6464   -0.5999 H   0  0  0  0  0  0  0  0  0  0  0  0
    1.7557   -3.4728    0.6394 C   0  0  0  0  0  0  0  0  0  0  0  0
    1.5379   -3.8149    1.6537 H   0  0  0  0  0  0  0  0  0  0  0  0
    1.7236   -4.3244   -0.0409 H   0  0  0  0  0  0  0  0  0  0  0  0
    2.7567   -3.0389    0.6261 H   0  0  0  0  0  0  0  0  0  0  0  0
  5  6  2  0  0  0  0
  5  7  1  0  0  0  0
  2  3  1  0  0  0  0
  2  4  1  0  0  0  0
  2  5  1  0  0  0  0
  1  2  1  0  0  0  0
 22 23  2  0  0  0  0
 22 24  1  0  0  0  0
 20 21  1  0  0  0  0
 19 20  1  0  0  0  0
 17 18  1  0  0  0  0
 17 19  2  0  0  0  0
 15 16  1  0  0  0  0
 15 17  1  0  0  0  0
 14 15  1  0  0  0  0
 14 20  2  0  0  0  0
 11 12  1  0  0  0  0
 11 13  1  0  0  0  0
 11 14  1  0  0  0  0
  9 10  1  0  0  0  0
  9 11  1  0  0  0  0
  9 22  1  0  0  0  0
  7  8  1  0  0  0  0
  7  9  1  0  0  0  0
 26 27  1  0  0  0  0
 26 28  1  0  0  0  0
 26 29  1  0  0  0  0
 24 25  1  0  0  0  0
 24 26  1  0  0  0  0
M  END
$$$$
default_name
  -OEChem-01062215323D

 29 29  0     1  0  0  0  0  0999 V2000
   -3.6042   -3.5728    1.4576 H   0  0  0  0  0  0  0  0  0  0  0  0
   -3.5202   -2.6488    0.8866 C   0  0  0  0  0  0  0  0  0  0  0  0
   -4.2052   -1.9048    1.2896 H   0  0  0  0  0  0  0  0  0  0  0  0
   -3.7552   -2.8428   -0.1584 H   0  0  0  0  0  0  0  0  0  0  0  0
   -2.1052   -2.1358    0.9946 C   0  0  0  0  0  0  0  0  0  0  0  0
   -1.2852   -2.7288    1.6826 O   0  0  0  0  0  0  0  0  0  0  0  0
   -1.8202   -1.0288    0.3146 N   0  0  0  0  0  0  0  0  0  0  0  0
   -2.5542   -0.5788   -0.2104 H   0  0  0  0  0  0  0  0  0  0  0  0
   -0.5102   -0.3728    0.3086 C   0  0  1  0  0  0  0  0  0  0  0  0
   -0.2431   -0.1351   -0.7221 H   0  0  0  0  0  0  0  0  0  0  0  0
   -0.6031    0.9476    1.0955 C   0  0  0  0  0  0  0  0  0  0  0  0
   -0.9509    0.7363    2.1082 H   0  0  0  0  0  0  0  0  0  0  0  0
    0.3925    1.3893    1.1679 H   0  0  0  0  0  0  0  0  0  0  0  0
   -1.5301    1.9583    0.4714 C   0  0  0  0  0  0  0  0  0  0  0  0
   -1.2730    2.7182   -0.6494 N   0  0  0  0  0  0  0  0  0  0  0  0
   -0.4012    2.7550   -1.1562 H   0  0  0  0  0  0  0  0  0  0  0  0
   -2.3865    3.4082   -0.9481 C   0  0  0  0  0  0  0  0  0  0  0  0
   -2.4919    4.0991   -1.7757 H   0  0  0  0  0  0  0  0  0  0  0  0
   -3.3611    3.1182   -0.0739 N   0  0  0  0  0  0  0  0  0  0  0  0
   -2.8277    2.2011    0.8355 C   0  0  0  0  0  0  0  0  0  0  0  0
   -3.3553    1.7368    1.6587 H   0  0  0  0  0  0  0  0  0  0  0  0
    0.5726   -1.3091    0.8712 C   0  0  0  0  0  0  0  0  0  0  0  0
    1.0319   -1.1182    1.9970 O   0  0  0  0  0  0  0  0  0  0  0  0
    0.9923   -2.3079    0.0846 N   0  0  0  0  0  0  0  0  0  0  0  0
    0.6059   -2.3655   -0.8462 H   0  0  0  0  0  0  0  0  0  0  0  0
    2.0063   -3.2877    0.4652 C   0  0  0  0  0  0  0  0  0  0  0  0
    1.6787   -3.8324    1.3536 H   0  0  0  0  0  0  0  0  0  0  0  0
    2.1690   -3.9944   -0.3490 H   0  0  0  0  0  0  0  0  0  0  0  0
    2.9447   -2.7803    0.6946 H   0  0  0  0  0  0  0  0  0  0  0  0
  5  6  2  0  0  0  0
  5  7  1  0  0  0  0
  2  3  1  0  0  0  0
  2  4  1  0  0  0  0
  2  5  1  0  0  0  0
  1  2  1  0  0  0  0
 22 23  2  0  0  0  0
 22 24  1  0  0  0  0
 20 21  1  0  0  0  0
 19 20  1  0  0  0  0
 17 18  1  0  0  0  0
 17 19  2  0  0  0  0
 15 16  1  0  0  0  0
 15 17  1  0  0  0  0
 14 15  1  0  0  0  0
 14 20  2  0  0  0  0
 11 12  1  0  0  0  0
 11 13  1  0  0  0  0
 11 14  1  0  0  0  0
  9 10  1  0  0  0  0
  9 11  1  0  0  0  0
  9 22  1  0  0  0  0
  7  8  1  0  0  0  0
  7  9  1  0  0  0  0
 26 27  1  0  0  0  0
 26 28  1  0  0  0  0
 26 29  1  0  0  0  0
 24 25  1  0  0  0  0
 24 26  1  0  0  0  0
M  END
$$$$
default_name
  -OEChem-01062215323D

 29 29  0     1  0  0  0  0  0999 V2000
   -3.6042   -3.5728    1.4576 H   0  0  0  0  0  0  0  0  0  0  0  0
   -3.5202   -2.6488    0.8866 C   0  0  0  0  0  0  0  0  0  0  0  0
   -4.2052   -1.9048    1.2896 H   0  0  0  0  0  0  0  0  0  0  0  0
   -3.7552   -2.8428   -0.1584 H   0  0  0  0  0  0  0  0  0  0  0  0
   -2.1052   -2.1358    0.9946 C   0  0  0  0  0  0  0  0  0  0  0  0
   -1.2852   -2.7288    1.6826 O   0  0  0  0  0  0  0  0  0  0  0  0
   -1.8202   -1.0288    0.3146 N   0  0  0  0  0  0  0  0  0  0  0  0
   -2.5542   -0.5788   -0.2104 H   0  0  0  0  0  0  0  0  0  0  0  0
   -0.5102   -0.3728    0.3086 C   0  0  1  0  0  0  0  0  0  0  0  0
   -0.2431   -0.1351   -0.7221 H   0  0  0  0  0  0  0  0  0  0  0  0
   -0.6031    0.9476    1.0955 C   0  0  0  0  0  0  0  0  0  0  0  0
   -0.9509    0.7363    2.1082 H   0  0  0  0  0  0  0  0  0  0  0  0
    0.3925    1.3893    1.1679 H   0  0  0  0  0  0  0  0  0  0  0  0
   -1.5301    1.9583    0.4714 C   0  0  0  0  0  0  0  0  0  0  0  0
   -1.2730    2.7182   -0.6494 N   0  0  0  0  0  0  0  0  0  0  0  0
   -0.4012    2.7550   -1.1562 H   0  0  0  0  0  0  0  0  0  0  0  0
   -2.3865    3.4082   -0.9481 C   0  0  0  0  0  0  0  0  0  0  0  0
   -2.4919    4.0991   -1.7757 H   0  0  0  0  0  0  0  0  0  0  0  0
   -3.3611    3.1182   -0.0739 N   0  0  0  0  0  0  0  0  0  0  0  0
   -2.8277    2.2011    0.8355 C   0  0  0  0  0  0  0  0  0  0  0  0
   -3.3553    1.7368    1.6587 H   0  0  0  0  0  0  0  0  0  0  0  0
    0.5726   -1.3091    0.8712 C   0  0  0  0  0  0  0  0  0  0  0  0
    0.8357   -1.2992    2.0735 O   0  0  0  0  0  0  0  0  0  0  0  0
    1.2112   -2.1036    0.0032 N   0  0  0  0  0  0  0  0  0  0  0  0
    0.9763   -2.0142   -0.9744 H   0  0  0  0  0  0  0  0  0  0  0  0
    2.2583   -3.0534    0.3702 C   0  0  0  0  0  0  0  0  0  0  0  0
    1.8637   -3.7812    1.0828 H   0  0  0  0  0  0  0  0  0  0  0  0
    2.6166   -3.5774   -0.5164 H   0  0  0  0  0  0  0  0  0  0  0  0
    3.0910   -2.5253    0.8375 H   0  0  0  0  0  0  0  0  0  0  0  0
  5  6  2  0  0  0  0
  5  7  1  0  0  0  0
  2  3  1  0  0  0  0
  2  4  1  0  0  0  0
  2  5  1  0  0  0  0
  1  2  1  0  0  0  0
 22 23  2  0  0  0  0
 22 24  1  0  0  0  0
 20 21  1  0  0  0  0
 19 20  1  0  0  0  0
 17 18  1  0  0  0  0
 17 19  2  0  0  0  0
 15 16  1  0  0  0  0
 15 17  1  0  0  0  0
 14 15  1  0  0  0  0
 14 20  2  0  0  0  0
 11 12  1  0  0  0  0
 11 13  1  0  0  0  0
 11 14  1  0  0  0  0
  9 10  1  0  0  0  0
  9 11  1  0  0  0  0
  9 22  1  0  0  0  0
  7  8  1  0  0  0  0
  7  9  1  0  0  0  0
 26 27  1  0  0  0  0
 26 28  1  0  0  0  0
 26 29  1  0  0  0  0
 24 25  1  0  0  0  0
 24 26  1  0  0  0  0
M  END
$$$$
default_name
  -OEChem-01062215323D

 29 29  0     1  0  0  0  0  0999 V2000
   -3.6042   -3.5728    1.4576 H   0  0  0  0  0  0  0  0  0  0  0  0
   -3.5202   -2.6488    0.8866 C   0  0  0  0  0  0  0  0  0  0  0  0
   -4.2052   -1.9048    1.2896 H   0  0  0  0  0  0  0  0  0  0  0  0
   -3.7552   -2.8428   -0.1584 H   0  0  0  0  0  0  0  0  0  0  0  0
   -2.1052   -2.1358    0.9946 C   0  0  0  0  0  0  0  0  0  0  0  0
   -1.2852   -2.7288    1.6826 O   0  0  0  0  0  0  0  0  0  0  0  0
   -1.8202   -1.0288    0.3146 N   0  0  0  0  0  0  0  0  0  0  0  0
   -2.5542   -0.5788   -0.2104 H   0  0  0  0  0  0  0  0  0  0  0  0
   -0.5102   -0.3728    0.3086 C   0  0  1  0  0  0  0  0  0  0  0  0
   -0.2431   -0.1351   -0.7221 H   0  0  0  0  0  0  0  0  0  0  0  0
   -0.6031    0.9476    1.0955 C   0  0  0  0  0  0  0  0  0  0  0  0
   -0.9509    0.7363    2.1082 H   0  0  0  0  0  0  0  0  0  0  0  0
    0.3925    1.3893    1.1679 H   0  0  0  0  0  0  0  0  0  0  0  0
   -1.5301    1.9583    0.4714 C   0  0  0  0  0  0  0  0  0  0  0  0
   -1.2730    2.7182   -0.6494 N   0  0  0  0  0  0  0  0  0  0  0  0
   -0.4012    2.7550   -1.1562 H   0  0  0  0  0  0  0  0  0  0  0  0
   -2.3865    3.4082   -0.9481 C   0  0  0  0  0  0  0  0  0  0  0  0
   -2.4919    4.0991   -1.7757 H   0  0  0  0  0  0  0  0  0  0  0  0
   -3.3611    3.1182   -0.0739 N   0  0  0  0  0  0  0  0  0  0  0  0
   -2.8277    2.2011    0.8355 C   0  0  0  0  0  0  0  0  0  0  0  0
   -3.3553    1.7368    1.6587 H   0  0  0  0  0  0  0  0  0  0  0  0
    0.5726   -1.3091    0.8712 C   0  0  0  0  0  0  0  0  0  0  0  0
    0.6512   -1.5065    2.0835 O   0  0  0  0  0  0  0  0  0  0  0  0
    1.4162   -1.8707   -0.0037 N   0  0  0  0  0  0  0  0  0  0  0  0
    1.3210   -1.6165   -0.9759 H   0  0  0  0  0  0  0  0  0  0  0  0
    2.4945   -2.7859    0.3608 C   0  0  0  0  0  0  0  0  0  0  0  0
    2.0802   -3.6650    0.8596 H   0  0  0  0  0  0  0  0  0  0  0  0
    3.0358   -3.1017   -0.5315 H   0  0  0  0  0  0  0  0  0  0  0  0
    3.1856   -2.2912    1.0450 H   0  0  0  0  0  0  0  0  0  0  0  0
  5  6  2  0  0  0  0
  5  7  1  0  0  0  0
  2  3  1  0  0  0  0
  2  4  1  0  0  0  0
  2  5  1  0  0  0  0
  1  2  1  0  0  0  0
 22 23  2  0  0  0  0
 22 24  1  0  0  0  0
 20 21  1  0  0  0  0
 19 20  1  0  0  0  0
 17 18  1  0  0  0  0
 17 19  2  0  0  0  0
 15 16  1  0  0  0  0
 15 17  1  0  0  0  0
 14 15  1  0  0  0  0
 14 20  2  0  0  0  0
 11 12  1  0  0  0  0
 11 13  1  0  0  0  0
 11 14  1  0  0  0  0
  9 10  1  0  0  0  0
  9 11  1  0  0  0  0
  9 22  1  0  0  0  0
  7  8  1  0  0  0  0
  7  9  1  0  0  0  0
 26 27  1  0  0  0  0
 26 28  1  0  0  0  0
 26 29  1  0  0  0  0
 24 25  1  0  0  0  0
 24 26  1  0  0  0  0
M  END
$$$$
default_name
  -OEChem-01062215323D

 29 29  0     1  0  0  0  0  0999 V2000
   -3.6042   -3.5728    1.4576 H   0  0  0  0  0  0  0  0  0  0  0  0
   -3.5202   -2.6488    0.8866 C   0  0  0  0  0  0  0  0  0  0  0  0
   -4.2052   -1.9048    1.2896 H   0  0  0  0  0  0  0  0  0  0  0  0
   -3.7552   -2.8428   -0.1584 H   0  0  0  0  0  0  0  0  0  0  0  0
   -2.1052   -2.1358    0.9946 C   0  0  0  0  0  0  0  0  0  0  0  0
   -1.2852   -2.7288    1.6826 O   0  0  0  0  0  0  0  0  0  0  0  0
   -1.8202   -1.0288    0.3146 N   0  0  0  0  0  0  0  0  0  0  0  0
   -2.5542   -0.5788   -0.2104 H   0  0  0  0  0  0  0  0  0  0  0  0
   -0.5102   -0.3728    0.3086 C   0  0  1  0  0  0  0  0  0  0  0  0
   -0.2431   -0.1351   -0.7221 H   0  0  0  0  0  0  0  0  0  0  0  0
   -0.6031    0.9476    1.0955 C   0  0  0  0  0  0  0  0  0  0  0  0
   -0.9509    0.7363    2.1082 H   0  0  0  0  0  0  0  0  0  0  0  0
    0.3925    1.3893    1.1679 H   0  0  0  0  0  0  0  0  0  0  0  0
   -1.5301    1.9583    0.4714 C   0  0  0  0  0  0  0  0  0  0  0  0
   -1.2730    2.7182   -0.6494 N   0  0  0  0  0  0  0  0  0  0  0  0
   -0.4012    2.7550   -1.1562 H   0  0  0  0  0  0  0  0  0  0  0  0
   -2.3865    3.4082   -0.9481 C   0  0  0  0  0  0  0  0  0  0  0  0
   -2.4919    4.0991   -1.7757 H   0  0  0  0  0  0  0  0  0  0  0  0
   -3.3611    3.1182   -0.0739 N   0  0  0  0  0  0  0  0  0  0  0  0
   -2.8277    2.2011    0.8355 C   0  0  0  0  0  0  0  0  0  0  0  0
   -3.3553    1.7368    1.6587 H   0  0  0  0  0  0  0  0  0  0  0  0
    0.5726   -1.3091    0.8712 C   0  0  0  0  0  0  0  0  0  0  0  0
    0.4910   -1.7261    2.0263 O   0  0  0  0  0  0  0  0  0  0  0  0
    1.5933   -1.6251    0.0644 N   0  0  0  0  0  0  0  0  0  0  0  0
    1.6165   -1.1994   -0.8506 H   0  0  0  0  0  0  0  0  0  0  0  0
    2.6988   -2.5035    0.4376 C   0  0  0  0  0  0  0  0  0  0  0  0
    2.3134   -3.4915    0.6993 H   0  0  0  0  0  0  0  0  0  0  0  0
    3.3981   -2.5998   -0.3935 H   0  0  0  0  0  0  0  0  0  0  0  0
    3.2222   -2.0939    1.3030 H   0  0  0  0  0  0  0  0  0  0  0  0
  5  6  2  0  0  0  0
  5  7  1  0  0  0  0
  2  3  1  0  0  0  0
  2  4  1  0  0  0  0
  2  5  1  0  0  0  0
  1  2  1  0  0  0  0
 22 23  2  0  0  0  0
 22 24  1  0  0  0  0
 20 21  1  0  0  0  0
 19 20  1  0  0  0  0
 17 18  1  0  0  0  0
 17 19  2  0  0  0  0
 15 16  1  0  0  0  0
 15 17  1  0  0  0  0
 14 15  1  0  0  0  0
 14 20  2  0  0  0  0
 11 12  1  0  0  0  0
 11 13  1  0  0  0  0
 11 14  1  0  0  0  0
  9 10  1  0  0  0  0
  9 11  1  0  0  0  0
  9 22  1  0  0  0  0
  7  8  1  0  0  0  0
  7  9  1  0  0  0  0
 26 27  1  0  0  0  0
 26 28  1  0  0  0  0
 26 29  1  0  0  0  0
 24 25  1  0  0  0  0
 24 26  1  0  0  0  0
M  END
$$$$
default_name
  -OEChem-01062215323D

 29 29  0     1  0  0  0  0  0999 V2000
   -3.6042   -3.5728    1.4576 H   0  0  0  0  0  0  0  0  0  0  0  0
   -3.5202   -2.6488    0.8866 C   0  0  0  0  0  0  0  0  0  0  0  0
   -4.2052   -1.9048    1.2896 H   0  0  0  0  0  0  0  0  0  0  0  0
   -3.7552   -2.8428   -0.1584 H   0  0  0  0  0  0  0  0  0  0  0  0
   -2.1052   -2.1358    0.9946 C   0  0  0  0  0  0  0  0  0  0  0  0
   -1.2852   -2.7288    1.6826 O   0  0  0  0  0  0  0  0  0  0  0  0
   -1.8202   -1.0288    0.3146 N   0  0  0  0  0  0  0  0  0  0  0  0
   -2.5542   -0.5788   -0.2104 H   0  0  0  0  0  0  0  0  0  0  0  0
   -0.5102   -0.3728    0.3086 C   0  0  1  0  0  0  0  0  0  0  0  0
   -0.2431   -0.1351   -0.7221 H   0  0  0  0  0  0  0  0  0  0  0  0
   -0.6031    0.9476    1.0955 C   0  0  0  0  0  0  0  0  0  0  0  0
   -0.9509    0.7363    2.1082 H   0  0  0  0  0  0  0  0  0  0  0  0
    0.3925    1.3893    1.1679 H   0  0  0  0  0  0  0  0  0  0  0  0
   -1.5301    1.9583    0.4714 C   0  0  0  0  0  0  0  0  0  0  0  0
   -1.2730    2.7182   -0.6494 N   0  0  0  0  0  0  0  0  0  0  0  0
   -0.4012    2.7550   -1.1562 H   0  0  0  0  0  0  0  0  0  0  0  0
   -2.3865    3.4082   -0.9481 C   0  0  0  0  0  0  0  0  0  0  0  0
   -2.4919    4.0991   -1.7757 H   0  0  0  0  0  0  0  0  0  0  0  0
   -3.3611    3.1182   -0.0739 N   0  0  0  0  0  0  0  0  0  0  0  0
   -2.8277    2.2011    0.8355 C   0  0  0  0  0  0  0  0  0  0  0  0
   -3.3553    1.7368    1.6587 H   0  0  0  0  0  0  0  0  0  0  0  0
    0.5726   -1.3091    0.8712 C   0  0  0  0  0  0  0  0  0  0  0  0
    0.3661   -1.9429    1.9059 O   0  0  0  0  0  0  0  0  0  0  0  0
    1.7303   -1.3834    0.2028 N   0  0  0  0  0  0  0  0  0  0  0  0
    1.8428   -0.7914   -0.6070 H   0  0  0  0  0  0  0  0  0  0  0  0
    2.8573   -2.2253    0.5955 C   0  0  0  0  0  0  0  0  0  0  0  0
    2.5476   -3.2727    0.6128 H   0  0  0  0  0  0  0  0  0  0  0  0
    3.6787   -2.1059   -0.1115 H   0  0  0  0  0  0  0  0  0  0  0  0
    3.1981   -1.9469    1.5939 H   0  0  0  0  0  0  0  0  0  0  0  0
  5  6  2  0  0  0  0
  5  7  1  0  0  0  0
  2  3  1  0  0  0  0
  2  4  1  0  0  0  0
  2  5  1  0  0  0  0
  1  2  1  0  0  0  0
 22 23  2  0  0  0  0
 22 24  1  0  0  0  0
 20 21  1  0  0  0  0
 19 20  1  0  0  0  0
 17 18  1  0  0  0  0
 17 19  2  0  0  0  0
 15 16  1  0  0  0  0
 15 17  1  0  0  0  0
 14 15  1  0  0  0  0
 14 20  2  0  0  0  0
 11 12  1  0  0  0  0
 11 13  1  0  0  0  0
 11 14  1  0  0  0  0
  9 10  1  0  0  0  0
  9 11  1  0  0  0  0
  9 22  1  0  0  0  0
  7  8  1  0  0  0  0
  7  9  1  0  0  0  0
 26 27  1  0  0  0  0
 26 28  1  0  0  0  0
 26 29  1  0  0  0  0
 24 25  1  0  0  0  0
 24 26  1  0  0  0  0
M  END
$$$$
default_name
  -OEChem-01062215323D

 29 29  0     1  0  0  0  0  0999 V2000
   -3.6042   -3.5728    1.4576 H   0  0  0  0  0  0  0  0  0  0  0  0
   -3.5202   -2.6488    0.8866 C   0  0  0  0  0  0  0  0  0  0  0  0
   -4.2052   -1.9048    1.2896 H   0  0  0  0  0  0  0  0  0  0  0  0
   -3.7552   -2.8428   -0.1584 H   0  0  0  0  0  0  0  0  0  0  0  0
   -2.1052   -2.1358    0.9946 C   0  0  0  0  0  0  0  0  0  0  0  0
   -1.2852   -2.7288    1.6826 O   0  0  0  0  0  0  0  0  0  0  0  0
   -1.8202   -1.0288    0.3146 N   0  0  0  0  0  0  0  0  0  0  0  0
   -2.5542   -0.5788   -0.2104 H   0  0  0  0  0  0  0  0  0  0  0  0
   -0.5102   -0.3728    0.3086 C   0  0  1  0  0  0  0  0  0  0  0  0
   -0.2431   -0.1351   -0.7221 H   0  0  0  0  0  0  0  0  0  0  0  0
   -0.6031    0.9476    1.0955 C   0  0  0  0  0  0  0  0  0  0  0  0
   -0.9509    0.7363    2.1082 H   0  0  0  0  0  0  0  0  0  0  0  0
    0.3925    1.3893    1.1679 H   0  0  0  0  0  0  0  0  0  0  0  0
   -1.5301    1.9583    0.4714 C   0  0  0  0  0  0  0  0  0  0  0  0
   -1.2730    2.7182   -0.6494 N   0  0  0  0  0  0  0  0  0  0  0  0
   -0.4012    2.7550   -1.1562 H   0  0  0  0  0  0  0  0  0  0  0  0
   -2.3865    3.4082   -0.9481 C   0  0  0  0  0  0  0  0  0  0  0  0
   -2.4919    4.0991   -1.7757 H   0  0  0  0  0  0  0  0  0  0  0  0
   -3.3611    3.1182   -0.0739 N   0  0  0  0  0  0  0  0  0  0  0  0
   -2.8277    2.2011    0.8355 C   0  0  0  0  0  0  0  0  0  0  0  0
   -3.3553    1.7368    1.6587 H   0  0  0  0  0  0  0  0  0  0  0  0
    0.5726   -1.3091    0.8712 C   0  0  0  0  0  0  0  0  0  0  0  0
    0.2850   -2.1422    1.7303 O   0  0  0  0  0  0  0  0  0  0  0  0
    1.8179   -1.1623    0.4021 N   0  0  0  0  0  0  0  0  0  0  0  0
    1.9843   -0.4202   -0.2617 H   0  0  0  0  0  0  0  0  0  0  0  0
    2.9592   -1.9704    0.8237 C   0  0  0  0  0  0  0  0  0  0  0  0
    2.7666   -3.0234    0.6061 H   0  0  0  0  0  0  0  0  0  0  0  0
    3.8586   -1.6535    0.2950 H   0  0  0  0  0  0  0  0  0  0  0  0
    3.1152   -1.8601    1.8980 H   0  0  0  0  0  0  0  0  0  0  0  0
  5  6  2  0  0  0  0
  5  7  1  0  0  0  0
  2  3  1  0  0  0  0
  2  4  1  0  0  0  0
  2  5  1  0  0  0  0
  1  2  1  0  0  0  0
 22 23  2  0  0  0  0
 22 24  1  0  0  0  0
 20 21  1  0  0  0  0
 19 20  1  0  0  0  0
 17 18  1  0  0  0  0
 17 19  2  0  0  0  0
 15 16  1  0  0  0  0
 15 17  1  0  0  0  0
 14 15  1  0  0  0  0
 14 20  2  0  0  0  0
 11 12  1  0  0  0  0
 11 13  1  0  0  0  0
 11 14  1  0  0  0  0
  9 10  1  0  0  0  0
  9 11  1  0  0  0  0
  9 22  1  0  0  0  0
  7  8  1  0  0  0  0
  7  9  1  0  0  0  0
 26 27  1  0  0  0  0
 26 28  1  0  0  0  0
 26 29  1  0  0  0  0
 24 25  1  0  0  0  0
 24 26  1  0  0  0  0
M  END
$$$$
default_name
  -OEChem-01062215323D

 29 29  0     1  0  0  0  0  0999 V2000
   -3.6042   -3.5728    1.4576 H   0  0  0  0  0  0  0  0  0  0  0  0
   -3.5202   -2.6488    0.8866 C   0  0  0  0  0  0  0  0  0  0  0  0
   -4.2052   -1.9048    1.2896 H   0  0  0  0  0  0  0  0  0  0  0  0
   -3.7552   -2.8428   -0.1584 H   0  0  0  0  0  0  0  0  0  0  0  0
   -2.1052   -2.1358    0.9946 C   0  0  0  0  0  0  0  0  0  0  0  0
   -1.2852   -2.7288    1.6826 O   0  0  0  0  0  0  0  0  0  0  0  0
   -1.8202   -1.0288    0.3146 N   0  0  0  0  0  0  0  0  0  0  0  0
   -2.5542   -0.5788   -0.2104 H   0  0  0  0  0  0  0  0  0  0  0  0
   -0.5102   -0.3728    0.3086 C   0  0  1  0  0  0  0  0  0  0  0  0
   -0.2431   -0.1351   -0.7221 H   0  0  0  0  0  0  0  0  0  0  0  0
   -0.6031    0.9476    1.0955 C   0  0  0  0  0  0  0  0  0  0  0  0
   -0.9509    0.7363    2.1082 H   0  0  0  0  0  0  0  0  0  0  0  0
    0.3925    1.3893    1.1679 H   0  0  0  0  0  0  0  0  0  0  0  0
   -1.5301    1.9583    0.4714 C   0  0  0  0  0  0  0  0  0  0  0  0
   -1.2730    2.7182   -0.6494 N   0  0  0  0  0  0  0  0  0  0  0  0
   -0.4012    2.7550   -1.1562 H   0  0  0  0  0  0  0  0  0  0  0  0
   -2.3865    3.4082   -0.9481 C   0  0  0  0  0  0  0  0  0  0  0  0
   -2.4919    4.0991   -1.7757 H   0  0  0  0  0  0  0  0  0  0  0  0
   -3.3611    3.1182   -0.0739 N   0  0  0  0  0  0  0  0  0  0  0  0
   -2.8277    2.2011    0.8355 C   0  0  0  0  0  0  0  0  0  0  0  0
   -3.3553    1.7368    1.6587 H   0  0  0  0  0  0  0  0  0  0  0  0
    0.5726   -1.3091    0.8712 C   0  0  0  0  0  0  0  0  0  0  0  0
    0.2532   -2.3104    1.5116 O   0  0  0  0  0  0  0  0  0  0  0  0
    1.8503   -0.9767    0.6488 N   0  0  0  0  0  0  0  0  0  0  0  0
    2.0315   -0.1112    0.1618 H   0  0  0  0  0  0  0  0  0  0  0  0
    2.9975   -1.7561    1.1066 C   0  0  0  0  0  0  0  0  0  0  0  0
    2.9557   -2.7606    0.6795 H   0  0  0  0  0  0  0  0  0  0  0  0
    3.9255   -1.2737    0.7984 H   0  0  0  0  0  0  0  0  0  0  0  0
    2.9789   -1.8396    2.1943 H   0  0  0  0  0  0  0  0  0  0  0  0
  5  6  2  0  0  0  0
  5  7  1  0  0  0  0
  2  3  1  0  0  0  0
  2  4  1  0  0  0  0
  2  5  1  0  0  0  0
  1  2  1  0  0  0  0
 22 23  2  0  0  0  0
 22 24  1  0  0  0  0
 20 21  1  0  0  0  0
 19 20  1  0  0  0  0
 17 18  1  0  0  0  0
 17 19  2  0  0  0  0
 15 16  1  0  0  0  0
 15 17  1  0  0  0  0
 14 15  1  0  0  0  0
 14 20  2  0  0  0  0
 11 12  1  0  0  0  0
 11 13  1  0  0  0  0
 11 14  1  0  0  0  0
  9 10  1  0  0  0  0
  9 11  1  0  0  0  0
  9 22  1  0  0  0  0
  7  8  1  0  0  0  0
  7  9  1  0  0  0  0
 26 27  1  0  0  0  0
 26 28  1  0  0  0  0
 26 29  1  0  0  0  0
 24 25  1  0  0  0  0
 24 26  1  0  0  0  0
M  END
$$$$
default_name
  -OEChem-01062215323D

 29 29  0     1  0  0  0  0  0999 V2000
   -3.6042   -3.5728    1.4576 H   0  0  0  0  0  0  0  0  0  0  0  0
   -3.5202   -2.6488    0.8866 C   0  0  0  0  0  0  0  0  0  0  0  0
   -4.2052   -1.9048    1.2896 H   0  0  0  0  0  0  0  0  0  0  0  0
   -3.7552   -2.8428   -0.1584 H   0  0  0  0  0  0  0  0  0  0  0  0
   -2.1052   -2.1358    0.9946 C   0  0  0  0  0  0  0  0  0  0  0  0
   -1.2852   -2.7288    1.6826 O   0  0  0  0  0  0  0  0  0  0  0  0
   -1.8202   -1.0288    0.3146 N   0  0  0  0  0  0  0  0  0  0  0  0
   -2.5542   -0.5788   -0.2104 H   0  0  0  0  0  0  0  0  0  0  0  0
   -0.5102   -0.3728    0.3086 C   0  0  1  0  0  0  0  0  0  0  0  0
   -0.3607    0.1004   -0.6630 H   0  0  0  0  0  0  0  0  0  0  0  0
   -0.4920    0.7283    1.3849 C   0  0  0  0  0  0  0  0  0  0  0  0
   -0.7233    0.2840    2.3546 H   0  0  0  0  0  0  0  0  0  0  0  0
    0.5117    1.1537    1.4416 H   0  0  0  0  0  0  0  0  0  0  0  0
   -1.4700    1.8442    1.1235 C   0  0  0  0  0  0  0  0  0  0  0  0
   -1.3332    2.8462    0.1868 N   0  0  0  0  0  0  0  0  0  0  0  0
   -0.5255    3.0102   -0.3953 H   0  0  0  0  0  0  0  0  0  0  0  0
   -2.4636    3.5725    0.1871 C   0  0  0  0  0  0  0  0  0  0  0  0
   -2.6539    4.4348   -0.4402 H   0  0  0  0  0  0  0  0  0  0  0  0
   -3.3346    3.0757    1.0776 N   0  0  0  0  0  0  0  0  0  0  0  0
   -2.7130    1.9798    1.6819 C   0  0  0  0  0  0  0  0  0  0  0  0
   -3.1485    1.3310    2.4308 H   0  0  0  0  0  0  0  0  0  0  0  0
    0.6166   -1.4002    0.5098 C   0  0  0  0  0  0  0  0  0  0  0  0
    0.3478   -2.5913    0.6640 O   0  0  0  0  0  0  0  0  0  0  0  0
    1.8738   -0.9401    0.5260 N   0  0  0  0  0  0  0  0  0  0  0  0
    2.0089    0.0571    0.4472 H   0  0  0  0  0  0  0  0  0  0  0  0
    3.0571   -1.7783    0.6999 C   0  0  0  0  0  0  0  0  0  0  0  0
    3.1061   -2.5191   -0.1014 H   0  0  0  0  0  0  0  0  0  0  0  0
    3.9580   -1.1645    0.6765 H   0  0  0  0  0  0  0  0  0  0  0  0
    3.0032   -2.3025    1.6554 H   0  0  0  0  0  0  0  0  0  0  0  0
  5  6  2  0  0  0  0
  5  7  1  0  0  0  0
  2  3  1  0  0  0  0
  2  4  1  0  0  0  0
  2  5  1  0  0  0  0
  1  2  1  0  0  0  0
 22 23  2  0  0  0  0
 22 24  1  0  0  0  0
 20 21  1  0  0  0  0
 19 20  1  0  0  0  0
 17 18  1  0  0  0  0
 17 19  2  0  0  0  0
 15 16  1  0  0  0  0
 15 17  1  0  0  0  0
 14 15  1  0  0  0  0
 14 20  2  0  0  0  0
 11 12  1  0  0  0  0
 11 13  1  0  0  0  0
 11 14  1  0  0  0  0
  9 10  1  0  0  0  0
  9 11  1  0  0  0  0
  9 22  1  0  0  0  0
  7  8  1  0  0  0  0
  7  9  1  0  0  0  0
 26 27  1  0  0  0  0
 26 28  1  0  0  0  0
 26 29  1  0  0  0  0
 24 25  1  0  0  0  0
 24 26  1  0  0  0  0
M  END
$$$$
default_name
  -OEChem-01062215323D

 29 29  0     1  0  0  0  0  0999 V2000
   -3.6042   -3.5728    1.4576 H   0  0  0  0  0  0  0  0  0  0  0  0
   -3.5202   -2.6488    0.8866 C   0  0  0  0  0  0  0  0  0  0  0  0
   -4.2052   -1.9048    1.2896 H   0  0  0  0  0  0  0  0  0  0  0  0
   -3.7552   -2.8428   -0.1584 H   0  0  0  0  0  0  0  0  0  0  0  0
   -2.1052   -2.1358    0.9946 C   0  0  0  0  0  0  0  0  0  0  0  0
   -1.2852   -2.7288    1.6826 O   0  0  0  0  0  0  0  0  0  0  0  0
   -1.8202   -1.0288    0.3146 N   0  0  0  0  0  0  0  0  0  0  0  0
   -2.5542   -0.5788   -0.2104 H   0  0  0  0  0  0  0  0  0  0  0  0
   -0.5102   -0.3728    0.3086 C   0  0  1  0  0  0  0  0  0  0  0  0
   -0.3607    0.1004   -0.6630 H   0  0  0  0  0  0  0  0  0  0  0  0
   -0.4920    0.7283    1.3849 C   0  0  0  0  0  0  0  0  0  0  0  0
   -0.7233    0.2840    2.3546 H   0  0  0  0  0  0  0  0  0  0  0  0
    0.5117    1.1537    1.4416 H   0  0  0  0  0  0  0  0  0  0  0  0
   -1.4700    1.8442    1.1235 C   0  0  0  0  0  0  0  0  0  0  0  0
   -1.3332    2.8462    0.1868 N   0  0  0  0  0  0  0  0  0  0  0  0
   -0.5255    3.0102   -0.3953 H   0  0  0  0  0  0  0  0  0  0  0  0
   -2.4636    3.5725    0.1871 C   0  0  0  0  0  0  0  0  0  0  0  0
   -2.6539    4.4348   -0.4402 H   0  0  0  0  0  0  0  0  0  0  0  0
   -3.3346    3.0757    1.0776 N   0  0  0  0  0  0  0  0  0  0  0  0
   -2.7130    1.9798    1.6819 C   0  0  0  0  0  0  0  0  0  0  0  0
   -3.1485    1.3310    2.4308 H   0  0  0  0  0  0  0  0  0  0  0  0
    0.6166   -1.4002    0.5098 C   0  0  0  0  0  0  0  0  0  0  0  0
    0.3861   -2.6032    0.3892 O   0  0  0  0  0  0  0  0  0  0  0  0
    1.8279   -0.9303    0.8328 N   0  0  0  0  0  0  0  0  0  0  0  0
    1.9239    0.0656    0.9665 H   0  0  0  0  0  0  0  0  0  0  0  0
    3.0054   -1.7659    1.0529 C   0  0  0  0  0  0  0  0  0  0  0  0
    3.2270   -2.3375    0.1488 H   0  0  0  0  0  0  0  0  0  0  0  0
    3.8651   -1.1437    1.3035 H   0  0  0  0  0  0  0  0  0  0  0  0
    2.8168   -2.4651    1.8691 H   0  0  0  0  0  0  0  0  0  0  0  0
  5  6  2  0  0  0  0
  5  7  1  0  0  0  0
  2  3  1  0  0  0  0
  2  4  1  0  0  0  0
  2  5  1  0  0  0  0
  1  2  1  0  0  0  0
 22 23  2  0  0  0  0
 22 24  1  0  0  0  0
 20 21  1  0  0  0  0
 19 20  1  0  0  0  0
 17 18  1  0  0  0  0
 17 19  2  0  0  0  0
 15 16  1  0  0  0  0
 15 17  1  0  0  0  0
 14 15  1  0  0  0  0
 14 20  2  0  0  0  0
 11 12  1  0  0  0  0
 11 13  1  0  0  0  0
 11 14  1  0  0  0  0
  9 10  1  0  0  0  0
  9 11  1  0  0  0  0
  9 22  1  0  0  0  0
  7  8  1  0  0  0  0
  7  9  1  0  0  0  0
 26 27  1  0  0  0  0
 26 28  1  0  0  0  0
 26 29  1  0  0  0  0
 24 25  1  0  0  0  0
 24 26  1  0  0  0  0
M  END
$$$$
default_name
  -OEChem-01062215323D

 29 29  0     1  0  0  0  0  0999 V2000
   -3.6042   -3.5728    1.4576 H   0  0  0  0  0  0  0  0  0  0  0  0
   -3.5202   -2.6488    0.8866 C   0  0  0  0  0  0  0  0  0  0  0  0
   -4.2052   -1.9048    1.2896 H   0  0  0  0  0  0  0  0  0  0  0  0
   -3.7552   -2.8428   -0.1584 H   0  0  0  0  0  0  0  0  0  0  0  0
   -2.1052   -2.1358    0.9946 C   0  0  0  0  0  0  0  0  0  0  0  0
   -1.2852   -2.7288    1.6826 O   0  0  0  0  0  0  0  0  0  0  0  0
   -1.8202   -1.0288    0.3146 N   0  0  0  0  0  0  0  0  0  0  0  0
   -2.5542   -0.5788   -0.2104 H   0  0  0  0  0  0  0  0  0  0  0  0
   -0.5102   -0.3728    0.3086 C   0  0  1  0  0  0  0  0  0  0  0  0
   -0.3607    0.1004   -0.6630 H   0  0  0  0  0  0  0  0  0  0  0  0
   -0.4920    0.7283    1.3849 C   0  0  0  0  0  0  0  0  0  0  0  0
   -0.7233    0.2840    2.3546 H   0  0  0  0  0  0  0  0  0  0  0  0
    0.5117    1.1537    1.4416 H   0  0  0  0  0  0  0  0  0  0  0  0
   -1.4700    1.8442    1.1235 C   0  0  0  0  0  0  0  0  0  0  0  0
   -1.3332    2.8462    0.1868 N   0  0  0  0  0  0  0  0  0  0  0  0
   -0.5255    3.0102   -0.3953 H   0  0  0  0  0  0  0  0  0  0  0  0
   -2.4636    3.5725    0.1871 C   0  0  0  0  0  0  0  0  0  0  0  0
   -2.6539    4.4348   -0.4402 H   0  0  0  0  0  0  0  0  0  0  0  0
   -3.3346    3.0757    1.0776 N   0  0  0  0  0  0  0  0  0  0  0  0
   -2.7130    1.9798    1.6819 C   0  0  0  0  0  0  0  0  0  0  0  0
   -3.1485    1.3310    2.4308 H   0  0  0  0  0  0  0  0  0  0  0  0
    0.6166   -1.4002    0.5098 C   0  0  0  0  0  0  0  0  0  0  0  0
    0.4709   -2.5612    0.1281 O   0  0  0  0  0  0  0  0  0  0  0  0
    1.7302   -0.9806    1.1231 N   0  0  0  0  0  0  0  0  0  0  0  0
    1.7517   -0.0275    1.4551 H   0  0  0  0  0  0  0  0  0  0  0  0
    2.8941   -1.8225    1.3873 C   0  0  0  0  0  0  0  0  0  0  0  0
    3.2943   -2.2055    0.4458 H   0  0  0  0  0  0  0  0  0  0  0  0
    3.6662   -1.2455    1.8970 H   0  0  0  0  0  0  0  0  0  0  0  0
    2.6053   -2.6689    2.0124 H   0  0  0  0  0  0  0  0  0  0  0  0
  5  6  2  0  0  0  0
  5  7  1  0  0  0  0
  2  3  1  0  0  0  0
  2  4  1  0  0  0  0
  2  5  1  0  0  0  0
  1  2  1  0  0  0  0
 22 23  2  0  0  0  0
 22 24  1  0  0  0  0
 20 21  1  0  0  0  0
 19 20  1  0  0  0  0
 17 18  1  0  0  0  0
 17 19  2  0  0  0  0
 15 16  1  0  0  0  0
 15 17  1  0  0  0  0
 14 15  1  0  0  0  0
 14 20  2  0  0  0  0
 11 12  1  0  0  0  0
 11 13  1  0  0  0  0
 11 14  1  0  0  0  0
  9 10  1  0  0  0  0
  9 11  1  0  0  0  0
  9 22  1  0  0  0  0
  7  8  1  0  0  0  0
  7  9  1  0  0  0  0
 26 27  1  0  0  0  0
 26 28  1  0  0  0  0
 26 29  1  0  0  0  0
 24 25  1  0  0  0  0
 24 26  1  0  0  0  0
M  END
$$$$
default_name
  -OEChem-01062215323D

 29 29  0     1  0  0  0  0  0999 V2000
   -3.6042   -3.5728    1.4576 H   0  0  0  0  0  0  0  0  0  0  0  0
   -3.5202   -2.6488    0.8866 C   0  0  0  0  0  0  0  0  0  0  0  0
   -4.2052   -1.9048    1.2896 H   0  0  0  0  0  0  0  0  0  0  0  0
   -3.7552   -2.8428   -0.1584 H   0  0  0  0  0  0  0  0  0  0  0  0
   -2.1052   -2.1358    0.9946 C   0  0  0  0  0  0  0  0  0  0  0  0
   -1.2852   -2.7288    1.6826 O   0  0  0  0  0  0  0  0  0  0  0  0
   -1.8202   -1.0288    0.3146 N   0  0  0  0  0  0  0  0  0  0  0  0
   -2.5542   -0.5788   -0.2104 H   0  0  0  0  0  0  0  0  0  0  0  0
   -0.5102   -0.3728    0.3086 C   0  0  1  0  0  0  0  0  0  0  0  0
   -0.3607    0.1004   -0.6630 H   0  0  0  0  0  0  0  0  0  0  0  0
   -0.4920    0.7283    1.3849 C   0  0  0  0  0  0  0  0  0  0  0  0
   -0.7233    0.2840    2.3546 H   0  0  0  0  0  0  0  0  0  0  0  0
    0.5117    1.1537    1.4416 H   0  0  0  0  0  0  0  0  0  0  0  0
   -1.4700    1.8442    1.1235 C   0  0  0  0  0  0  0  0  0  0  0  0
   -1.3332    2.8462    0.1868 N   0  0  0  0  0  0  0  0  0  0  0  0
   -0.5255    3.0102   -0.3953 H   0  0  0  0  0  0  0  0  0  0  0  0
   -2.4636    3.5725    0.1871 C   0  0  0  0  0  0  0  0  0  0  0  0
   -2.6539    4.4348   -0.4402 H   0  0  0  0  0  0  0  0  0  0  0  0
   -3.3346    3.0757    1.0776 N   0  0  0  0  0  0  0  0  0  0  0  0
   -2.7130    1.9798    1.6819 C   0  0  0  0  0  0  0  0  0  0  0  0
   -3.1485    1.3310    2.4308 H   0  0  0  0  0  0  0  0  0  0  0  0
    0.6166   -1.4002    0.5098 C   0  0  0  0  0  0  0  0  0  0  0  0
    0.5967   -2.4683   -0.1014 O   0  0  0  0  0  0  0  0  0  0  0  0
    1.5874   -1.0875    1.3770 N   0  0  0  0  0  0  0  0  0  0  0  0
    1.5041   -0.2160    1.8796 H   0  0  0  0  0  0  0  0  0  0  0  0
    2.7306   -1.9444    1.6803 C   0  0  0  0  0  0  0  0  0  0  0  0
    3.3036   -2.1319    0.7694 H   0  0  0  0  0  0  0  0  0  0  0  0
    3.3749   -1.4632    2.4166 H   0  0  0  0  0  0  0  0  0  0  0  0
    2.3832   -2.9002    2.0756 H   0  0  0  0  0  0  0  0  0  0  0  0
  5  6  2  0  0  0  0
  5  7  1  0  0  0  0
  2  3  1  0  0  0  0
  2  4  1  0  0  0  0
  2  5  1  0  0  0  0
  1  2  1  0  0  0  0
 22 23  2  0  0  0  0
 22 24  1  0  0  0  0
 20 21  1  0  0  0  0
 19 20  1  0  0  0  0
 17 18  1  0  0  0  0
 17 19  2  0  0  0  0
 15 16  1  0  0  0  0
 15 17  1  0  0  0  0
 14 15  1  0  0  0  0
 14 20  2  0  0  0  0
 11 12  1  0  0  0  0
 11 13  1  0  0  0  0
 11 14  1  0  0  0  0
  9 10  1  0  0  0  0
  9 11  1  0  0  0  0
  9 22  1  0  0  0  0
  7  8  1  0  0  0  0
  7  9  1  0  0  0  0
 26 27  1  0  0  0  0
 26 28  1  0  0  0  0
 26 29  1  0  0  0  0
 24 25  1  0  0  0  0
 24 26  1  0  0  0  0
M  END
$$$$
default_name
  -OEChem-01062215323D

 29 29  0     1  0  0  0  0  0999 V2000
   -3.6042   -3.5728    1.4576 H   0  0  0  0  0  0  0  0  0  0  0  0
   -3.5202   -2.6488    0.8866 C   0  0  0  0  0  0  0  0  0  0  0  0
   -4.2052   -1.9048    1.2896 H   0  0  0  0  0  0  0  0  0  0  0  0
   -3.7552   -2.8428   -0.1584 H   0  0  0  0  0  0  0  0  0  0  0  0
   -2.1052   -2.1358    0.9946 C   0  0  0  0  0  0  0  0  0  0  0  0
   -1.2852   -2.7288    1.6826 O   0  0  0  0  0  0  0  0  0  0  0  0
   -1.8202   -1.0288    0.3146 N   0  0  0  0  0  0  0  0  0  0  0  0
   -2.5542   -0.5788   -0.2104 H   0  0  0  0  0  0  0  0  0  0  0  0
   -0.5102   -0.3728    0.3086 C   0  0  1  0  0  0  0  0  0  0  0  0
   -0.3607    0.1004   -0.6630 H   0  0  0  0  0  0  0  0  0  0  0  0
   -0.4920    0.7283    1.3849 C   0  0  0  0  0  0  0  0  0  0  0  0
   -0.7233    0.2840    2.3546 H   0  0  0  0  0  0  0  0  0  0  0  0
    0.5117    1.1537    1.4416 H   0  0  0  0  0  0  0  0  0  0  0  0
   -1.4700    1.8442    1.1235 C   0  0  0  0  0  0  0  0  0  0  0  0
   -1.3332    2.8462    0.1868 N   0  0  0  0  0  0  0  0  0  0  0  0
   -0.5255    3.0102   -0.3953 H   0  0  0  0  0  0  0  0  0  0  0  0
   -2.4636    3.5725    0.1871 C   0  0  0  0  0  0  0  0  0  0  0  0
   -2.6539    4.4348   -0.4402 H   0  0  0  0  0  0  0  0  0  0  0  0
   -3.3346    3.0757    1.0776 N   0  0  0  0  0  0  0  0  0  0  0  0
   -2.7130    1.9798    1.6819 C   0  0  0  0  0  0  0  0  0  0  0  0
   -3.1485    1.3310    2.4308 H   0  0  0  0  0  0  0  0  0  0  0  0
    0.6166   -1.4002    0.5098 C   0  0  0  0  0  0  0  0  0  0  0  0
    0.7546   -2.3308   -0.2838 O   0  0  0  0  0  0  0  0  0  0  0  0
    1.4092   -1.2437    1.5774 N   0  0  0  0  0  0  0  0  0  0  0  0
    1.1979   -0.4869    2.2111 H   0  0  0  0  0  0  0  0  0  0  0  0
    2.5262   -2.1232    1.9119 C   0  0  0  0  0  0  0  0  0  0  0  0
    3.2541   -2.1220    1.0975 H   0  0  0  0  0  0  0  0  0  0  0  0
    3.0111   -1.7818    2.8269 H   0  0  0  0  0  0  0  0  0  0  0  0
    2.1655   -3.1431    2.0544 H   0  0  0  0  0  0  0  0  0  0  0  0
  5  6  2  0  0  0  0
  5  7  1  0  0  0  0
  2  3  1  0  0  0  0
  2  4  1  0  0  0  0
  2  5  1  0  0  0  0
  1  2  1  0  0  0  0
 22 23  2  0  0  0  0
 22 24  1  0  0  0  0
 20 21  1  0  0  0  0
 19 20  1  0  0  0  0
 17 18  1  0  0  0  0
 17 19  2  0  0  0  0
 15 16  1  0  0  0  0
 15 17  1  0  0  0  0
 14 15  1  0  0  0  0
 14 20  2  0  0  0  0
 11 12  1  0  0  0  0
 11 13  1  0  0  0  0
 11 14  1  0  0  0  0
  9 10  1  0  0  0  0
  9 11  1  0  0  0  0
  9 22  1  0  0  0  0
  7  8  1  0  0  0  0
  7  9  1  0  0  0  0
 26 27  1  0  0  0  0
 26 28  1  0  0  0  0
 26 29  1  0  0  0  0
 24 25  1  0  0  0  0
 24 26  1  0  0  0  0
M  END
$$$$
default_name
  -OEChem-01062215323D

 29 29  0     1  0  0  0  0  0999 V2000
   -3.6042   -3.5728    1.4576 H   0  0  0  0  0  0  0  0  0  0  0  0
   -3.5202   -2.6488    0.8866 C   0  0  0  0  0  0  0  0  0  0  0  0
   -4.2052   -1.9048    1.2896 H   0  0  0  0  0  0  0  0  0  0  0  0
   -3.7552   -2.8428   -0.1584 H   0  0  0  0  0  0  0  0  0  0  0  0
   -2.1052   -2.1358    0.9946 C   0  0  0  0  0  0  0  0  0  0  0  0
   -1.2852   -2.7288    1.6826 O   0  0  0  0  0  0  0  0  0  0  0  0
   -1.8202   -1.0288    0.3146 N   0  0  0  0  0  0  0  0  0  0  0  0
   -2.5542   -0.5788   -0.2104 H   0  0  0  0  0  0  0  0  0  0  0  0
   -0.5102   -0.3728    0.3086 C   0  0  1  0  0  0  0  0  0  0  0  0
   -0.3607    0.1004   -0.6630 H   0  0  0  0  0  0  0  0  0  0  0  0
   -0.4920    0.7283    1.3849 C   0  0  0  0  0  0  0  0  0  0  0  0
   -0.7233    0.2840    2.3546 H   0  0  0  0  0  0  0  0  0  0  0  0
    0.5117    1.1537    1.4416 H   0  0  0  0  0  0  0  0  0  0  0  0
   -1.4700    1.8442    1.1235 C   0  0  0  0  0  0  0  0  0  0  0  0
   -1.3332    2.8462    0.1868 N   0  0  0  0  0  0  0  0  0  0  0  0
   -0.5255    3.0102   -0.3953 H   0  0  0  0  0  0  0  0  0  0  0  0
   -2.4636    3.5725    0.1871 C   0  0  0  0  0  0  0  0  0  0  0  0
   -2.6539    4.4348   -0.4402 H   0  0  0  0  0  0  0  0  0  0  0  0
   -3.3346    3.0757    1.0776 N   0  0  0  0  0  0  0  0  0  0  0  0
   -2.7130    1.9798    1.6819 C   0  0  0  0  0  0  0  0  0  0  0  0
   -3.1485    1.3310    2.4308 H   0  0  0  0  0  0  0  0  0  0  0  0
    0.6166   -1.4002    0.5098 C   0  0  0  0  0  0  0  0  0  0  0  0
    0.9341   -2.1580   -0.4066 O   0  0  0  0  0  0  0  0  0  0  0  0
    1.2077   -1.4386    1.7105 N   0  0  0  0  0  0  0  0  0  0  0  0
    0.8540   -0.8218    2.4270 H   0  0  0  0  0  0  0  0  0  0  0  0
    2.2947   -2.3468    2.0664 C   0  0  0  0  0  0  0  0  0  0  0  0
    3.1493   -2.1762    1.4077 H   0  0  0  0  0  0  0  0  0  0  0  0
    2.5996   -2.1797    3.0999 H   0  0  0  0  0  0  0  0  0  0  0  0
    1.9671   -3.3810    1.9503 H   0  0  0  0  0  0  0  0  0  0  0  0
  5  6  2  0  0  0  0
  5  7  1  0  0  0  0
  2  3  1  0  0  0  0
  2  4  1  0  0  0  0
  2  5  1  0  0  0  0
  1  2  1  0  0  0  0
 22 23  2  0  0  0  0
 22 24  1  0  0  0  0
 20 21  1  0  0  0  0
 19 20  1  0  0  0  0
 17 18  1  0  0  0  0
 17 19  2  0  0  0  0
 15 16  1  0  0  0  0
 15 17  1  0  0  0  0
 14 15  1  0  0  0  0
 14 20  2  0  0  0  0
 11 12  1  0  0  0  0
 11 13  1  0  0  0  0
 11 14  1  0  0  0  0
  9 10  1  0  0  0  0
  9 11  1  0  0  0  0
  9 22  1  0  0  0  0
  7  8  1  0  0  0  0
  7  9  1  0  0  0  0
 26 27  1  0  0  0  0
 26 28  1  0  0  0  0
 26 29  1  0  0  0  0
 24 25  1  0  0  0  0
 24 26  1  0  0  0  0
M  END
$$$$
default_name
  -OEChem-01062215323D

 29 29  0     1  0  0  0  0  0999 V2000
   -3.6042   -3.5728    1.4576 H   0  0  0  0  0  0  0  0  0  0  0  0
   -3.5202   -2.6488    0.8866 C   0  0  0  0  0  0  0  0  0  0  0  0
   -4.2052   -1.9048    1.2896 H   0  0  0  0  0  0  0  0  0  0  0  0
   -3.7552   -2.8428   -0.1584 H   0  0  0  0  0  0  0  0  0  0  0  0
   -2.1052   -2.1358    0.9946 C   0  0  0  0  0  0  0  0  0  0  0  0
   -1.2852   -2.7288    1.6826 O   0  0  0  0  0  0  0  0  0  0  0  0
   -1.8202   -1.0288    0.3146 N   0  0  0  0  0  0  0  0  0  0  0  0
   -2.5542   -0.5788   -0.2104 H   0  0  0  0  0  0  0  0  0  0  0  0
   -0.5102   -0.3728    0.3086 C   0  0  1  0  0  0  0  0  0  0  0  0
   -0.3607    0.1004   -0.6630 H   0  0  0  0  0  0  0  0  0  0  0  0
   -0.4920    0.7283    1.3849 C   0  0  0  0  0  0  0  0  0  0  0  0
   -0.7233    0.2840    2.3546 H   0  0  0  0  0  0  0  0  0  0  0  0
    0.5117    1.1537    1.4416 H   0  0  0  0  0  0  0  0  0  0  0  0
   -1.4700    1.8442    1.1235 C   0  0  0  0  0  0  0  0  0  0  0  0
   -1.3332    2.8462    0.1868 N   0  0  0  0  0  0  0  0  0  0  0  0
   -0.5255    3.0102   -0.3953 H   0  0  0  0  0  0  0  0  0  0  0  0
   -2.4636    3.5725    0.1871 C   0  0  0  0  0  0  0  0  0  0  0  0
   -2.6539    4.4348   -0.4402 H   0  0  0  0  0  0  0  0  0  0  0  0
   -3.3346    3.0757    1.0776 N   0  0  0  0  0  0  0  0  0  0  0  0
   -2.7130    1.9798    1.6819 C   0  0  0  0  0  0  0  0  0  0  0  0
   -3.1485    1.3310    2.4308 H   0  0  0  0  0  0  0  0  0  0  0  0
    0.6166   -1.4002    0.5098 C   0  0  0  0  0  0  0  0  0  0  0  0
    1.1228   -1.9618   -0.4614 O   0  0  0  0  0  0  0  0  0  0  0  0
    0.9966   -1.6590    1.7672 N   0  0  0  0  0  0  0  0  0  0  0  0
    0.4958   -1.1978    2.5125 H   0  0  0  0  0  0  0  0  0  0  0  0
    2.0520   -2.5999    2.1332 C   0  0  0  0  0  0  0  0  0  0  0  0
    2.9962   -2.2910    1.6790 H   0  0  0  0  0  0  0  0  0  0  0  0
    2.1683   -2.6298    3.2170 H   0  0  0  0  0  0  0  0  0  0  0  0
    1.8015   -3.5979    1.7703 H   0  0  0  0  0  0  0  0  0  0  0  0
  5  6  2  0  0  0  0
  5  7  1  0  0  0  0
  2  3  1  0  0  0  0
  2  4  1  0  0  0  0
  2  5  1  0  0  0  0
  1  2  1  0  0  0  0
 22 23  2  0  0  0  0
 22 24  1  0  0  0  0
 20 21  1  0  0  0  0
 19 20  1  0  0  0  0
 17 18  1  0  0  0  0
 17 19  2  0  0  0  0
 15 16  1  0  0  0  0
 15 17  1  0  0  0  0
 14 15  1  0  0  0  0
 14 20  2  0  0  0  0
 11 12  1  0  0  0  0
 11 13  1  0  0  0  0
 11 14  1  0  0  0  0
  9 10  1  0  0  0  0
  9 11  1  0  0  0  0
  9 22  1  0  0  0  0
  7  8  1  0  0  0  0
  7  9  1  0  0  0  0
 26 27  1  0  0  0  0
 26 28  1  0  0  0  0
 26 29  1  0  0  0  0
 24 25  1  0  0  0  0
 24 26  1  0  0  0  0
M  END
$$$$
default_name
  -OEChem-01062215323D

 29 29  0     1  0  0  0  0  0999 V2000
   -3.6042   -3.5728    1.4576 H   0  0  0  0  0  0  0  0  0  0  0  0
   -3.5202   -2.6488    0.8866 C   0  0  0  0  0  0  0  0  0  0  0  0
   -4.2052   -1.9048    1.2896 H   0  0  0  0  0  0  0  0  0  0  0  0
   -3.7552   -2.8428   -0.1584 H   0  0  0  0  0  0  0  0  0  0  0  0
   -2.1052   -2.1358    0.9946 C   0  0  0  0  0  0  0  0  0  0  0  0
   -1.2852   -2.7288    1.6826 O   0  0  0  0  0  0  0  0  0  0  0  0
   -1.8202   -1.0288    0.3146 N   0  0  0  0  0  0  0  0  0  0  0  0
   -2.5542   -0.5788   -0.2104 H   0  0  0  0  0  0  0  0  0  0  0  0
   -0.5102   -0.3728    0.3086 C   0  0  1  0  0  0  0  0  0  0  0  0
   -0.3607    0.1004   -0.6630 H   0  0  0  0  0  0  0  0  0  0  0  0
   -0.4920    0.7283    1.3849 C   0  0  0  0  0  0  0  0  0  0  0  0
   -0.7233    0.2840    2.3546 H   0  0  0  0  0  0  0  0  0  0  0  0
    0.5117    1.1537    1.4416 H   0  0  0  0  0  0  0  0  0  0  0  0
   -1.4700    1.8442    1.1235 C   0  0  0  0  0  0  0  0  0  0  0  0
   -1.3332    2.8462    0.1868 N   0  0  0  0  0  0  0  0  0  0  0  0
   -0.5255    3.0102   -0.3953 H   0  0  0  0  0  0  0  0  0  0  0  0
   -2.4636    3.5725    0.1871 C   0  0  0  0  0  0  0  0  0  0  0  0
   -2.6539    4.4348   -0.4402 H   0  0  0  0  0  0  0  0  0  0  0  0
   -3.3346    3.0757    1.0776 N   0  0  0  0  0  0  0  0  0  0  0  0
   -2.7130    1.9798    1.6819 C   0  0  0  0  0  0  0  0  0  0  0  0
   -3.1485    1.3310    2.4308 H   0  0  0  0  0  0  0  0  0  0  0  0
    0.6166   -1.4002    0.5098 C   0  0  0  0  0  0  0  0  0  0  0  0
    1.3079   -1.7554   -0.4445 O   0  0  0  0  0  0  0  0  0  0  0  0
    0.7904   -1.8897    1.7438 N   0  0  0  0  0  0  0  0  0  0  0  0
    0.1478   -1.5894    2.4620 H   0  0  0  0  0  0  0  0  0  0  0  0
    1.8146   -2.8652    2.1078 C   0  0  0  0  0  0  0  0  0  0  0  0
    2.8053   -2.4584    1.8928 H   0  0  0  0  0  0  0  0  0  0  0  0
    1.7467   -3.1013    3.1702 H   0  0  0  0  0  0  0  0  0  0  0  0
    1.6800   -3.7788    1.5266 H   0  0  0  0  0  0  0  0  0  0  0  0
  5  6  2  0  0  0  0
  5  7  1  0  0  0  0
  2  3  1  0  0  0  0
  2  4  1  0  0  0  0
  2  5  1  0  0  0  0
  1  2  1  0  0  0  0
 22 23  2  0  0  0  0
 22 24  1  0  0  0  0
 20 21  1  0  0  0  0
 19 20  1  0  0  0  0
 17 18  1  0  0  0  0
 17 19  2  0  0  0  0
 15 16  1  0  0  0  0
 15 17  1  0  0  0  0
 14 15  1  0  0  0  0
 14 20  2  0  0  0  0
 11 12  1  0  0  0  0
 11 13  1  0  0  0  0
 11 14  1  0  0  0  0
  9 10  1  0  0  0  0
  9 11  1  0  0  0  0
  9 22  1  0  0  0  0
  7  8  1  0  0  0  0
  7  9  1  0  0  0  0
 26 27  1  0  0  0  0
 26 28  1  0  0  0  0
 26 29  1  0  0  0  0
 24 25  1  0  0  0  0
 24 26  1  0  0  0  0
M  END
$$$$
default_name
  -OEChem-01062215323D

 29 29  0     1  0  0  0  0  0999 V2000
   -3.6042   -3.5728    1.4576 H   0  0  0  0  0  0  0  0  0  0  0  0
   -3.5202   -2.6488    0.8866 C   0  0  0  0  0  0  0  0  0  0  0  0
   -4.2052   -1.9048    1.2896 H   0  0  0  0  0  0  0  0  0  0  0  0
   -3.7552   -2.8428   -0.1584 H   0  0  0  0  0  0  0  0  0  0  0  0
   -2.1052   -2.1358    0.9946 C   0  0  0  0  0  0  0  0  0  0  0  0
   -1.2852   -2.7288    1.6826 O   0  0  0  0  0  0  0  0  0  0  0  0
   -1.8202   -1.0288    0.3146 N   0  0  0  0  0  0  0  0  0  0  0  0
   -2.5542   -0.5788   -0.2104 H   0  0  0  0  0  0  0  0  0  0  0  0
   -0.5102   -0.3728    0.3086 C   0  0  1  0  0  0  0  0  0  0  0  0
   -0.3607    0.1004   -0.6630 H   0  0  0  0  0  0  0  0  0  0  0  0
   -0.4920    0.7283    1.3849 C   0  0  0  0  0  0  0  0  0  0  0  0
   -0.7233    0.2840    2.3546 H   0  0  0  0  0  0  0  0  0  0  0  0
    0.5117    1.1537    1.4416 H   0  0  0  0  0  0  0  0  0  0  0  0
   -1.4700    1.8442    1.1235 C   0  0  0  0  0  0  0  0  0  0  0  0
   -1.3332    2.8462    0.1868 N   0  0  0  0  0  0  0  0  0  0  0  0
   -0.5255    3.0102   -0.3953 H   0  0  0  0  0  0  0  0  0  0  0  0
   -2.4636    3.5725    0.1871 C   0  0  0  0  0  0  0  0  0  0  0  0
   -2.6539    4.4348   -0.4402 H   0  0  0  0  0  0  0  0  0  0  0  0
   -3.3346    3.0757    1.0776 N   0  0  0  0  0  0  0  0  0  0  0  0
   -2.7130    1.9798    1.6819 C   0  0  0  0  0  0  0  0  0  0  0  0
   -3.1485    1.3310    2.4308 H   0  0  0  0  0  0  0  0  0  0  0  0
    0.6166   -1.4002    0.5098 C   0  0  0  0  0  0  0  0  0  0  0  0
    1.4768   -1.5531   -0.3570 O   0  0  0  0  0  0  0  0  0  0  0  0
    0.6031   -2.1151    1.6417 N   0  0  0  0  0  0  0  0  0  0  0  0
   -0.1664   -1.9698    2.2787 H   0  0  0  0  0  0  0  0  0  0  0  0
    1.5987   -3.1247    1.9920 C   0  0  0  0  0  0  0  0  0  0  0  0
    2.5896   -2.6672    2.0345 H   0  0  0  0  0  0  0  0  0  0  0  0
    1.3636   -3.5621    2.9627 H   0  0  0  0  0  0  0  0  0  0  0  0
    1.6110   -3.9115    1.2360 H   0  0  0  0  0  0  0  0  0  0  0  0
  5  6  2  0  0  0  0
  5  7  1  0  0  0  0
  2  3  1  0  0  0  0
  2  4  1  0  0  0  0
  2  5  1  0  0  0  0
  1  2  1  0  0  0  0
 22 23  2  0  0  0  0
 22 24  1  0  0  0  0
 20 21  1  0  0  0  0
 19 20  1  0  0  0  0
 17 18  1  0  0  0  0
 17 19  2  0  0  0  0
 15 16  1  0  0  0  0
 15 17  1  0  0  0  0
 14 15  1  0  0  0  0
 14 20  2  0  0  0  0
 11 12  1  0  0  0  0
 11 13  1  0  0  0  0
 11 14  1  0  0  0  0
  9 10  1  0  0  0  0
  9 11  1  0  0  0  0
  9 22  1  0  0  0  0
  7  8  1  0  0  0  0
  7  9  1  0  0  0  0
 26 27  1  0  0  0  0
 26 28  1  0  0  0  0
 26 29  1  0  0  0  0
 24 25  1  0  0  0  0
 24 26  1  0  0  0  0
M  END
$$$$
default_name
  -OEChem-01062215323D

 29 29  0     1  0  0  0  0  0999 V2000
   -3.6042   -3.5728    1.4576 H   0  0  0  0  0  0  0  0  0  0  0  0
   -3.5202   -2.6488    0.8866 C   0  0  0  0  0  0  0  0  0  0  0  0
   -4.2052   -1.9048    1.2896 H   0  0  0  0  0  0  0  0  0  0  0  0
   -3.7552   -2.8428   -0.1584 H   0  0  0  0  0  0  0  0  0  0  0  0
   -2.1052   -2.1358    0.9946 C   0  0  0  0  0  0  0  0  0  0  0  0
   -1.2852   -2.7288    1.6826 O   0  0  0  0  0  0  0  0  0  0  0  0
   -1.8202   -1.0288    0.3146 N   0  0  0  0  0  0  0  0  0  0  0  0
   -2.5542   -0.5788   -0.2104 H   0  0  0  0  0  0  0  0  0  0  0  0
   -0.5102   -0.3728    0.3086 C   0  0  1  0  0  0  0  0  0  0  0  0
   -0.3607    0.1004   -0.6630 H   0  0  0  0  0  0  0  0  0  0  0  0
   -0.4920    0.7283    1.3849 C   0  0  0  0  0  0  0  0  0  0  0  0
   -0.7233    0.2840    2.3546 H   0  0  0  0  0  0  0  0  0  0  0  0
    0.5117    1.1537    1.4416 H   0  0  0  0  0  0  0  0  0  0  0  0
   -1.4700    1.8442    1.1235 C   0  0  0  0  0  0  0  0  0  0  0  0
   -1.3332    2.8462    0.1868 N   0  0  0  0  0  0  0  0  0  0  0  0
   -0.5255    3.0102   -0.3953 H   0  0  0  0  0  0  0  0  0  0  0  0
   -2.4636    3.5725    0.1871 C   0  0  0  0  0  0  0  0  0  0  0  0
   -2.6539    4.4348   -0.4402 H   0  0  0  0  0  0  0  0  0  0  0  0
   -3.3346    3.0757    1.0776 N   0  0  0  0  0  0  0  0  0  0  0  0
   -2.7130    1.9798    1.6819 C   0  0  0  0  0  0  0  0  0  0  0  0
   -3.1485    1.3310    2.4308 H   0  0  0  0  0  0  0  0  0  0  0  0
    0.6166   -1.4002    0.5098 C   0  0  0  0  0  0  0  0  0  0  0  0
    1.6180   -1.3685   -0.2050 O   0  0  0  0  0  0  0  0  0  0  0  0
    0.4474   -2.3199    1.4680 N   0  0  0  0  0  0  0  0  0  0  0  0
   -0.4253   -2.3132    1.9752 H   0  0  0  0  0  0  0  0  0  0  0  0
    1.4189   -3.3608    1.7935 C   0  0  0  0  0  0  0  0  0  0  0  0
    2.3639   -2.9030    2.0946 H   0  0  0  0  0  0  0  0  0  0  0  0
    1.0449   -3.9809    2.6087 H   0  0  0  0  0  0  0  0  0  0  0  0
    1.5990   -3.9868    0.9182 H   0  0  0  0  0  0  0  0  0  0  0  0
  5  6  2  0  0  0  0
  5  7  1  0  0  0  0
  2  3  1  0  0  0  0
  2  4  1  0  0  0  0
  2  5  1  0  0  0  0
  1  2  1  0  0  0  0
 22 23  2  0  0  0  0
 22 24  1  0  0  0  0
 20 21  1  0  0  0  0
 19 20  1  0  0  0  0
 17 18  1  0  0  0  0
 17 19  2  0  0  0  0
 15 16  1  0  0  0  0
 15 17  1  0  0  0  0
 14 15  1  0  0  0  0
 14 20  2  0  0  0  0
 11 12  1  0  0  0  0
 11 13  1  0  0  0  0
 11 14  1  0  0  0  0
  9 10  1  0  0  0  0
  9 11  1  0  0  0  0
  9 22  1  0  0  0  0
  7  8  1  0  0  0  0
  7  9  1  0  0  0  0
 26 27  1  0  0  0  0
 26 28  1  0  0  0  0
 26 29  1  0  0  0  0
 24 25  1  0  0  0  0
 24 26  1  0  0  0  0
M  END
$$$$
default_name
  -OEChem-01062215323D

 29 29  0     1  0  0  0  0  0999 V2000
   -3.6042   -3.5728    1.4576 H   0  0  0  0  0  0  0  0  0  0  0  0
   -3.5202   -2.6488    0.8866 C   0  0  0  0  0  0  0  0  0  0  0  0
   -4.2052   -1.9048    1.2896 H   0  0  0  0  0  0  0  0  0  0  0  0
   -3.7552   -2.8428   -0.1584 H   0  0  0  0  0  0  0  0  0  0  0  0
   -2.1052   -2.1358    0.9946 C   0  0  0  0  0  0  0  0  0  0  0  0
   -1.2852   -2.7288    1.6826 O   0  0  0  0  0  0  0  0  0  0  0  0
   -1.8202   -1.0288    0.3146 N   0  0  0  0  0  0  0  0  0  0  0  0
   -2.5542   -0.5788   -0.2104 H   0  0  0  0  0  0  0  0  0  0  0  0
   -0.5102   -0.3728    0.3086 C   0  0  1  0  0  0  0  0  0  0  0  0
   -0.3607    0.1004   -0.6630 H   0  0  0  0  0  0  0  0  0  0  0  0
   -0.4920    0.7283    1.3849 C   0  0  0  0  0  0  0  0  0  0  0  0
   -0.7233    0.2840    2.3546 H   0  0  0  0  0  0  0  0  0  0  0  0
    0.5117    1.1537    1.4416 H   0  0  0  0  0  0  0  0  0  0  0  0
   -1.4700    1.8442    1.1235 C   0  0  0  0  0  0  0  0  0  0  0  0
   -1.3332    2.8462    0.1868 N   0  0  0  0  0  0  0  0  0  0  0  0
   -0.5255    3.0102   -0.3953 H   0  0  0  0  0  0  0  0  0  0  0  0
   -2.4636    3.5725    0.1871 C   0  0  0  0  0  0  0  0  0  0  0  0
   -2.6539    4.4348   -0.4402 H   0  0  0  0  0  0  0  0  0  0  0  0
   -3.3346    3.0757    1.0776 N   0  0  0  0  0  0  0  0  0  0  0  0
   -2.7130    1.9798    1.6819 C   0  0  0  0  0  0  0  0  0  0  0  0
   -3.1485    1.3310    2.4308 H   0  0  0  0  0  0  0  0  0  0  0  0
    0.6166   -1.4002    0.5098 C   0  0  0  0  0  0  0  0  0  0  0  0
    1.7218   -1.2142    0.0013 O   0  0  0  0  0  0  0  0  0  0  0  0
    0.3340   -2.4899    1.2345 N   0  0  0  0  0  0  0  0  0  0  0  0
   -0.6113   -2.5961    1.5722 H   0  0  0  0  0  0  0  0  0  0  0  0
    1.2876   -3.5572    1.5259 C   0  0  0  0  0  0  0  0  0  0  0  0
    2.1434   -3.1498    2.0688 H   0  0  0  0  0  0  0  0  0  0  0  0
    0.8126   -4.3290    2.1322 H   0  0  0  0  0  0  0  0  0  0  0  0
    1.6449   -3.9998    0.5948 H   0  0  0  0  0  0  0  0  0  0  0  0
  5  6  2  0  0  0  0
  5  7  1  0  0  0  0
  2  3  1  0  0  0  0
  2  4  1  0  0  0  0
  2  5  1  0  0  0  0
  1  2  1  0  0  0  0
 22 23  2  0  0  0  0
 22 24  1  0  0  0  0
 20 21  1  0  0  0  0
 19 20  1  0  0  0  0
 17 18  1  0  0  0  0
 17 19  2  0  0  0  0
 15 16  1  0  0  0  0
 15 17  1  0  0  0  0
 14 15  1  0  0  0  0
 14 20  2  0  0  0  0
 11 12  1  0  0  0  0
 11 13  1  0  0  0  0
 11 14  1  0  0  0  0
  9 10  1  0  0  0  0
  9 11  1  0  0  0  0
  9 22  1  0  0  0  0
  7  8  1  0  0  0  0
  7  9  1  0  0  0  0
 26 27  1  0  0  0  0
 26 28  1  0  0  0  0
 26 29  1  0  0  0  0
 24 25  1  0  0  0  0
 24 26  1  0  0  0  0
M  END
$$$$
default_name
  -OEChem-01062215323D

 29 29  0     1  0  0  0  0  0999 V2000
   -3.6042   -3.5728    1.4576 H   0  0  0  0  0  0  0  0  0  0  0  0
   -3.5202   -2.6488    0.8866 C   0  0  0  0  0  0  0  0  0  0  0  0
   -4.2052   -1.9048    1.2896 H   0  0  0  0  0  0  0  0  0  0  0  0
   -3.7552   -2.8428   -0.1584 H   0  0  0  0  0  0  0  0  0  0  0  0
   -2.1052   -2.1358    0.9946 C   0  0  0  0  0  0  0  0  0  0  0  0
   -1.2852   -2.7288    1.6826 O   0  0  0  0  0  0  0  0  0  0  0  0
   -1.8202   -1.0288    0.3146 N   0  0  0  0  0  0  0  0  0  0  0  0
   -2.5542   -0.5788   -0.2104 H   0  0  0  0  0  0  0  0  0  0  0  0
   -0.5102   -0.3728    0.3086 C   0  0  1  0  0  0  0  0  0  0  0  0
   -0.3607    0.1004   -0.6630 H   0  0  0  0  0  0  0  0  0  0  0  0
   -0.4920    0.7283    1.3849 C   0  0  0  0  0  0  0  0  0  0  0  0
   -0.7233    0.2840    2.3546 H   0  0  0  0  0  0  0  0  0  0  0  0
    0.5117    1.1537    1.4416 H   0  0  0  0  0  0  0  0  0  0  0  0
   -1.4700    1.8442    1.1235 C   0  0  0  0  0  0  0  0  0  0  0  0
   -1.3332    2.8462    0.1868 N   0  0  0  0  0  0  0  0  0  0  0  0
   -0.5255    3.0102   -0.3953 H   0  0  0  0  0  0  0  0  0  0  0  0
   -2.4636    3.5725    0.1871 C   0  0  0  0  0  0  0  0  0  0  0  0
   -2.6539    4.4348   -0.4402 H   0  0  0  0  0  0  0  0  0  0  0  0
   -3.3346    3.0757    1.0776 N   0  0  0  0  0  0  0  0  0  0  0  0
   -2.7130    1.9798    1.6819 C   0  0  0  0  0  0  0  0  0  0  0  0
   -3.1485    1.3310    2.4308 H   0  0  0  0  0  0  0  0  0  0  0  0
    0.6166   -1.4002    0.5098 C   0  0  0  0  0  0  0  0  0  0  0  0
    1.7812   -1.1008    0.2477 O   0  0  0  0  0  0  0  0  0  0  0  0
    0.2706   -2.6138    0.9571 N   0  0  0  0  0  0  0  0  0  0  0  0
   -0.7117   -2.7992    1.0972 H   0  0  0  0  0  0  0  0  0  0  0  0
    1.2136   -3.7007    1.2075 C   0  0  0  0  0  0  0  0  0  0  0  0
    1.9433   -3.3908    1.9590 H   0  0  0  0  0  0  0  0  0  0  0  0
    0.6822   -4.5828    1.5658 H   0  0  0  0  0  0  0  0  0  0  0  0
    1.7456   -3.9495    0.2880 H   0  0  0  0  0  0  0  0  0  0  0  0
  5  6  2  0  0  0  0
  5  7  1  0  0  0  0
  2  3  1  0  0  0  0
  2  4  1  0  0  0  0
  2  5  1  0  0  0  0
  1  2  1  0  0  0  0
 22 23  2  0  0  0  0
 22 24  1  0  0  0  0
 20 21  1  0  0  0  0
 19 20  1  0  0  0  0
 17 18  1  0  0  0  0
 17 19  2  0  0  0  0
 15 16  1  0  0  0  0
 15 17  1  0  0  0  0
 14 15  1  0  0  0  0
 14 20  2  0  0  0  0
 11 12  1  0  0  0  0
 11 13  1  0  0  0  0
 11 14  1  0  0  0  0
  9 10  1  0  0  0  0
  9 11  1  0  0  0  0
  9 22  1  0  0  0  0
  7  8  1  0  0  0  0
  7  9  1  0  0  0  0
 26 27  1  0  0  0  0
 26 28  1  0  0  0  0
 26 29  1  0  0  0  0
 24 25  1  0  0  0  0
 24 26  1  0  0  0  0
M  END
$$$$
default_name
  -OEChem-01062215323D

 29 29  0     1  0  0  0  0  0999 V2000
   -3.6042   -3.5728    1.4576 H   0  0  0  0  0  0  0  0  0  0  0  0
   -3.5202   -2.6488    0.8866 C   0  0  0  0  0  0  0  0  0  0  0  0
   -4.2052   -1.9048    1.2896 H   0  0  0  0  0  0  0  0  0  0  0  0
   -3.7552   -2.8428   -0.1584 H   0  0  0  0  0  0  0  0  0  0  0  0
   -2.1052   -2.1358    0.9946 C   0  0  0  0  0  0  0  0  0  0  0  0
   -1.2852   -2.7288    1.6826 O   0  0  0  0  0  0  0  0  0  0  0  0
   -1.8202   -1.0288    0.3146 N   0  0  0  0  0  0  0  0  0  0  0  0
   -2.5542   -0.5788   -0.2104 H   0  0  0  0  0  0  0  0  0  0  0  0
   -0.5102   -0.3728    0.3086 C   0  0  1  0  0  0  0  0  0  0  0  0
   -0.3607    0.1004   -0.6630 H   0  0  0  0  0  0  0  0  0  0  0  0
   -0.4920    0.7283    1.3849 C   0  0  0  0  0  0  0  0  0  0  0  0
   -0.7233    0.2840    2.3546 H   0  0  0  0  0  0  0  0  0  0  0  0
    0.5117    1.1537    1.4416 H   0  0  0  0  0  0  0  0  0  0  0  0
   -1.4700    1.8442    1.1235 C   0  0  0  0  0  0  0  0  0  0  0  0
   -1.3332    2.8462    0.1868 N   0  0  0  0  0  0  0  0  0  0  0  0
   -0.5255    3.0102   -0.3953 H   0  0  0  0  0  0  0  0  0  0  0  0
   -2.4636    3.5725    0.1871 C   0  0  0  0  0  0  0  0  0  0  0  0
   -2.6539    4.4348   -0.4402 H   0  0  0  0  0  0  0  0  0  0  0  0
   -3.3346    3.0757    1.0776 N   0  0  0  0  0  0  0  0  0  0  0  0
   -2.7130    1.9798    1.6819 C   0  0  0  0  0  0  0  0  0  0  0  0
   -3.1485    1.3310    2.4308 H   0  0  0  0  0  0  0  0  0  0  0  0
    0.6166   -1.4002    0.5098 C   0  0  0  0  0  0  0  0  0  0  0  0
    1.7922   -1.0360    0.5175 O   0  0  0  0  0  0  0  0  0  0  0  0
    0.2616   -2.6830    0.6547 N   0  0  0  0  0  0  0  0  0  0  0  0
   -0.7197   -2.9088    0.5824 H   0  0  0  0  0  0  0  0  0  0  0  0
    1.2021   -3.7814    0.8600 C   0  0  0  0  0  0  0  0  0  0  0  0
    1.7771   -3.6096    1.7727 H   0  0  0  0  0  0  0  0  0  0  0  0
    0.6629   -4.7250    0.9481 H   0  0  0  0  0  0  0  0  0  0  0  0
    1.8942   -3.8392    0.0185 H   0  0  0  0  0  0  0  0  0  0  0  0
  5  6  2  0  0  0  0
  5  7  1  0  0  0  0
  2  3  1  0  0  0  0
  2  4  1  0  0  0  0
  2  5  1  0  0  0  0
  1  2  1  0  0  0  0
 22 23  2  0  0  0  0
 22 24  1  0  0  0  0
 20 21  1  0  0  0  0
 19 20  1  0  0  0  0
 17 18  1  0  0  0  0
 17 19  2  0  0  0  0
 15 16  1  0  0  0  0
 15 17  1  0  0  0  0
 14 15  1  0  0  0  0
 14 20  2  0  0  0  0
 11 12  1  0  0  0  0
 11 13  1  0  0  0  0
 11 14  1  0  0  0  0
  9 10  1  0  0  0  0
  9 11  1  0  0  0  0
  9 22  1  0  0  0  0
  7  8  1  0  0  0  0
  7  9  1  0  0  0  0
 26 27  1  0  0  0  0
 26 28  1  0  0  0  0
 26 29  1  0  0  0  0
 24 25  1  0  0  0  0
 24 26  1  0  0  0  0
M  END
$$$$
default_name
  -OEChem-01062215323D

 29 29  0     1  0  0  0  0  0999 V2000
   -3.6042   -3.5728    1.4576 H   0  0  0  0  0  0  0  0  0  0  0  0
   -3.5202   -2.6488    0.8866 C   0  0  0  0  0  0  0  0  0  0  0  0
   -4.2052   -1.9048    1.2896 H   0  0  0  0  0  0  0  0  0  0  0  0
   -3.7552   -2.8428   -0.1584 H   0  0  0  0  0  0  0  0  0  0  0  0
   -2.1052   -2.1358    0.9946 C   0  0  0  0  0  0  0  0  0  0  0  0
   -1.2852   -2.7288    1.6826 O   0  0  0  0  0  0  0  0  0  0  0  0
   -1.8202   -1.0288    0.3146 N   0  0  0  0  0  0  0  0  0  0  0  0
   -2.5542   -0.5788   -0.2104 H   0  0  0  0  0  0  0  0  0  0  0  0
   -0.5102   -0.3728    0.3086 C   0  0  1  0  0  0  0  0  0  0  0  0
   -0.3607    0.1004   -0.6630 H   0  0  0  0  0  0  0  0  0  0  0  0
   -0.4920    0.7283    1.3849 C   0  0  0  0  0  0  0  0  0  0  0  0
   -0.7233    0.2840    2.3546 H   0  0  0  0  0  0  0  0  0  0  0  0
    0.5117    1.1537    1.4416 H   0  0  0  0  0  0  0  0  0  0  0  0
   -1.4700    1.8442    1.1235 C   0  0  0  0  0  0  0  0  0  0  0  0
   -1.3332    2.8462    0.1868 N   0  0  0  0  0  0  0  0  0  0  0  0
   -0.5255    3.0102   -0.3953 H   0  0  0  0  0  0  0  0  0  0  0  0
   -2.4636    3.5725    0.1871 C   0  0  0  0  0  0  0  0  0  0  0  0
   -2.6539    4.4348   -0.4402 H   0  0  0  0  0  0  0  0  0  0  0  0
   -3.3346    3.0757    1.0776 N   0  0  0  0  0  0  0  0  0  0  0  0
   -2.7130    1.9798    1.6819 C   0  0  0  0  0  0  0  0  0  0  0  0
   -3.1485    1.3310    2.4308 H   0  0  0  0  0  0  0  0  0  0  0  0
    0.6166   -1.4002    0.5098 C   0  0  0  0  0  0  0  0  0  0  0  0
    1.7539   -1.0241    0.7923 O   0  0  0  0  0  0  0  0  0  0  0  0
    0.3074   -2.6928    0.3479 N   0  0  0  0  0  0  0  0  0  0  0  0
   -0.6346   -2.9173    0.0631 H   0  0  0  0  0  0  0  0  0  0  0  0
    1.2537   -3.7938    0.5070 C   0  0  0  0  0  0  0  0  0  0  0  0
    1.6562   -3.7911    1.5225 H   0  0  0  0  0  0  0  0  0  0  0  0
    0.7558   -4.7459    0.3211 H   0  0  0  0  0  0  0  0  0  0  0  0
    2.0806   -3.6766   -0.1951 H   0  0  0  0  0  0  0  0  0  0  0  0
  5  6  2  0  0  0  0
  5  7  1  0  0  0  0
  2  3  1  0  0  0  0
  2  4  1  0  0  0  0
  2  5  1  0  0  0  0
  1  2  1  0  0  0  0
 22 23  2  0  0  0  0
 22 24  1  0  0  0  0
 20 21  1  0  0  0  0
 19 20  1  0  0  0  0
 17 18  1  0  0  0  0
 17 19  2  0  0  0  0
 15 16  1  0  0  0  0
 15 17  1  0  0  0  0
 14 15  1  0  0  0  0
 14 20  2  0  0  0  0
 11 12  1  0  0  0  0
 11 13  1  0  0  0  0
 11 14  1  0  0  0  0
  9 10  1  0  0  0  0
  9 11  1  0  0  0  0
  9 22  1  0  0  0  0
  7  8  1  0  0  0  0
  7  9  1  0  0  0  0
 26 27  1  0  0  0  0
 26 28  1  0  0  0  0
 26 29  1  0  0  0  0
 24 25  1  0  0  0  0
 24 26  1  0  0  0  0
M  END
$$$$
default_name
  -OEChem-01062215323D

 29 29  0     1  0  0  0  0  0999 V2000
   -3.6042   -3.5728    1.4576 H   0  0  0  0  0  0  0  0  0  0  0  0
   -3.5202   -2.6488    0.8866 C   0  0  0  0  0  0  0  0  0  0  0  0
   -4.2052   -1.9048    1.2896 H   0  0  0  0  0  0  0  0  0  0  0  0
   -3.7552   -2.8428   -0.1584 H   0  0  0  0  0  0  0  0  0  0  0  0
   -2.1052   -2.1358    0.9946 C   0  0  0  0  0  0  0  0  0  0  0  0
   -1.2852   -2.7288    1.6826 O   0  0  0  0  0  0  0  0  0  0  0  0
   -1.8202   -1.0288    0.3146 N   0  0  0  0  0  0  0  0  0  0  0  0
   -2.5542   -0.5788   -0.2104 H   0  0  0  0  0  0  0  0  0  0  0  0
   -0.5102   -0.3728    0.3086 C   0  0  1  0  0  0  0  0  0  0  0  0
   -0.3607    0.1004   -0.6630 H   0  0  0  0  0  0  0  0  0  0  0  0
   -0.4920    0.7283    1.3849 C   0  0  0  0  0  0  0  0  0  0  0  0
   -0.7233    0.2840    2.3546 H   0  0  0  0  0  0  0  0  0  0  0  0
    0.5117    1.1537    1.4416 H   0  0  0  0  0  0  0  0  0  0  0  0
   -1.4700    1.8442    1.1235 C   0  0  0  0  0  0  0  0  0  0  0  0
   -1.3332    2.8462    0.1868 N   0  0  0  0  0  0  0  0  0  0  0  0
   -0.5255    3.0102   -0.3953 H   0  0  0  0  0  0  0  0  0  0  0  0
   -2.4636    3.5725    0.1871 C   0  0  0  0  0  0  0  0  0  0  0  0
   -2.6539    4.4348   -0.4402 H   0  0  0  0  0  0  0  0  0  0  0  0
   -3.3346    3.0757    1.0776 N   0  0  0  0  0  0  0  0  0  0  0  0
   -2.7130    1.9798    1.6819 C   0  0  0  0  0  0  0  0  0  0  0  0
   -3.1485    1.3310    2.4308 H   0  0  0  0  0  0  0  0  0  0  0  0
    0.6166   -1.4002    0.5098 C   0  0  0  0  0  0  0  0  0  0  0  0
    1.6690   -1.0661    1.0534 O   0  0  0  0  0  0  0  0  0  0  0  0
    0.4051   -2.6425    0.0576 N   0  0  0  0  0  0  0  0  0  0  0  0
   -0.4625   -2.8241   -0.4255 H   0  0  0  0  0  0  0  0  0  0  0  0
    1.3651   -3.7372    0.1727 C   0  0  0  0  0  0  0  0  0  0  0  0
    1.5888   -3.9232    1.2255 H   0  0  0  0  0  0  0  0  0  0  0  0
    0.9547   -4.6440   -0.2725 H   0  0  0  0  0  0  0  0  0  0  0  0
    2.2921   -3.4728   -0.3385 H   0  0  0  0  0  0  0  0  0  0  0  0
  5  6  2  0  0  0  0
  5  7  1  0  0  0  0
  2  3  1  0  0  0  0
  2  4  1  0  0  0  0
  2  5  1  0  0  0  0
  1  2  1  0  0  0  0
 22 23  2  0  0  0  0
 22 24  1  0  0  0  0
 20 21  1  0  0  0  0
 19 20  1  0  0  0  0
 17 18  1  0  0  0  0
 17 19  2  0  0  0  0
 15 16  1  0  0  0  0
 15 17  1  0  0  0  0
 14 15  1  0  0  0  0
 14 20  2  0  0  0  0
 11 12  1  0  0  0  0
 11 13  1  0  0  0  0
 11 14  1  0  0  0  0
  9 10  1  0  0  0  0
  9 11  1  0  0  0  0
  9 22  1  0  0  0  0
  7  8  1  0  0  0  0
  7  9  1  0  0  0  0
 26 27  1  0  0  0  0
 26 28  1  0  0  0  0
 26 29  1  0  0  0  0
 24 25  1  0  0  0  0
 24 26  1  0  0  0  0
M  END
$$$$
default_name
  -OEChem-01062215323D

 29 29  0     1  0  0  0  0  0999 V2000
   -3.6042   -3.5728    1.4576 H   0  0  0  0  0  0  0  0  0  0  0  0
   -3.5202   -2.6488    0.8866 C   0  0  0  0  0  0  0  0  0  0  0  0
   -4.2052   -1.9048    1.2896 H   0  0  0  0  0  0  0  0  0  0  0  0
   -3.7552   -2.8428   -0.1584 H   0  0  0  0  0  0  0  0  0  0  0  0
   -2.1052   -2.1358    0.9946 C   0  0  0  0  0  0  0  0  0  0  0  0
   -1.2852   -2.7288    1.6826 O   0  0  0  0  0  0  0  0  0  0  0  0
   -1.8202   -1.0288    0.3146 N   0  0  0  0  0  0  0  0  0  0  0  0
   -2.5542   -0.5788   -0.2104 H   0  0  0  0  0  0  0  0  0  0  0  0
   -0.5102   -0.3728    0.3086 C   0  0  1  0  0  0  0  0  0  0  0  0
   -0.3607    0.1004   -0.6630 H   0  0  0  0  0  0  0  0  0  0  0  0
   -0.4920    0.7283    1.3849 C   0  0  0  0  0  0  0  0  0  0  0  0
   -0.7233    0.2840    2.3546 H   0  0  0  0  0  0  0  0  0  0  0  0
    0.5117    1.1537    1.4416 H   0  0  0  0  0  0  0  0  0  0  0  0
   -1.4700    1.8442    1.1235 C   0  0  0  0  0  0  0  0  0  0  0  0
   -1.3332    2.8462    0.1868 N   0  0  0  0  0  0  0  0  0  0  0  0
   -0.5255    3.0102   -0.3953 H   0  0  0  0  0  0  0  0  0  0  0  0
   -2.4636    3.5725    0.1871 C   0  0  0  0  0  0  0  0  0  0  0  0
   -2.6539    4.4348   -0.4402 H   0  0  0  0  0  0  0  0  0  0  0  0
   -3.3346    3.0757    1.0776 N   0  0  0  0  0  0  0  0  0  0  0  0
   -2.7130    1.9798    1.6819 C   0  0  0  0  0  0  0  0  0  0  0  0
   -3.1485    1.3310    2.4308 H   0  0  0  0  0  0  0  0  0  0  0  0
    0.6166   -1.4002    0.5098 C   0  0  0  0  0  0  0  0  0  0  0  0
    1.5433   -1.1590    1.2829 O   0  0  0  0  0  0  0  0  0  0  0  0
    0.5479   -2.5356   -0.1963 N   0  0  0  0  0  0  0  0  0  0  0  0
   -0.2148   -2.6357   -0.8500 H   0  0  0  0  0  0  0  0  0  0  0  0
    1.5286   -3.6153   -0.1203 C   0  0  0  0  0  0  0  0  0  0  0  0
    1.5795   -3.9967    0.9020 H   0  0  0  0  0  0  0  0  0  0  0  0
    1.2460   -4.4263   -0.7921 H   0  0  0  0  0  0  0  0  0  0  0  0
    2.5143   -3.2415   -0.4017 H   0  0  0  0  0  0  0  0  0  0  0  0
  5  6  2  0  0  0  0
  5  7  1  0  0  0  0
  2  3  1  0  0  0  0
  2  4  1  0  0  0  0
  2  5  1  0  0  0  0
  1  2  1  0  0  0  0
 22 23  2  0  0  0  0
 22 24  1  0  0  0  0
 20 21  1  0  0  0  0
 19 20  1  0  0  0  0
 17 18  1  0  0  0  0
 17 19  2  0  0  0  0
 15 16  1  0  0  0  0
 15 17  1  0  0  0  0
 14 15  1  0  0  0  0
 14 20  2  0  0  0  0
 11 12  1  0  0  0  0
 11 13  1  0  0  0  0
 11 14  1  0  0  0  0
  9 10  1  0  0  0  0
  9 11  1  0  0  0  0
  9 22  1  0  0  0  0
  7  8  1  0  0  0  0
  7  9  1  0  0  0  0
 26 27  1  0  0  0  0
 26 28  1  0  0  0  0
 26 29  1  0  0  0  0
 24 25  1  0  0  0  0
 24 26  1  0  0  0  0
M  END
$$$$
default_name
  -OEChem-01062215323D

 29 29  0     1  0  0  0  0  0999 V2000
   -3.6042   -3.5728    1.4576 H   0  0  0  0  0  0  0  0  0  0  0  0
   -3.5202   -2.6488    0.8866 C   0  0  0  0  0  0  0  0  0  0  0  0
   -4.2052   -1.9048    1.2896 H   0  0  0  0  0  0  0  0  0  0  0  0
   -3.7552   -2.8428   -0.1584 H   0  0  0  0  0  0  0  0  0  0  0  0
   -2.1052   -2.1358    0.9946 C   0  0  0  0  0  0  0  0  0  0  0  0
   -1.2852   -2.7288    1.6826 O   0  0  0  0  0  0  0  0  0  0  0  0
   -1.8202   -1.0288    0.3146 N   0  0  0  0  0  0  0  0  0  0  0  0
   -2.5542   -0.5788   -0.2104 H   0  0  0  0  0  0  0  0  0  0  0  0
   -0.5102   -0.3728    0.3086 C   0  0  1  0  0  0  0  0  0  0  0  0
   -0.3607    0.1004   -0.6630 H   0  0  0  0  0  0  0  0  0  0  0  0
   -0.4920    0.7283    1.3849 C   0  0  0  0  0  0  0  0  0  0  0  0
   -0.7233    0.2840    2.3546 H   0  0  0  0  0  0  0  0  0  0  0  0
    0.5117    1.1537    1.4416 H   0  0  0  0  0  0  0  0  0  0  0  0
   -1.4700    1.8442    1.1235 C   0  0  0  0  0  0  0  0  0  0  0  0
   -1.3332    2.8462    0.1868 N   0  0  0  0  0  0  0  0  0  0  0  0
   -0.5255    3.0102   -0.3953 H   0  0  0  0  0  0  0  0  0  0  0  0
   -2.4636    3.5725    0.1871 C   0  0  0  0  0  0  0  0  0  0  0  0
   -2.6539    4.4348   -0.4402 H   0  0  0  0  0  0  0  0  0  0  0  0
   -3.3346    3.0757    1.0776 N   0  0  0  0  0  0  0  0  0  0  0  0
   -2.7130    1.9798    1.6819 C   0  0  0  0  0  0  0  0  0  0  0  0
   -3.1485    1.3310    2.4308 H   0  0  0  0  0  0  0  0  0  0  0  0
    0.6166   -1.4002    0.5098 C   0  0  0  0  0  0  0  0  0  0  0  0
    1.3853   -1.2965    1.4653 O   0  0  0  0  0  0  0  0  0  0  0  0
    0.7261   -2.3794   -0.3967 N   0  0  0  0  0  0  0  0  0  0  0  0
    0.0914   -2.3648   -1.1815 H   0  0  0  0  0  0  0  0  0  0  0  0
    1.7330   -3.4365   -0.3520 C   0  0  0  0  0  0  0  0  0  0  0  0
    1.6290   -4.0067    0.5739 H   0  0  0  0  0  0  0  0  0  0  0  0
    1.6098   -4.1077   -1.2024 H   0  0  0  0  0  0  0  0  0  0  0  0
    2.7320   -2.9986   -0.3805 H   0  0  0  0  0  0  0  0  0  0  0  0
  5  6  2  0  0  0  0
  5  7  1  0  0  0  0
  2  3  1  0  0  0  0
  2  4  1  0  0  0  0
  2  5  1  0  0  0  0
  1  2  1  0  0  0  0
 22 23  2  0  0  0  0
 22 24  1  0  0  0  0
 20 21  1  0  0  0  0
 19 20  1  0  0  0  0
 17 18  1  0  0  0  0
 17 19  2  0  0  0  0
 15 16  1  0  0  0  0
 15 17  1  0  0  0  0
 14 15  1  0  0  0  0
 14 20  2  0  0  0  0
 11 12  1  0  0  0  0
 11 13  1  0  0  0  0
 11 14  1  0  0  0  0
  9 10  1  0  0  0  0
  9 11  1  0  0  0  0
  9 22  1  0  0  0  0
  7  8  1  0  0  0  0
  7  9  1  0  0  0  0
 26 27  1  0  0  0  0
 26 28  1  0  0  0  0
 26 29  1  0  0  0  0
 24 25  1  0  0  0  0
 24 26  1  0  0  0  0
M  END
$$$$
default_name
  -OEChem-01062215323D

 29 29  0     1  0  0  0  0  0999 V2000
   -3.6042   -3.5728    1.4576 H   0  0  0  0  0  0  0  0  0  0  0  0
   -3.5202   -2.6488    0.8866 C   0  0  0  0  0  0  0  0  0  0  0  0
   -4.2052   -1.9048    1.2896 H   0  0  0  0  0  0  0  0  0  0  0  0
   -3.7552   -2.8428   -0.1584 H   0  0  0  0  0  0  0  0  0  0  0  0
   -2.1052   -2.1358    0.9946 C   0  0  0  0  0  0  0  0  0  0  0  0
   -1.2852   -2.7288    1.6826 O   0  0  0  0  0  0  0  0  0  0  0  0
   -1.8202   -1.0288    0.3146 N   0  0  0  0  0  0  0  0  0  0  0  0
   -2.5542   -0.5788   -0.2104 H   0  0  0  0  0  0  0  0  0  0  0  0
   -0.5102   -0.3728    0.3086 C   0  0  1  0  0  0  0  0  0  0  0  0
   -0.3607    0.1004   -0.6630 H   0  0  0  0  0  0  0  0  0  0  0  0
   -0.4920    0.7283    1.3849 C   0  0  0  0  0  0  0  0  0  0  0  0
   -0.7233    0.2840    2.3546 H   0  0  0  0  0  0  0  0  0  0  0  0
    0.5117    1.1537    1.4416 H   0  0  0  0  0  0  0  0  0  0  0  0
   -1.4700    1.8442    1.1235 C   0  0  0  0  0  0  0  0  0  0  0  0
   -1.3332    2.8462    0.1868 N   0  0  0  0  0  0  0  0  0  0  0  0
   -0.5255    3.0102   -0.3953 H   0  0  0  0  0  0  0  0  0  0  0  0
   -2.4636    3.5725    0.1871 C   0  0  0  0  0  0  0  0  0  0  0  0
   -2.6539    4.4348   -0.4402 H   0  0  0  0  0  0  0  0  0  0  0  0
   -3.3346    3.0757    1.0776 N   0  0  0  0  0  0  0  0  0  0  0  0
   -2.7130    1.9798    1.6819 C   0  0  0  0  0  0  0  0  0  0  0  0
   -3.1485    1.3310    2.4308 H   0  0  0  0  0  0  0  0  0  0  0  0
    0.6166   -1.4002    0.5098 C   0  0  0  0  0  0  0  0  0  0  0  0
    1.2059   -1.4693    1.5881 O   0  0  0  0  0  0  0  0  0  0  0  0
    0.9276   -2.1845   -0.5298 N   0  0  0  0  0  0  0  0  0  0  0  0
    0.4353   -2.0299   -1.3973 H   0  0  0  0  0  0  0  0  0  0  0  0
    1.9644   -3.2129   -0.5065 C   0  0  0  0  0  0  0  0  0  0  0  0
    1.7339   -3.9525    0.2636 H   0  0  0  0  0  0  0  0  0  0  0  0
    2.0214   -3.7098   -1.4754 H   0  0  0  0  0  0  0  0  0  0  0  0
    2.9304   -2.7607   -0.2764 H   0  0  0  0  0  0  0  0  0  0  0  0
  5  6  2  0  0  0  0
  5  7  1  0  0  0  0
  2  3  1  0  0  0  0
  2  4  1  0  0  0  0
  2  5  1  0  0  0  0
  1  2  1  0  0  0  0
 22 23  2  0  0  0  0
 22 24  1  0  0  0  0
 20 21  1  0  0  0  0
 19 20  1  0  0  0  0
 17 18  1  0  0  0  0
 17 19  2  0  0  0  0
 15 16  1  0  0  0  0
 15 17  1  0  0  0  0
 14 15  1  0  0  0  0
 14 20  2  0  0  0  0
 11 12  1  0  0  0  0
 11 13  1  0  0  0  0
 11 14  1  0  0  0  0
  9 10  1  0  0  0  0
  9 11  1  0  0  0  0
  9 22  1  0  0  0  0
  7  8  1  0  0  0  0
  7  9  1  0  0  0  0
 26 27  1  0  0  0  0
 26 28  1  0  0  0  0
 26 29  1  0  0  0  0
 24 25  1  0  0  0  0
 24 26  1  0  0  0  0
M  END
$$$$
default_name
  -OEChem-01062215323D

 29 29  0     1  0  0  0  0  0999 V2000
   -3.6042   -3.5728    1.4576 H   0  0  0  0  0  0  0  0  0  0  0  0
   -3.5202   -2.6488    0.8866 C   0  0  0  0  0  0  0  0  0  0  0  0
   -4.2052   -1.9048    1.2896 H   0  0  0  0  0  0  0  0  0  0  0  0
   -3.7552   -2.8428   -0.1584 H   0  0  0  0  0  0  0  0  0  0  0  0
   -2.1052   -2.1358    0.9946 C   0  0  0  0  0  0  0  0  0  0  0  0
   -1.2852   -2.7288    1.6826 O   0  0  0  0  0  0  0  0  0  0  0  0
   -1.8202   -1.0288    0.3146 N   0  0  0  0  0  0  0  0  0  0  0  0
   -2.5542   -0.5788   -0.2104 H   0  0  0  0  0  0  0  0  0  0  0  0
   -0.5102   -0.3728    0.3086 C   0  0  1  0  0  0  0  0  0  0  0  0
   -0.3607    0.1004   -0.6630 H   0  0  0  0  0  0  0  0  0  0  0  0
   -0.4920    0.7283    1.3849 C   0  0  0  0  0  0  0  0  0  0  0  0
   -0.7233    0.2840    2.3546 H   0  0  0  0  0  0  0  0  0  0  0  0
    0.5117    1.1537    1.4416 H   0  0  0  0  0  0  0  0  0  0  0  0
   -1.4700    1.8442    1.1235 C   0  0  0  0  0  0  0  0  0  0  0  0
   -1.3332    2.8462    0.1868 N   0  0  0  0  0  0  0  0  0  0  0  0
   -0.5255    3.0102   -0.3953 H   0  0  0  0  0  0  0  0  0  0  0  0
   -2.4636    3.5725    0.1871 C   0  0  0  0  0  0  0  0  0  0  0  0
   -2.6539    4.4348   -0.4402 H   0  0  0  0  0  0  0  0  0  0  0  0
   -3.3346    3.0757    1.0776 N   0  0  0  0  0  0  0  0  0  0  0  0
   -2.7130    1.9798    1.6819 C   0  0  0  0  0  0  0  0  0  0  0  0
   -3.1485    1.3310    2.4308 H   0  0  0  0  0  0  0  0  0  0  0  0
    0.6166   -1.4002    0.5098 C   0  0  0  0  0  0  0  0  0  0  0  0
    1.0172   -1.6655    1.6429 O   0  0  0  0  0  0  0  0  0  0  0  0
    1.1387   -1.9641   -0.5865 N   0  0  0  0  0  0  0  0  0  0  0  0
    0.7935   -1.6538   -1.4829 H   0  0  0  0  0  0  0  0  0  0  0  0
    2.2071   -2.9598   -0.5733 C   0  0  0  0  0  0  0  0  0  0  0  0
    1.8870   -3.8377   -0.0076 H   0  0  0  0  0  0  0  0  0  0  0  0
    2.4526   -3.2598   -1.5925 H   0  0  0  0  0  0  0  0  0  0  0  0
    3.0959   -2.5438   -0.0963 H   0  0  0  0  0  0  0  0  0  0  0  0
  5  6  2  0  0  0  0
  5  7  1  0  0  0  0
  2  3  1  0  0  0  0
  2  4  1  0  0  0  0
  2  5  1  0  0  0  0
  1  2  1  0  0  0  0
 22 23  2  0  0  0  0
 22 24  1  0  0  0  0
 20 21  1  0  0  0  0
 19 20  1  0  0  0  0
 17 18  1  0  0  0  0
 17 19  2  0  0  0  0
 15 16  1  0  0  0  0
 15 17  1  0  0  0  0
 14 15  1  0  0  0  0
 14 20  2  0  0  0  0
 11 12  1  0  0  0  0
 11 13  1  0  0  0  0
 11 14  1  0  0  0  0
  9 10  1  0  0  0  0
  9 11  1  0  0  0  0
  9 22  1  0  0  0  0
  7  8  1  0  0  0  0
  7  9  1  0  0  0  0
 26 27  1  0  0  0  0
 26 28  1  0  0  0  0
 26 29  1  0  0  0  0
 24 25  1  0  0  0  0
 24 26  1  0  0  0  0
M  END
$$$$
default_name
  -OEChem-01062215323D

 29 29  0     1  0  0  0  0  0999 V2000
   -3.6042   -3.5728    1.4576 H   0  0  0  0  0  0  0  0  0  0  0  0
   -3.5202   -2.6488    0.8866 C   0  0  0  0  0  0  0  0  0  0  0  0
   -4.2052   -1.9048    1.2896 H   0  0  0  0  0  0  0  0  0  0  0  0
   -3.7552   -2.8428   -0.1584 H   0  0  0  0  0  0  0  0  0  0  0  0
   -2.1052   -2.1358    0.9946 C   0  0  0  0  0  0  0  0  0  0  0  0
   -1.2852   -2.7288    1.6826 O   0  0  0  0  0  0  0  0  0  0  0  0
   -1.8202   -1.0288    0.3146 N   0  0  0  0  0  0  0  0  0  0  0  0
   -2.5542   -0.5788   -0.2104 H   0  0  0  0  0  0  0  0  0  0  0  0
   -0.5102   -0.3728    0.3086 C   0  0  1  0  0  0  0  0  0  0  0  0
   -0.3607    0.1004   -0.6630 H   0  0  0  0  0  0  0  0  0  0  0  0
   -0.4920    0.7283    1.3849 C   0  0  0  0  0  0  0  0  0  0  0  0
   -0.7233    0.2840    2.3546 H   0  0  0  0  0  0  0  0  0  0  0  0
    0.5117    1.1537    1.4416 H   0  0  0  0  0  0  0  0  0  0  0  0
   -1.4700    1.8442    1.1235 C   0  0  0  0  0  0  0  0  0  0  0  0
   -1.3332    2.8462    0.1868 N   0  0  0  0  0  0  0  0  0  0  0  0
   -0.5255    3.0102   -0.3953 H   0  0  0  0  0  0  0  0  0  0  0  0
   -2.4636    3.5725    0.1871 C   0  0  0  0  0  0  0  0  0  0  0  0
   -2.6539    4.4348   -0.4402 H   0  0  0  0  0  0  0  0  0  0  0  0
   -3.3346    3.0757    1.0776 N   0  0  0  0  0  0  0  0  0  0  0  0
   -2.7130    1.9798    1.6819 C   0  0  0  0  0  0  0  0  0  0  0  0
   -3.1485    1.3310    2.4308 H   0  0  0  0  0  0  0  0  0  0  0  0
    0.6166   -1.4002    0.5098 C   0  0  0  0  0  0  0  0  0  0  0  0
    0.8320   -1.8719    1.6260 O   0  0  0  0  0  0  0  0  0  0  0  0
    1.3449   -1.7334   -0.5631 N   0  0  0  0  0  0  0  0  0  0  0  0
    1.1415   -1.2622   -1.4323 H   0  0  0  0  0  0  0  0  0  0  0  0
    2.4445   -2.6945   -0.5479 C   0  0  0  0  0  0  0  0  0  0  0  0
    2.0778   -3.6702   -0.2214 H   0  0  0  0  0  0  0  0  0  0  0  0
    2.8742   -2.7883   -1.5457 H   0  0  0  0  0  0  0  0  0  0  0  0
    3.2174   -2.3629    0.1473 H   0  0  0  0  0  0  0  0  0  0  0  0
  5  6  2  0  0  0  0
  5  7  1  0  0  0  0
  2  3  1  0  0  0  0
  2  4  1  0  0  0  0
  2  5  1  0  0  0  0
  1  2  1  0  0  0  0
 22 23  2  0  0  0  0
 22 24  1  0  0  0  0
 20 21  1  0  0  0  0
 19 20  1  0  0  0  0
 17 18  1  0  0  0  0
 17 19  2  0  0  0  0
 15 16  1  0  0  0  0
 15 17  1  0  0  0  0
 14 15  1  0  0  0  0
 14 20  2  0  0  0  0
 11 12  1  0  0  0  0
 11 13  1  0  0  0  0
 11 14  1  0  0  0  0
  9 10  1  0  0  0  0
  9 11  1  0  0  0  0
  9 22  1  0  0  0  0
  7  8  1  0  0  0  0
  7  9  1  0  0  0  0
 26 27  1  0  0  0  0
 26 28  1  0  0  0  0
 26 29  1  0  0  0  0
 24 25  1  0  0  0  0
 24 26  1  0  0  0  0
M  END
$$$$
default_name
  -OEChem-01062215323D

 29 29  0     1  0  0  0  0  0999 V2000
   -3.6042   -3.5728    1.4576 H   0  0  0  0  0  0  0  0  0  0  0  0
   -3.5202   -2.6488    0.8866 C   0  0  0  0  0  0  0  0  0  0  0  0
   -4.2052   -1.9048    1.2896 H   0  0  0  0  0  0  0  0  0  0  0  0
   -3.7552   -2.8428   -0.1584 H   0  0  0  0  0  0  0  0  0  0  0  0
   -2.1052   -2.1358    0.9946 C   0  0  0  0  0  0  0  0  0  0  0  0
   -1.2852   -2.7288    1.6826 O   0  0  0  0  0  0  0  0  0  0  0  0
   -1.8202   -1.0288    0.3146 N   0  0  0  0  0  0  0  0  0  0  0  0
   -2.5542   -0.5788   -0.2104 H   0  0  0  0  0  0  0  0  0  0  0  0
   -0.5102   -0.3728    0.3086 C   0  0  1  0  0  0  0  0  0  0  0  0
   -0.3607    0.1004   -0.6630 H   0  0  0  0  0  0  0  0  0  0  0  0
   -0.4920    0.7283    1.3849 C   0  0  0  0  0  0  0  0  0  0  0  0
   -0.7233    0.2840    2.3546 H   0  0  0  0  0  0  0  0  0  0  0  0
    0.5117    1.1537    1.4416 H   0  0  0  0  0  0  0  0  0  0  0  0
   -1.4700    1.8442    1.1235 C   0  0  0  0  0  0  0  0  0  0  0  0
   -1.3332    2.8462    0.1868 N   0  0  0  0  0  0  0  0  0  0  0  0
   -0.5255    3.0102   -0.3953 H   0  0  0  0  0  0  0  0  0  0  0  0
   -2.4636    3.5725    0.1871 C   0  0  0  0  0  0  0  0  0  0  0  0
   -2.6539    4.4348   -0.4402 H   0  0  0  0  0  0  0  0  0  0  0  0
   -3.3346    3.0757    1.0776 N   0  0  0  0  0  0  0  0  0  0  0  0
   -2.7130    1.9798    1.6819 C   0  0  0  0  0  0  0  0  0  0  0  0
   -3.1485    1.3310    2.4308 H   0  0  0  0  0  0  0  0  0  0  0  0
    0.6166   -1.4002    0.5098 C   0  0  0  0  0  0  0  0  0  0  0  0
    0.6631   -2.0742    1.5385 O   0  0  0  0  0  0  0  0  0  0  0  0
    1.5322   -1.5080   -0.4610 N   0  0  0  0  0  0  0  0  0  0  0  0
    1.4557   -0.8818   -1.2491 H   0  0  0  0  0  0  0  0  0  0  0  0
    2.6605   -2.4350   -0.4320 C   0  0  0  0  0  0  0  0  0  0  0  0
    2.2935   -3.4615   -0.3631 H   0  0  0  0  0  0  0  0  0  0  0  0
    3.2573   -2.3275   -1.3382 H   0  0  0  0  0  0  0  0  0  0  0  0
    3.2865   -2.2302    0.4379 H   0  0  0  0  0  0  0  0  0  0  0  0
  5  6  2  0  0  0  0
  5  7  1  0  0  0  0
  2  3  1  0  0  0  0
  2  4  1  0  0  0  0
  2  5  1  0  0  0  0
  1  2  1  0  0  0  0
 22 23  2  0  0  0  0
 22 24  1  0  0  0  0
 20 21  1  0  0  0  0
 19 20  1  0  0  0  0
 17 18  1  0  0  0  0
 17 19  2  0  0  0  0
 15 16  1  0  0  0  0
 15 17  1  0  0  0  0
 14 15  1  0  0  0  0
 14 20  2  0  0  0  0
 11 12  1  0  0  0  0
 11 13  1  0  0  0  0
 11 14  1  0  0  0  0
  9 10  1  0  0  0  0
  9 11  1  0  0  0  0
  9 22  1  0  0  0  0
  7  8  1  0  0  0  0
  7  9  1  0  0  0  0
 26 27  1  0  0  0  0
 26 28  1  0  0  0  0
 26 29  1  0  0  0  0
 24 25  1  0  0  0  0
 24 26  1  0  0  0  0
M  END
$$$$
default_name
  -OEChem-01062215323D

 29 29  0     1  0  0  0  0  0999 V2000
   -3.6042   -3.5728    1.4576 H   0  0  0  0  0  0  0  0  0  0  0  0
   -3.5202   -2.6488    0.8866 C   0  0  0  0  0  0  0  0  0  0  0  0
   -4.2052   -1.9048    1.2896 H   0  0  0  0  0  0  0  0  0  0  0  0
   -3.7552   -2.8428   -0.1584 H   0  0  0  0  0  0  0  0  0  0  0  0
   -2.1052   -2.1358    0.9946 C   0  0  0  0  0  0  0  0  0  0  0  0
   -1.2852   -2.7288    1.6826 O   0  0  0  0  0  0  0  0  0  0  0  0
   -1.8202   -1.0288    0.3146 N   0  0  0  0  0  0  0  0  0  0  0  0
   -2.5542   -0.5788   -0.2104 H   0  0  0  0  0  0  0  0  0  0  0  0
   -0.5102   -0.3728    0.3086 C   0  0  1  0  0  0  0  0  0  0  0  0
   -0.3607    0.1004   -0.6630 H   0  0  0  0  0  0  0  0  0  0  0  0
   -0.4920    0.7283    1.3849 C   0  0  0  0  0  0  0  0  0  0  0  0
   -0.7233    0.2840    2.3546 H   0  0  0  0  0  0  0  0  0  0  0  0
    0.5117    1.1537    1.4416 H   0  0  0  0  0  0  0  0  0  0  0  0
   -1.4700    1.8442    1.1235 C   0  0  0  0  0  0  0  0  0  0  0  0
   -1.3332    2.8462    0.1868 N   0  0  0  0  0  0  0  0  0  0  0  0
   -0.5255    3.0102   -0.3953 H   0  0  0  0  0  0  0  0  0  0  0  0
   -2.4636    3.5725    0.1871 C   0  0  0  0  0  0  0  0  0  0  0  0
   -2.6539    4.4348   -0.4402 H   0  0  0  0  0  0  0  0  0  0  0  0
   -3.3346    3.0757    1.0776 N   0  0  0  0  0  0  0  0  0  0  0  0
   -2.7130    1.9798    1.6819 C   0  0  0  0  0  0  0  0  0  0  0  0
   -3.1485    1.3310    2.4308 H   0  0  0  0  0  0  0  0  0  0  0  0
    0.6166   -1.4002    0.5098 C   0  0  0  0  0  0  0  0  0  0  0  0
    0.5220   -2.2588    1.3865 O   0  0  0  0  0  0  0  0  0  0  0  0
    1.6879   -1.3032   -0.2873 N   0  0  0  0  0  0  0  0  0  0  0  0
    1.7146   -0.5384   -0.9456 H   0  0  0  0  0  0  0  0  0  0  0  0
    2.8403   -2.1989   -0.2335 C   0  0  0  0  0  0  0  0  0  0  0  0
    2.5193   -3.2257   -0.4232 H   0  0  0  0  0  0  0  0  0  0  0  0
    3.5760   -1.9087   -0.9842 H   0  0  0  0  0  0  0  0  0  0  0  0
    3.2985   -2.1549    0.7557 H   0  0  0  0  0  0  0  0  0  0  0  0
  5  6  2  0  0  0  0
  5  7  1  0  0  0  0
  2  3  1  0  0  0  0
  2  4  1  0  0  0  0
  2  5  1  0  0  0  0
  1  2  1  0  0  0  0
 22 23  2  0  0  0  0
 22 24  1  0  0  0  0
 20 21  1  0  0  0  0
 19 20  1  0  0  0  0
 17 18  1  0  0  0  0
 17 19  2  0  0  0  0
 15 16  1  0  0  0  0
 15 17  1  0  0  0  0
 14 15  1  0  0  0  0
 14 20  2  0  0  0  0
 11 12  1  0  0  0  0
 11 13  1  0  0  0  0
 11 14  1  0  0  0  0
  9 10  1  0  0  0  0
  9 11  1  0  0  0  0
  9 22  1  0  0  0  0
  7  8  1  0  0  0  0
  7  9  1  0  0  0  0
 26 27  1  0  0  0  0
 26 28  1  0  0  0  0
 26 29  1  0  0  0  0
 24 25  1  0  0  0  0
 24 26  1  0  0  0  0
M  END
$$$$
default_name
  -OEChem-01062215323D

 29 29  0     1  0  0  0  0  0999 V2000
   -3.6042   -3.5728    1.4576 H   0  0  0  0  0  0  0  0  0  0  0  0
   -3.5202   -2.6488    0.8866 C   0  0  0  0  0  0  0  0  0  0  0  0
   -4.2052   -1.9048    1.2896 H   0  0  0  0  0  0  0  0  0  0  0  0
   -3.7552   -2.8428   -0.1584 H   0  0  0  0  0  0  0  0  0  0  0  0
   -2.1052   -2.1358    0.9946 C   0  0  0  0  0  0  0  0  0  0  0  0
   -1.2852   -2.7288    1.6826 O   0  0  0  0  0  0  0  0  0  0  0  0
   -1.8202   -1.0288    0.3146 N   0  0  0  0  0  0  0  0  0  0  0  0
   -2.5542   -0.5788   -0.2104 H   0  0  0  0  0  0  0  0  0  0  0  0
   -0.5102   -0.3728    0.3086 C   0  0  1  0  0  0  0  0  0  0  0  0
   -0.3607    0.1004   -0.6630 H   0  0  0  0  0  0  0  0  0  0  0  0
   -0.4920    0.7283    1.3849 C   0  0  0  0  0  0  0  0  0  0  0  0
   -0.7233    0.2840    2.3546 H   0  0  0  0  0  0  0  0  0  0  0  0
    0.5117    1.1537    1.4416 H   0  0  0  0  0  0  0  0  0  0  0  0
   -1.4700    1.8442    1.1235 C   0  0  0  0  0  0  0  0  0  0  0  0
   -1.3332    2.8462    0.1868 N   0  0  0  0  0  0  0  0  0  0  0  0
   -0.5255    3.0102   -0.3953 H   0  0  0  0  0  0  0  0  0  0  0  0
   -2.4636    3.5725    0.1871 C   0  0  0  0  0  0  0  0  0  0  0  0
   -2.6539    4.4348   -0.4402 H   0  0  0  0  0  0  0  0  0  0  0  0
   -3.3346    3.0757    1.0776 N   0  0  0  0  0  0  0  0  0  0  0  0
   -2.7130    1.9798    1.6819 C   0  0  0  0  0  0  0  0  0  0  0  0
   -3.1485    1.3310    2.4308 H   0  0  0  0  0  0  0  0  0  0  0  0
    0.6166   -1.4002    0.5098 C   0  0  0  0  0  0  0  0  0  0  0  0
    0.4181   -2.4131    1.1802 O   0  0  0  0  0  0  0  0  0  0  0  0
    1.8013   -1.1331   -0.0538 N   0  0  0  0  0  0  0  0  0  0  0  0
    1.9006   -0.2555   -0.5426 H   0  0  0  0  0  0  0  0  0  0  0  0
    2.9716   -2.0025    0.0340 C   0  0  0  0  0  0  0  0  0  0  0  0
    2.7397   -2.9788   -0.3975 H   0  0  0  0  0  0  0  0  0  0  0  0
    3.8084   -1.5605   -0.5077 H   0  0  0  0  0  0  0  0  0  0  0  0
    3.2525   -2.1419    1.0791 H   0  0  0  0  0  0  0  0  0  0  0  0
  5  6  2  0  0  0  0
  5  7  1  0  0  0  0
  2  3  1  0  0  0  0
  2  4  1  0  0  0  0
  2  5  1  0  0  0  0
  1  2  1  0  0  0  0
 22 23  2  0  0  0  0
 22 24  1  0  0  0  0
 20 21  1  0  0  0  0
 19 20  1  0  0  0  0
 17 18  1  0  0  0  0
 17 19  2  0  0  0  0
 15 16  1  0  0  0  0
 15 17  1  0  0  0  0
 14 15  1  0  0  0  0
 14 20  2  0  0  0  0
 11 12  1  0  0  0  0
 11 13  1  0  0  0  0
 11 14  1  0  0  0  0
  9 10  1  0  0  0  0
  9 11  1  0  0  0  0
  9 22  1  0  0  0  0
  7  8  1  0  0  0  0
  7  9  1  0  0  0  0
 26 27  1  0  0  0  0
 26 28  1  0  0  0  0
 26 29  1  0  0  0  0
 24 25  1  0  0  0  0
 24 26  1  0  0  0  0
M  END
$$$$
default_name
  -OEChem-01062215323D

 29 29  0     1  0  0  0  0  0999 V2000
   -3.6042   -3.5728    1.4576 H   0  0  0  0  0  0  0  0  0  0  0  0
   -3.5202   -2.6488    0.8866 C   0  0  0  0  0  0  0  0  0  0  0  0
   -4.2052   -1.9048    1.2896 H   0  0  0  0  0  0  0  0  0  0  0  0
   -3.7552   -2.8428   -0.1584 H   0  0  0  0  0  0  0  0  0  0  0  0
   -2.1052   -2.1358    0.9946 C   0  0  0  0  0  0  0  0  0  0  0  0
   -1.2852   -2.7288    1.6826 O   0  0  0  0  0  0  0  0  0  0  0  0
   -1.8202   -1.0288    0.3146 N   0  0  0  0  0  0  0  0  0  0  0  0
   -2.5542   -0.5788   -0.2104 H   0  0  0  0  0  0  0  0  0  0  0  0
   -0.5102   -0.3728    0.3086 C   0  0  1  0  0  0  0  0  0  0  0  0
   -0.3607    0.1004   -0.6630 H   0  0  0  0  0  0  0  0  0  0  0  0
   -0.4920    0.7283    1.3849 C   0  0  0  0  0  0  0  0  0  0  0  0
   -0.7233    0.2840    2.3546 H   0  0  0  0  0  0  0  0  0  0  0  0
    0.5117    1.1537    1.4416 H   0  0  0  0  0  0  0  0  0  0  0  0
   -1.4700    1.8442    1.1235 C   0  0  0  0  0  0  0  0  0  0  0  0
   -1.3332    2.8462    0.1868 N   0  0  0  0  0  0  0  0  0  0  0  0
   -0.5255    3.0102   -0.3953 H   0  0  0  0  0  0  0  0  0  0  0  0
   -2.4636    3.5725    0.1871 C   0  0  0  0  0  0  0  0  0  0  0  0
   -2.6539    4.4348   -0.4402 H   0  0  0  0  0  0  0  0  0  0  0  0
   -3.3346    3.0757    1.0776 N   0  0  0  0  0  0  0  0  0  0  0  0
   -2.7130    1.9798    1.6819 C   0  0  0  0  0  0  0  0  0  0  0  0
   -3.1485    1.3310    2.4308 H   0  0  0  0  0  0  0  0  0  0  0  0
    0.6166   -1.4002    0.5098 C   0  0  0  0  0  0  0  0  0  0  0  0
    0.3587   -2.5265    0.9338 O   0  0  0  0  0  0  0  0  0  0  0  0
    1.8647   -1.0093    0.2236 N   0  0  0  0  0  0  0  0  0  0  0  0
    2.0010   -0.0524   -0.0676 H   0  0  0  0  0  0  0  0  0  0  0  0
    3.0456   -1.8590    0.3524 C   0  0  0  0  0  0  0  0  0  0  0  0
    2.9399   -2.7379   -0.2877 H   0  0  0  0  0  0  0  0  0  0  0  0
    3.9387   -1.3067    0.0587 H   0  0  0  0  0  0  0  0  0  0  0  0
    3.1518   -2.1922    1.3859 H   0  0  0  0  0  0  0  0  0  0  0  0
  5  6  2  0  0  0  0
  5  7  1  0  0  0  0
  2  3  1  0  0  0  0
  2  4  1  0  0  0  0
  2  5  1  0  0  0  0
  1  2  1  0  0  0  0
 22 23  2  0  0  0  0
 22 24  1  0  0  0  0
 20 21  1  0  0  0  0
 19 20  1  0  0  0  0
 17 18  1  0  0  0  0
 17 19  2  0  0  0  0
 15 16  1  0  0  0  0
 15 17  1  0  0  0  0
 14 15  1  0  0  0  0
 14 20  2  0  0  0  0
 11 12  1  0  0  0  0
 11 13  1  0  0  0  0
 11 14  1  0  0  0  0
  9 10  1  0  0  0  0
  9 11  1  0  0  0  0
  9 22  1  0  0  0  0
  7  8  1  0  0  0  0
  7  9  1  0  0  0  0
 26 27  1  0  0  0  0
 26 28  1  0  0  0  0
 26 29  1  0  0  0  0
 24 25  1  0  0  0  0
 24 26  1  0  0  0  0
M  END
$$$$
default_name
  -OEChem-01062215323D

 29 29  0     1  0  0  0  0  0999 V2000
   -3.6042   -3.5728    1.4576 H   0  0  0  0  0  0  0  0  0  0  0  0
   -3.5202   -2.6488    0.8866 C   0  0  0  0  0  0  0  0  0  0  0  0
   -4.2052   -1.9048    1.2896 H   0  0  0  0  0  0  0  0  0  0  0  0
   -3.7552   -2.8428   -0.1584 H   0  0  0  0  0  0  0  0  0  0  0  0
   -2.1052   -2.1358    0.9946 C   0  0  0  0  0  0  0  0  0  0  0  0
   -1.2852   -2.7288    1.6826 O   0  0  0  0  0  0  0  0  0  0  0  0
   -1.8202   -1.0288    0.3146 N   0  0  0  0  0  0  0  0  0  0  0  0
   -2.5542   -0.5788   -0.2104 H   0  0  0  0  0  0  0  0  0  0  0  0
   -0.5102   -0.3728    0.3086 C   0  0  1  0  0  0  0  0  0  0  0  0
   -0.4673    0.3143   -0.5378 H   0  0  0  0  0  0  0  0  0  0  0  0
   -0.3513    0.4494    1.6009 C   0  0  0  0  0  0  0  0  0  0  0  0
   -0.4753   -0.2102    2.4615 H   0  0  0  0  0  0  0  0  0  0  0  0
    0.6583    0.8627    1.6376 H   0  0  0  0  0  0  0  0  0  0  0  0
   -1.3365    1.5831    1.7200 C   0  0  0  0  0  0  0  0  0  0  0  0
   -1.2944    2.7763    1.0312 N   0  0  0  0  0  0  0  0  0  0  0  0
   -0.5571    3.0808    0.4131 H   0  0  0  0  0  0  0  0  0  0  0  0
   -2.4063    3.4686    1.3307 C   0  0  0  0  0  0  0  0  0  0  0  0
   -2.6552    4.4502    0.9463 H   0  0  0  0  0  0  0  0  0  0  0  0
   -3.1756    2.7682    2.1769 N   0  0  0  0  0  0  0  0  0  0  0  0
   -2.5044    1.5701    2.4350 C   0  0  0  0  0  0  0  0  0  0  0  0
   -2.8598    0.7602    3.0588 H   0  0  0  0  0  0  0  0  0  0  0  0
    0.6171   -1.4046    0.1345 C   0  0  0  0  0  0  0  0  0  0  0  0
    0.3504   -2.6024    0.0390 O   0  0  0  0  0  0  0  0  0  0  0  0
    1.8743   -0.9450    0.1108 N   0  0  0  0  0  0  0  0  0  0  0  0
    2.0141    0.0450    0.2497 H   0  0  0  0  0  0  0  0  0  0  0  0
    3.0574   -1.7857   -0.0525 C   0  0  0  0  0  0  0  0  0  0  0  0
    3.0023   -2.3202   -1.0035 H   0  0  0  0  0  0  0  0  0  0  0  0
    3.9584   -1.1719   -0.0376 H   0  0  0  0  0  0  0  0  0  0  0  0
    3.1068   -2.5175    0.7554 H   0  0  0  0  0  0  0  0  0  0  0  0
  5  6  2  0  0  0  0
  5  7  1  0  0  0  0
  2  3  1  0  0  0  0
  2  4  1  0  0  0  0
  2  5  1  0  0  0  0
  1  2  1  0  0  0  0
 22 23  2  0  0  0  0
 22 24  1  0  0  0  0
 20 21  1  0  0  0  0
 19 20  1  0  0  0  0
 17 18  1  0  0  0  0
 17 19  2  0  0  0  0
 15 16  1  0  0  0  0
 15 17  1  0  0  0  0
 14 15  1  0  0  0  0
 14 20  2  0  0  0  0
 11 12  1  0  0  0  0
 11 13  1  0  0  0  0
 11 14  1  0  0  0  0
  9 10  1  0  0  0  0
  9 11  1  0  0  0  0
  9 22  1  0  0  0  0
  7  8  1  0  0  0  0
  7  9  1  0  0  0  0
 26 27  1  0  0  0  0
 26 28  1  0  0  0  0
 26 29  1  0  0  0  0
 24 25  1  0  0  0  0
 24 26  1  0  0  0  0
M  END
$$$$
default_name
  -OEChem-01062215323D

 29 29  0     1  0  0  0  0  0999 V2000
   -3.6042   -3.5728    1.4576 H   0  0  0  0  0  0  0  0  0  0  0  0
   -3.5202   -2.6488    0.8866 C   0  0  0  0  0  0  0  0  0  0  0  0
   -4.2052   -1.9048    1.2896 H   0  0  0  0  0  0  0  0  0  0  0  0
   -3.7552   -2.8428   -0.1584 H   0  0  0  0  0  0  0  0  0  0  0  0
   -2.1052   -2.1358    0.9946 C   0  0  0  0  0  0  0  0  0  0  0  0
   -1.2852   -2.7288    1.6826 O   0  0  0  0  0  0  0  0  0  0  0  0
   -1.8202   -1.0288    0.3146 N   0  0  0  0  0  0  0  0  0  0  0  0
   -2.5542   -0.5788   -0.2104 H   0  0  0  0  0  0  0  0  0  0  0  0
   -0.5102   -0.3728    0.3086 C   0  0  1  0  0  0  0  0  0  0  0  0
   -0.4673    0.3143   -0.5378 H   0  0  0  0  0  0  0  0  0  0  0  0
   -0.3513    0.4494    1.6009 C   0  0  0  0  0  0  0  0  0  0  0  0
   -0.4753   -0.2102    2.4615 H   0  0  0  0  0  0  0  0  0  0  0  0
    0.6583    0.8627    1.6376 H   0  0  0  0  0  0  0  0  0  0  0  0
   -1.3365    1.5831    1.7200 C   0  0  0  0  0  0  0  0  0  0  0  0
   -1.2944    2.7763    1.0312 N   0  0  0  0  0  0  0  0  0  0  0  0
   -0.5571    3.0808    0.4131 H   0  0  0  0  0  0  0  0  0  0  0  0
   -2.4063    3.4686    1.3307 C   0  0  0  0  0  0  0  0  0  0  0  0
   -2.6552    4.4502    0.9463 H   0  0  0  0  0  0  0  0  0  0  0  0
   -3.1756    2.7682    2.1769 N   0  0  0  0  0  0  0  0  0  0  0  0
   -2.5044    1.5701    2.4350 C   0  0  0  0  0  0  0  0  0  0  0  0
   -2.8598    0.7602    3.0588 H   0  0  0  0  0  0  0  0  0  0  0  0
    0.6171   -1.4046    0.1345 C   0  0  0  0  0  0  0  0  0  0  0  0
    0.3565   -2.5498   -0.2336 O   0  0  0  0  0  0  0  0  0  0  0  0
    1.8644   -1.0070    0.4147 N   0  0  0  0  0  0  0  0  0  0  0  0
    1.9899   -0.0680    0.7632 H   0  0  0  0  0  0  0  0  0  0  0  0
    3.0471   -1.8560    0.2974 C   0  0  0  0  0  0  0  0  0  0  0  0
    3.1540   -2.2000   -0.7338 H   0  0  0  0  0  0  0  0  0  0  0  0
    3.9390   -1.2979    0.5836 H   0  0  0  0  0  0  0  0  0  0  0  0
    2.9440   -2.7274    0.9458 H   0  0  0  0  0  0  0  0  0  0  0  0
  5  6  2  0  0  0  0
  5  7  1  0  0  0  0
  2  3  1  0  0  0  0
  2  4  1  0  0  0  0
  2  5  1  0  0  0  0
  1  2  1  0  0  0  0
 22 23  2  0  0  0  0
 22 24  1  0  0  0  0
 20 21  1  0  0  0  0
 19 20  1  0  0  0  0
 17 18  1  0  0  0  0
 17 19  2  0  0  0  0
 15 16  1  0  0  0  0
 15 17  1  0  0  0  0
 14 15  1  0  0  0  0
 14 20  2  0  0  0  0
 11 12  1  0  0  0  0
 11 13  1  0  0  0  0
 11 14  1  0  0  0  0
  9 10  1  0  0  0  0
  9 11  1  0  0  0  0
  9 22  1  0  0  0  0
  7  8  1  0  0  0  0
  7  9  1  0  0  0  0
 26 27  1  0  0  0  0
 26 28  1  0  0  0  0
 26 29  1  0  0  0  0
 24 25  1  0  0  0  0
 24 26  1  0  0  0  0
M  END
$$$$
default_name
  -OEChem-01062215323D

 29 29  0     1  0  0  0  0  0999 V2000
   -3.6042   -3.5728    1.4576 H   0  0  0  0  0  0  0  0  0  0  0  0
   -3.5202   -2.6488    0.8866 C   0  0  0  0  0  0  0  0  0  0  0  0
   -4.2052   -1.9048    1.2896 H   0  0  0  0  0  0  0  0  0  0  0  0
   -3.7552   -2.8428   -0.1584 H   0  0  0  0  0  0  0  0  0  0  0  0
   -2.1052   -2.1358    0.9946 C   0  0  0  0  0  0  0  0  0  0  0  0
   -1.2852   -2.7288    1.6826 O   0  0  0  0  0  0  0  0  0  0  0  0
   -1.8202   -1.0288    0.3146 N   0  0  0  0  0  0  0  0  0  0  0  0
   -2.5542   -0.5788   -0.2104 H   0  0  0  0  0  0  0  0  0  0  0  0
   -0.5102   -0.3728    0.3086 C   0  0  1  0  0  0  0  0  0  0  0  0
   -0.4673    0.3143   -0.5378 H   0  0  0  0  0  0  0  0  0  0  0  0
   -0.3513    0.4494    1.6009 C   0  0  0  0  0  0  0  0  0  0  0  0
   -0.4753   -0.2102    2.4615 H   0  0  0  0  0  0  0  0  0  0  0  0
    0.6583    0.8627    1.6376 H   0  0  0  0  0  0  0  0  0  0  0  0
   -1.3365    1.5831    1.7200 C   0  0  0  0  0  0  0  0  0  0  0  0
   -1.2944    2.7763    1.0312 N   0  0  0  0  0  0  0  0  0  0  0  0
   -0.5571    3.0808    0.4131 H   0  0  0  0  0  0  0  0  0  0  0  0
   -2.4063    3.4686    1.3307 C   0  0  0  0  0  0  0  0  0  0  0  0
   -2.6552    4.4502    0.9463 H   0  0  0  0  0  0  0  0  0  0  0  0
   -3.1756    2.7682    2.1769 N   0  0  0  0  0  0  0  0  0  0  0  0
   -2.5044    1.5701    2.4350 C   0  0  0  0  0  0  0  0  0  0  0  0
   -2.8598    0.7602    3.0588 H   0  0  0  0  0  0  0  0  0  0  0  0
    0.6171   -1.4046    0.1345 C   0  0  0  0  0  0  0  0  0  0  0  0
    0.4112   -2.4475   -0.4859 O   0  0  0  0  0  0  0  0  0  0  0  0
    1.8003   -1.1244    0.6948 N   0  0  0  0  0  0  0  0  0  0  0  0
    1.8741   -0.2739    1.2335 H   0  0  0  0  0  0  0  0  0  0  0  0
    2.9744   -1.9899    0.6202 C   0  0  0  0  0  0  0  0  0  0  0  0
    3.2573   -2.1394   -0.4242 H   0  0  0  0  0  0  0  0  0  0  0  0
    3.8087   -1.5369    1.1565 H   0  0  0  0  0  0  0  0  0  0  0  0
    2.7475   -2.9616    1.0617 H   0  0  0  0  0  0  0  0  0  0  0  0
  5  6  2  0  0  0  0
  5  7  1  0  0  0  0
  2  3  1  0  0  0  0
  2  4  1  0  0  0  0
  2  5  1  0  0  0  0
  1  2  1  0  0  0  0
 22 23  2  0  0  0  0
 22 24  1  0  0  0  0
 20 21  1  0  0  0  0
 19 20  1  0  0  0  0
 17 18  1  0  0  0  0
 17 19  2  0  0  0  0
 15 16  1  0  0  0  0
 15 17  1  0  0  0  0
 14 15  1  0  0  0  0
 14 20  2  0  0  0  0
 11 12  1  0  0  0  0
 11 13  1  0  0  0  0
 11 14  1  0  0  0  0
  9 10  1  0  0  0  0
  9 11  1  0  0  0  0
  9 22  1  0  0  0  0
  7  8  1  0  0  0  0
  7  9  1  0  0  0  0
 26 27  1  0  0  0  0
 26 28  1  0  0  0  0
 26 29  1  0  0  0  0
 24 25  1  0  0  0  0
 24 26  1  0  0  0  0
M  END
$$$$
default_name
  -OEChem-01062215323D

 29 29  0     1  0  0  0  0  0999 V2000
   -3.6042   -3.5728    1.4576 H   0  0  0  0  0  0  0  0  0  0  0  0
   -3.5202   -2.6488    0.8866 C   0  0  0  0  0  0  0  0  0  0  0  0
   -4.2052   -1.9048    1.2896 H   0  0  0  0  0  0  0  0  0  0  0  0
   -3.7552   -2.8428   -0.1584 H   0  0  0  0  0  0  0  0  0  0  0  0
   -2.1052   -2.1358    0.9946 C   0  0  0  0  0  0  0  0  0  0  0  0
   -1.2852   -2.7288    1.6826 O   0  0  0  0  0  0  0  0  0  0  0  0
   -1.8202   -1.0288    0.3146 N   0  0  0  0  0  0  0  0  0  0  0  0
   -2.5542   -0.5788   -0.2104 H   0  0  0  0  0  0  0  0  0  0  0  0
   -0.5102   -0.3728    0.3086 C   0  0  1  0  0  0  0  0  0  0  0  0
   -0.4673    0.3143   -0.5378 H   0  0  0  0  0  0  0  0  0  0  0  0
   -0.3513    0.4494    1.6009 C   0  0  0  0  0  0  0  0  0  0  0  0
   -0.4753   -0.2102    2.4615 H   0  0  0  0  0  0  0  0  0  0  0  0
    0.6583    0.8627    1.6376 H   0  0  0  0  0  0  0  0  0  0  0  0
   -1.3365    1.5831    1.7200 C   0  0  0  0  0  0  0  0  0  0  0  0
   -1.2944    2.7763    1.0312 N   0  0  0  0  0  0  0  0  0  0  0  0
   -0.5571    3.0808    0.4131 H   0  0  0  0  0  0  0  0  0  0  0  0
   -2.4063    3.4686    1.3307 C   0  0  0  0  0  0  0  0  0  0  0  0
   -2.6552    4.4502    0.9463 H   0  0  0  0  0  0  0  0  0  0  0  0
   -3.1756    2.7682    2.1769 N   0  0  0  0  0  0  0  0  0  0  0  0
   -2.5044    1.5701    2.4350 C   0  0  0  0  0  0  0  0  0  0  0  0
   -2.8598    0.7602    3.0588 H   0  0  0  0  0  0  0  0  0  0  0  0
    0.6171   -1.4046    0.1345 C   0  0  0  0  0  0  0  0  0  0  0  0
    0.5108   -2.3024   -0.7007 O   0  0  0  0  0  0  0  0  0  0  0  0
    1.6863   -1.2889    0.9319 N   0  0  0  0  0  0  0  0  0  0  0  0
    1.6745   -0.5586    1.6287 H   0  0  0  0  0  0  0  0  0  0  0  0
    2.8441   -2.1783    0.8939 C   0  0  0  0  0  0  0  0  0  0  0  0
    3.3050   -2.1427   -0.0958 H   0  0  0  0  0  0  0  0  0  0  0  0
    3.5764   -1.8726    1.6418 H   0  0  0  0  0  0  0  0  0  0  0  0
    2.5308   -3.2040    1.0950 H   0  0  0  0  0  0  0  0  0  0  0  0
  5  6  2  0  0  0  0
  5  7  1  0  0  0  0
  2  3  1  0  0  0  0
  2  4  1  0  0  0  0
  2  5  1  0  0  0  0
  1  2  1  0  0  0  0
 22 23  2  0  0  0  0
 22 24  1  0  0  0  0
 20 21  1  0  0  0  0
 19 20  1  0  0  0  0
 17 18  1  0  0  0  0
 17 19  2  0  0  0  0
 15 16  1  0  0  0  0
 15 17  1  0  0  0  0
 14 15  1  0  0  0  0
 14 20  2  0  0  0  0
 11 12  1  0  0  0  0
 11 13  1  0  0  0  0
 11 14  1  0  0  0  0
  9 10  1  0  0  0  0
  9 11  1  0  0  0  0
  9 22  1  0  0  0  0
  7  8  1  0  0  0  0
  7  9  1  0  0  0  0
 26 27  1  0  0  0  0
 26 28  1  0  0  0  0
 26 29  1  0  0  0  0
 24 25  1  0  0  0  0
 24 26  1  0  0  0  0
M  END
$$$$
default_name
  -OEChem-01062215323D

 29 29  0     1  0  0  0  0  0999 V2000
   -3.6042   -3.5728    1.4576 H   0  0  0  0  0  0  0  0  0  0  0  0
   -3.5202   -2.6488    0.8866 C   0  0  0  0  0  0  0  0  0  0  0  0
   -4.2052   -1.9048    1.2896 H   0  0  0  0  0  0  0  0  0  0  0  0
   -3.7552   -2.8428   -0.1584 H   0  0  0  0  0  0  0  0  0  0  0  0
   -2.1052   -2.1358    0.9946 C   0  0  0  0  0  0  0  0  0  0  0  0
   -1.2852   -2.7288    1.6826 O   0  0  0  0  0  0  0  0  0  0  0  0
   -1.8202   -1.0288    0.3146 N   0  0  0  0  0  0  0  0  0  0  0  0
   -2.5542   -0.5788   -0.2104 H   0  0  0  0  0  0  0  0  0  0  0  0
   -0.5102   -0.3728    0.3086 C   0  0  1  0  0  0  0  0  0  0  0  0
   -0.4673    0.3143   -0.5378 H   0  0  0  0  0  0  0  0  0  0  0  0
   -0.3513    0.4494    1.6009 C   0  0  0  0  0  0  0  0  0  0  0  0
   -0.4753   -0.2102    2.4615 H   0  0  0  0  0  0  0  0  0  0  0  0
    0.6583    0.8627    1.6376 H   0  0  0  0  0  0  0  0  0  0  0  0
   -1.3365    1.5831    1.7200 C   0  0  0  0  0  0  0  0  0  0  0  0
   -1.2944    2.7763    1.0312 N   0  0  0  0  0  0  0  0  0  0  0  0
   -0.5571    3.0808    0.4131 H   0  0  0  0  0  0  0  0  0  0  0  0
   -2.4063    3.4686    1.3307 C   0  0  0  0  0  0  0  0  0  0  0  0
   -2.6552    4.4502    0.9463 H   0  0  0  0  0  0  0  0  0  0  0  0
   -3.1756    2.7682    2.1769 N   0  0  0  0  0  0  0  0  0  0  0  0
   -2.5044    1.5701    2.4350 C   0  0  0  0  0  0  0  0  0  0  0  0
   -2.8598    0.7602    3.0588 H   0  0  0  0  0  0  0  0  0  0  0  0
    0.6171   -1.4046    0.1345 C   0  0  0  0  0  0  0  0  0  0  0  0
    0.6486   -2.1244   -0.8634 O   0  0  0  0  0  0  0  0  0  0  0  0
    1.5302   -1.4895    1.1100 N   0  0  0  0  0  0  0  0  0  0  0  0
    1.4048   -0.9027    1.9217 H   0  0  0  0  0  0  0  0  0  0  0  0
    2.6653   -2.4085    1.1000 C   0  0  0  0  0  0  0  0  0  0  0  0
    3.2940   -2.2096    0.2292 H   0  0  0  0  0  0  0  0  0  0  0  0
    3.2579   -2.2821    2.0066 H   0  0  0  0  0  0  0  0  0  0  0  0
    2.3086   -3.4381    1.0436 H   0  0  0  0  0  0  0  0  0  0  0  0
  5  6  2  0  0  0  0
  5  7  1  0  0  0  0
  2  3  1  0  0  0  0
  2  4  1  0  0  0  0
  2  5  1  0  0  0  0
  1  2  1  0  0  0  0
 22 23  2  0  0  0  0
 22 24  1  0  0  0  0
 20 21  1  0  0  0  0
 19 20  1  0  0  0  0
 17 18  1  0  0  0  0
 17 19  2  0  0  0  0
 15 16  1  0  0  0  0
 15 17  1  0  0  0  0
 14 15  1  0  0  0  0
 14 20  2  0  0  0  0
 11 12  1  0  0  0  0
 11 13  1  0  0  0  0
 11 14  1  0  0  0  0
  9 10  1  0  0  0  0
  9 11  1  0  0  0  0
  9 22  1  0  0  0  0
  7  8  1  0  0  0  0
  7  9  1  0  0  0  0
 26 27  1  0  0  0  0
 26 28  1  0  0  0  0
 26 29  1  0  0  0  0
 24 25  1  0  0  0  0
 24 26  1  0  0  0  0
M  END
$$$$
default_name
  -OEChem-01062215323D

 29 29  0     1  0  0  0  0  0999 V2000
   -3.6042   -3.5728    1.4576 H   0  0  0  0  0  0  0  0  0  0  0  0
   -3.5202   -2.6488    0.8866 C   0  0  0  0  0  0  0  0  0  0  0  0
   -4.2052   -1.9048    1.2896 H   0  0  0  0  0  0  0  0  0  0  0  0
   -3.7552   -2.8428   -0.1584 H   0  0  0  0  0  0  0  0  0  0  0  0
   -2.1052   -2.1358    0.9946 C   0  0  0  0  0  0  0  0  0  0  0  0
   -1.2852   -2.7288    1.6826 O   0  0  0  0  0  0  0  0  0  0  0  0
   -1.8202   -1.0288    0.3146 N   0  0  0  0  0  0  0  0  0  0  0  0
   -2.5542   -0.5788   -0.2104 H   0  0  0  0  0  0  0  0  0  0  0  0
   -0.5102   -0.3728    0.3086 C   0  0  1  0  0  0  0  0  0  0  0  0
   -0.4673    0.3143   -0.5378 H   0  0  0  0  0  0  0  0  0  0  0  0
   -0.3513    0.4494    1.6009 C   0  0  0  0  0  0  0  0  0  0  0  0
   -0.4753   -0.2102    2.4615 H   0  0  0  0  0  0  0  0  0  0  0  0
    0.6583    0.8627    1.6376 H   0  0  0  0  0  0  0  0  0  0  0  0
   -1.3365    1.5831    1.7200 C   0  0  0  0  0  0  0  0  0  0  0  0
   -1.2944    2.7763    1.0312 N   0  0  0  0  0  0  0  0  0  0  0  0
   -0.5571    3.0808    0.4131 H   0  0  0  0  0  0  0  0  0  0  0  0
   -2.4063    3.4686    1.3307 C   0  0  0  0  0  0  0  0  0  0  0  0
   -2.6552    4.4502    0.9463 H   0  0  0  0  0  0  0  0  0  0  0  0
   -3.1756    2.7682    2.1769 N   0  0  0  0  0  0  0  0  0  0  0  0
   -2.5044    1.5701    2.4350 C   0  0  0  0  0  0  0  0  0  0  0  0
   -2.8598    0.7602    3.0588 H   0  0  0  0  0  0  0  0  0  0  0  0
    0.6171   -1.4046    0.1345 C   0  0  0  0  0  0  0  0  0  0  0  0
    0.8152   -1.9257   -0.9628 O   0  0  0  0  0  0  0  0  0  0  0  0
    1.3426   -1.7125    1.2168 N   0  0  0  0  0  0  0  0  0  0  0  0
    1.0833   -1.2827    2.0926 H   0  0  0  0  0  0  0  0  0  0  0  0
    2.4500   -2.6646    1.2244 C   0  0  0  0  0  0  0  0  0  0  0  0
    3.2250   -2.3355    0.5285 H   0  0  0  0  0  0  0  0  0  0  0  0
    2.8749   -2.7375    2.2260 H   0  0  0  0  0  0  0  0  0  0  0  0
    2.0960   -3.6480    0.9109 H   0  0  0  0  0  0  0  0  0  0  0  0
  5  6  2  0  0  0  0
  5  7  1  0  0  0  0
  2  3  1  0  0  0  0
  2  4  1  0  0  0  0
  2  5  1  0  0  0  0
  1  2  1  0  0  0  0
 22 23  2  0  0  0  0
 22 24  1  0  0  0  0
 20 21  1  0  0  0  0
 19 20  1  0  0  0  0
 17 18  1  0  0  0  0
 17 19  2  0  0  0  0
 15 16  1  0  0  0  0
 15 17  1  0  0  0  0
 14 15  1  0  0  0  0
 14 20  2  0  0  0  0
 11 12  1  0  0  0  0
 11 13  1  0  0  0  0
 11 14  1  0  0  0  0
  9 10  1  0  0  0  0
  9 11  1  0  0  0  0
  9 22  1  0  0  0  0
  7  8  1  0  0  0  0
  7  9  1  0  0  0  0
 26 27  1  0  0  0  0
 26 28  1  0  0  0  0
 26 29  1  0  0  0  0
 24 25  1  0  0  0  0
 24 26  1  0  0  0  0
M  END
$$$$
default_name
  -OEChem-01062215323D

 29 29  0     1  0  0  0  0  0999 V2000
   -3.6042   -3.5728    1.4576 H   0  0  0  0  0  0  0  0  0  0  0  0
   -3.5202   -2.6488    0.8866 C   0  0  0  0  0  0  0  0  0  0  0  0
   -4.2052   -1.9048    1.2896 H   0  0  0  0  0  0  0  0  0  0  0  0
   -3.7552   -2.8428   -0.1584 H   0  0  0  0  0  0  0  0  0  0  0  0
   -2.1052   -2.1358    0.9946 C   0  0  0  0  0  0  0  0  0  0  0  0
   -1.2852   -2.7288    1.6826 O   0  0  0  0  0  0  0  0  0  0  0  0
   -1.8202   -1.0288    0.3146 N   0  0  0  0  0  0  0  0  0  0  0  0
   -2.5542   -0.5788   -0.2104 H   0  0  0  0  0  0  0  0  0  0  0  0
   -0.5102   -0.3728    0.3086 C   0  0  1  0  0  0  0  0  0  0  0  0
   -0.4673    0.3143   -0.5378 H   0  0  0  0  0  0  0  0  0  0  0  0
   -0.3513    0.4494    1.6009 C   0  0  0  0  0  0  0  0  0  0  0  0
   -0.4753   -0.2102    2.4615 H   0  0  0  0  0  0  0  0  0  0  0  0
    0.6583    0.8627    1.6376 H   0  0  0  0  0  0  0  0  0  0  0  0
   -1.3365    1.5831    1.7200 C   0  0  0  0  0  0  0  0  0  0  0  0
   -1.2944    2.7763    1.0312 N   0  0  0  0  0  0  0  0  0  0  0  0
   -0.5571    3.0808    0.4131 H   0  0  0  0  0  0  0  0  0  0  0  0
   -2.4063    3.4686    1.3307 C   0  0  0  0  0  0  0  0  0  0  0  0
   -2.6552    4.4502    0.9463 H   0  0  0  0  0  0  0  0  0  0  0  0
   -3.1756    2.7682    2.1769 N   0  0  0  0  0  0  0  0  0  0  0  0
   -2.5044    1.5701    2.4350 C   0  0  0  0  0  0  0  0  0  0  0  0
   -2.8598    0.7602    3.0588 H   0  0  0  0  0  0  0  0  0  0  0  0
    0.6171   -1.4046    0.1345 C   0  0  0  0  0  0  0  0  0  0  0  0
    0.9991   -1.7197   -0.9922 O   0  0  0  0  0  0  0  0  0  0  0  0
    1.1363   -1.9426    1.2451 N   0  0  0  0  0  0  0  0  0  0  0  0
    0.7319   -1.6729    2.1298 H   0  0  0  0  0  0  0  0  0  0  0  0
    2.2130   -2.9293    1.2585 C   0  0  0  0  0  0  0  0  0  0  0  0
    3.1027   -2.5118    0.7817 H   0  0  0  0  0  0  0  0  0  0  0  0
    2.4535   -3.2078    2.2850 H   0  0  0  0  0  0  0  0  0  0  0  0
    1.9075   -3.8193    0.7061 H   0  0  0  0  0  0  0  0  0  0  0  0
  5  6  2  0  0  0  0
  5  7  1  0  0  0  0
  2  3  1  0  0  0  0
  2  4  1  0  0  0  0
  2  5  1  0  0  0  0
  1  2  1  0  0  0  0
 22 23  2  0  0  0  0
 22 24  1  0  0  0  0
 20 21  1  0  0  0  0
 19 20  1  0  0  0  0
 17 18  1  0  0  0  0
 17 19  2  0  0  0  0
 15 16  1  0  0  0  0
 15 17  1  0  0  0  0
 14 15  1  0  0  0  0
 14 20  2  0  0  0  0
 11 12  1  0  0  0  0
 11 13  1  0  0  0  0
 11 14  1  0  0  0  0
  9 10  1  0  0  0  0
  9 11  1  0  0  0  0
  9 22  1  0  0  0  0
  7  8  1  0  0  0  0
  7  9  1  0  0  0  0
 26 27  1  0  0  0  0
 26 28  1  0  0  0  0
 26 29  1  0  0  0  0
 24 25  1  0  0  0  0
 24 26  1  0  0  0  0
M  END
$$$$
default_name
  -OEChem-01062215323D

 29 29  0     1  0  0  0  0  0999 V2000
   -3.6042   -3.5728    1.4576 H   0  0  0  0  0  0  0  0  0  0  0  0
   -3.5202   -2.6488    0.8866 C   0  0  0  0  0  0  0  0  0  0  0  0
   -4.2052   -1.9048    1.2896 H   0  0  0  0  0  0  0  0  0  0  0  0
   -3.7552   -2.8428   -0.1584 H   0  0  0  0  0  0  0  0  0  0  0  0
   -2.1052   -2.1358    0.9946 C   0  0  0  0  0  0  0  0  0  0  0  0
   -1.2852   -2.7288    1.6826 O   0  0  0  0  0  0  0  0  0  0  0  0
   -1.8202   -1.0288    0.3146 N   0  0  0  0  0  0  0  0  0  0  0  0
   -2.5542   -0.5788   -0.2104 H   0  0  0  0  0  0  0  0  0  0  0  0
   -0.5102   -0.3728    0.3086 C   0  0  1  0  0  0  0  0  0  0  0  0
   -0.4673    0.3143   -0.5378 H   0  0  0  0  0  0  0  0  0  0  0  0
   -0.3513    0.4494    1.6009 C   0  0  0  0  0  0  0  0  0  0  0  0
   -0.4753   -0.2102    2.4615 H   0  0  0  0  0  0  0  0  0  0  0  0
    0.6583    0.8627    1.6376 H   0  0  0  0  0  0  0  0  0  0  0  0
   -1.3365    1.5831    1.7200 C   0  0  0  0  0  0  0  0  0  0  0  0
   -1.2944    2.7763    1.0312 N   0  0  0  0  0  0  0  0  0  0  0  0
   -0.5571    3.0808    0.4131 H   0  0  0  0  0  0  0  0  0  0  0  0
   -2.4063    3.4686    1.3307 C   0  0  0  0  0  0  0  0  0  0  0  0
   -2.6552    4.4502    0.9463 H   0  0  0  0  0  0  0  0  0  0  0  0
   -3.1756    2.7682    2.1769 N   0  0  0  0  0  0  0  0  0  0  0  0
   -2.5044    1.5701    2.4350 C   0  0  0  0  0  0  0  0  0  0  0  0
   -2.8598    0.7602    3.0588 H   0  0  0  0  0  0  0  0  0  0  0  0
    0.6171   -1.4046    0.1345 C   0  0  0  0  0  0  0  0  0  0  0  0
    1.1880   -1.5206   -0.9496 O   0  0  0  0  0  0  0  0  0  0  0  0
    0.9254   -2.1642    1.1930 N   0  0  0  0  0  0  0  0  0  0  0  0
    0.3747   -2.0465    2.0308 H   0  0  0  0  0  0  0  0  0  0  0  0
    1.9704   -3.1846    1.2002 C   0  0  0  0  0  0  0  0  0  0  0  0
    2.9354   -2.7266    0.9716 H   0  0  0  0  0  0  0  0  0  0  0  0
    2.0225   -3.6609    2.1796 H   0  0  0  0  0  0  0  0  0  0  0  0
    1.7560   -3.9404    0.4430 H   0  0  0  0  0  0  0  0  0  0  0  0
  5  6  2  0  0  0  0
  5  7  1  0  0  0  0
  2  3  1  0  0  0  0
  2  4  1  0  0  0  0
  2  5  1  0  0  0  0
  1  2  1  0  0  0  0
 22 23  2  0  0  0  0
 22 24  1  0  0  0  0
 20 21  1  0  0  0  0
 19 20  1  0  0  0  0
 17 18  1  0  0  0  0
 17 19  2  0  0  0  0
 15 16  1  0  0  0  0
 15 17  1  0  0  0  0
 14 15  1  0  0  0  0
 14 20  2  0  0  0  0
 11 12  1  0  0  0  0
 11 13  1  0  0  0  0
 11 14  1  0  0  0  0
  9 10  1  0  0  0  0
  9 11  1  0  0  0  0
  9 22  1  0  0  0  0
  7  8  1  0  0  0  0
  7  9  1  0  0  0  0
 26 27  1  0  0  0  0
 26 28  1  0  0  0  0
 26 29  1  0  0  0  0
 24 25  1  0  0  0  0
 24 26  1  0  0  0  0
M  END
$$$$
default_name
  -OEChem-01062215323D

 29 29  0     1  0  0  0  0  0999 V2000
   -3.6042   -3.5728    1.4576 H   0  0  0  0  0  0  0  0  0  0  0  0
   -3.5202   -2.6488    0.8866 C   0  0  0  0  0  0  0  0  0  0  0  0
   -4.2052   -1.9048    1.2896 H   0  0  0  0  0  0  0  0  0  0  0  0
   -3.7552   -2.8428   -0.1584 H   0  0  0  0  0  0  0  0  0  0  0  0
   -2.1052   -2.1358    0.9946 C   0  0  0  0  0  0  0  0  0  0  0  0
   -1.2852   -2.7288    1.6826 O   0  0  0  0  0  0  0  0  0  0  0  0
   -1.8202   -1.0288    0.3146 N   0  0  0  0  0  0  0  0  0  0  0  0
   -2.5542   -0.5788   -0.2104 H   0  0  0  0  0  0  0  0  0  0  0  0
   -0.5102   -0.3728    0.3086 C   0  0  1  0  0  0  0  0  0  0  0  0
   -0.4673    0.3143   -0.5378 H   0  0  0  0  0  0  0  0  0  0  0  0
   -0.3513    0.4494    1.6009 C   0  0  0  0  0  0  0  0  0  0  0  0
   -0.4753   -0.2102    2.4615 H   0  0  0  0  0  0  0  0  0  0  0  0
    0.6583    0.8627    1.6376 H   0  0  0  0  0  0  0  0  0  0  0  0
   -1.3365    1.5831    1.7200 C   0  0  0  0  0  0  0  0  0  0  0  0
   -1.2944    2.7763    1.0312 N   0  0  0  0  0  0  0  0  0  0  0  0
   -0.5571    3.0808    0.4131 H   0  0  0  0  0  0  0  0  0  0  0  0
   -2.4063    3.4686    1.3307 C   0  0  0  0  0  0  0  0  0  0  0  0
   -2.6552    4.4502    0.9463 H   0  0  0  0  0  0  0  0  0  0  0  0
   -3.1756    2.7682    2.1769 N   0  0  0  0  0  0  0  0  0  0  0  0
   -2.5044    1.5701    2.4350 C   0  0  0  0  0  0  0  0  0  0  0  0
   -2.8598    0.7602    3.0588 H   0  0  0  0  0  0  0  0  0  0  0  0
    0.6171   -1.4046    0.1345 C   0  0  0  0  0  0  0  0  0  0  0  0
    1.3688   -1.3419   -0.8379 O   0  0  0  0  0  0  0  0  0  0  0  0
    0.7242   -2.3622    1.0640 N   0  0  0  0  0  0  0  0  0  0  0  0
    0.0358   -2.3781    1.8022 H   0  0  0  0  0  0  0  0  0  0  0  0
    1.7387   -3.4129    1.0532 C   0  0  0  0  0  0  0  0  0  0  0  0
    2.7345   -2.9652    1.0852 H   0  0  0  0  0  0  0  0  0  0  0  0
    1.6111   -4.0660    1.9170 H   0  0  0  0  0  0  0  0  0  0  0  0
    1.6518   -4.0031    0.1396 H   0  0  0  0  0  0  0  0  0  0  0  0
  5  6  2  0  0  0  0
  5  7  1  0  0  0  0
  2  3  1  0  0  0  0
  2  4  1  0  0  0  0
  2  5  1  0  0  0  0
  1  2  1  0  0  0  0
 22 23  2  0  0  0  0
 22 24  1  0  0  0  0
 20 21  1  0  0  0  0
 19 20  1  0  0  0  0
 17 18  1  0  0  0  0
 17 19  2  0  0  0  0
 15 16  1  0  0  0  0
 15 17  1  0  0  0  0
 14 15  1  0  0  0  0
 14 20  2  0  0  0  0
 11 12  1  0  0  0  0
 11 13  1  0  0  0  0
 11 14  1  0  0  0  0
  9 10  1  0  0  0  0
  9 11  1  0  0  0  0
  9 22  1  0  0  0  0
  7  8  1  0  0  0  0
  7  9  1  0  0  0  0
 26 27  1  0  0  0  0
 26 28  1  0  0  0  0
 26 29  1  0  0  0  0
 24 25  1  0  0  0  0
 24 26  1  0  0  0  0
M  END
$$$$
default_name
  -OEChem-01062215323D

 29 29  0     1  0  0  0  0  0999 V2000
   -3.6042   -3.5728    1.4576 H   0  0  0  0  0  0  0  0  0  0  0  0
   -3.5202   -2.6488    0.8866 C   0  0  0  0  0  0  0  0  0  0  0  0
   -4.2052   -1.9048    1.2896 H   0  0  0  0  0  0  0  0  0  0  0  0
   -3.7552   -2.8428   -0.1584 H   0  0  0  0  0  0  0  0  0  0  0  0
   -2.1052   -2.1358    0.9946 C   0  0  0  0  0  0  0  0  0  0  0  0
   -1.2852   -2.7288    1.6826 O   0  0  0  0  0  0  0  0  0  0  0  0
   -1.8202   -1.0288    0.3146 N   0  0  0  0  0  0  0  0  0  0  0  0
   -2.5542   -0.5788   -0.2104 H   0  0  0  0  0  0  0  0  0  0  0  0
   -0.5102   -0.3728    0.3086 C   0  0  1  0  0  0  0  0  0  0  0  0
   -0.4673    0.3143   -0.5378 H   0  0  0  0  0  0  0  0  0  0  0  0
   -0.3513    0.4494    1.6009 C   0  0  0  0  0  0  0  0  0  0  0  0
   -0.4753   -0.2102    2.4615 H   0  0  0  0  0  0  0  0  0  0  0  0
    0.6583    0.8627    1.6376 H   0  0  0  0  0  0  0  0  0  0  0  0
   -1.3365    1.5831    1.7200 C   0  0  0  0  0  0  0  0  0  0  0  0
   -1.2944    2.7763    1.0312 N   0  0  0  0  0  0  0  0  0  0  0  0
   -0.5571    3.0808    0.4131 H   0  0  0  0  0  0  0  0  0  0  0  0
   -2.4063    3.4686    1.3307 C   0  0  0  0  0  0  0  0  0  0  0  0
   -2.6552    4.4502    0.9463 H   0  0  0  0  0  0  0  0  0  0  0  0
   -3.1756    2.7682    2.1769 N   0  0  0  0  0  0  0  0  0  0  0  0
   -2.5044    1.5701    2.4350 C   0  0  0  0  0  0  0  0  0  0  0  0
   -2.8598    0.7602    3.0588 H   0  0  0  0  0  0  0  0  0  0  0  0
    0.6171   -1.4046    0.1345 C   0  0  0  0  0  0  0  0  0  0  0  0
    1.5294   -1.1957   -0.6648 O   0  0  0  0  0  0  0  0  0  0  0  0
    0.5465   -2.5231    0.8669 N   0  0  0  0  0  0  0  0  0  0  0  0
   -0.2615   -2.6451    1.4596 H   0  0  0  0  0  0  0  0  0  0  0  0
    1.5337   -3.5988    0.8278 C   0  0  0  0  0  0  0  0  0  0  0  0
    2.5138   -3.2113    1.1149 H   0  0  0  0  0  0  0  0  0  0  0  0
    1.2475   -4.3954    1.5151 H   0  0  0  0  0  0  0  0  0  0  0  0
    1.6020   -4.0030   -0.1834 H   0  0  0  0  0  0  0  0  0  0  0  0
  5  6  2  0  0  0  0
  5  7  1  0  0  0  0
  2  3  1  0  0  0  0
  2  4  1  0  0  0  0
  2  5  1  0  0  0  0
  1  2  1  0  0  0  0
 22 23  2  0  0  0  0
 22 24  1  0  0  0  0
 20 21  1  0  0  0  0
 19 20  1  0  0  0  0
 17 18  1  0  0  0  0
 17 19  2  0  0  0  0
 15 16  1  0  0  0  0
 15 17  1  0  0  0  0
 14 15  1  0  0  0  0
 14 20  2  0  0  0  0
 11 12  1  0  0  0  0
 11 13  1  0  0  0  0
 11 14  1  0  0  0  0
  9 10  1  0  0  0  0
  9 11  1  0  0  0  0
  9 22  1  0  0  0  0
  7  8  1  0  0  0  0
  7  9  1  0  0  0  0
 26 27  1  0  0  0  0
 26 28  1  0  0  0  0
 26 29  1  0  0  0  0
 24 25  1  0  0  0  0
 24 26  1  0  0  0  0
M  END
$$$$
default_name
  -OEChem-01062215323D

 29 29  0     1  0  0  0  0  0999 V2000
   -3.6042   -3.5728    1.4576 H   0  0  0  0  0  0  0  0  0  0  0  0
   -3.5202   -2.6488    0.8866 C   0  0  0  0  0  0  0  0  0  0  0  0
   -4.2052   -1.9048    1.2896 H   0  0  0  0  0  0  0  0  0  0  0  0
   -3.7552   -2.8428   -0.1584 H   0  0  0  0  0  0  0  0  0  0  0  0
   -2.1052   -2.1358    0.9946 C   0  0  0  0  0  0  0  0  0  0  0  0
   -1.2852   -2.7288    1.6826 O   0  0  0  0  0  0  0  0  0  0  0  0
   -1.8202   -1.0288    0.3146 N   0  0  0  0  0  0  0  0  0  0  0  0
   -2.5542   -0.5788   -0.2104 H   0  0  0  0  0  0  0  0  0  0  0  0
   -0.5102   -0.3728    0.3086 C   0  0  1  0  0  0  0  0  0  0  0  0
   -0.4673    0.3143   -0.5378 H   0  0  0  0  0  0  0  0  0  0  0  0
   -0.3513    0.4494    1.6009 C   0  0  0  0  0  0  0  0  0  0  0  0
   -0.4753   -0.2102    2.4615 H   0  0  0  0  0  0  0  0  0  0  0  0
    0.6583    0.8627    1.6376 H   0  0  0  0  0  0  0  0  0  0  0  0
   -1.3365    1.5831    1.7200 C   0  0  0  0  0  0  0  0  0  0  0  0
   -1.2944    2.7763    1.0312 N   0  0  0  0  0  0  0  0  0  0  0  0
   -0.5571    3.0808    0.4131 H   0  0  0  0  0  0  0  0  0  0  0  0
   -2.4063    3.4686    1.3307 C   0  0  0  0  0  0  0  0  0  0  0  0
   -2.6552    4.4502    0.9463 H   0  0  0  0  0  0  0  0  0  0  0  0
   -3.1756    2.7682    2.1769 N   0  0  0  0  0  0  0  0  0  0  0  0
   -2.5044    1.5701    2.4350 C   0  0  0  0  0  0  0  0  0  0  0  0
   -2.8598    0.7602    3.0588 H   0  0  0  0  0  0  0  0  0  0  0  0
    0.6171   -1.4046    0.1345 C   0  0  0  0  0  0  0  0  0  0  0  0
    1.6586   -1.0921   -0.4419 O   0  0  0  0  0  0  0  0  0  0  0  0
    0.4043   -2.6360    0.6152 N   0  0  0  0  0  0  0  0  0  0  0  0
   -0.4970   -2.8293    1.0265 H   0  0  0  0  0  0  0  0  0  0  0  0
    1.3694   -3.7296    0.5391 C   0  0  0  0  0  0  0  0  0  0  0  0
    2.2882   -3.4483    1.0585 H   0  0  0  0  0  0  0  0  0  0  0  0
    0.9565   -4.6267    1.0013 H   0  0  0  0  0  0  0  0  0  0  0  0
    1.6100   -3.9401   -0.5041 H   0  0  0  0  0  0  0  0  0  0  0  0
  5  6  2  0  0  0  0
  5  7  1  0  0  0  0
  2  3  1  0  0  0  0
  2  4  1  0  0  0  0
  2  5  1  0  0  0  0
  1  2  1  0  0  0  0
 22 23  2  0  0  0  0
 22 24  1  0  0  0  0
 20 21  1  0  0  0  0
 19 20  1  0  0  0  0
 17 18  1  0  0  0  0
 17 19  2  0  0  0  0
 15 16  1  0  0  0  0
 15 17  1  0  0  0  0
 14 15  1  0  0  0  0
 14 20  2  0  0  0  0
 11 12  1  0  0  0  0
 11 13  1  0  0  0  0
 11 14  1  0  0  0  0
  9 10  1  0  0  0  0
  9 11  1  0  0  0  0
  9 22  1  0  0  0  0
  7  8  1  0  0  0  0
  7  9  1  0  0  0  0
 26 27  1  0  0  0  0
 26 28  1  0  0  0  0
 26 29  1  0  0  0  0
 24 25  1  0  0  0  0
 24 26  1  0  0  0  0
M  END
$$$$
default_name
  -OEChem-01062215323D

 29 29  0     1  0  0  0  0  0999 V2000
   -3.6042   -3.5728    1.4576 H   0  0  0  0  0  0  0  0  0  0  0  0
   -3.5202   -2.6488    0.8866 C   0  0  0  0  0  0  0  0  0  0  0  0
   -4.2052   -1.9048    1.2896 H   0  0  0  0  0  0  0  0  0  0  0  0
   -3.7552   -2.8428   -0.1584 H   0  0  0  0  0  0  0  0  0  0  0  0
   -2.1052   -2.1358    0.9946 C   0  0  0  0  0  0  0  0  0  0  0  0
   -1.2852   -2.7288    1.6826 O   0  0  0  0  0  0  0  0  0  0  0  0
   -1.8202   -1.0288    0.3146 N   0  0  0  0  0  0  0  0  0  0  0  0
   -2.5542   -0.5788   -0.2104 H   0  0  0  0  0  0  0  0  0  0  0  0
   -0.5102   -0.3728    0.3086 C   0  0  1  0  0  0  0  0  0  0  0  0
   -0.4673    0.3143   -0.5378 H   0  0  0  0  0  0  0  0  0  0  0  0
   -0.3513    0.4494    1.6009 C   0  0  0  0  0  0  0  0  0  0  0  0
   -0.4753   -0.2102    2.4615 H   0  0  0  0  0  0  0  0  0  0  0  0
    0.6583    0.8627    1.6376 H   0  0  0  0  0  0  0  0  0  0  0  0
   -1.3365    1.5831    1.7200 C   0  0  0  0  0  0  0  0  0  0  0  0
   -1.2944    2.7763    1.0312 N   0  0  0  0  0  0  0  0  0  0  0  0
   -0.5571    3.0808    0.4131 H   0  0  0  0  0  0  0  0  0  0  0  0
   -2.4063    3.4686    1.3307 C   0  0  0  0  0  0  0  0  0  0  0  0
   -2.6552    4.4502    0.9463 H   0  0  0  0  0  0  0  0  0  0  0  0
   -3.1756    2.7682    2.1769 N   0  0  0  0  0  0  0  0  0  0  0  0
   -2.5044    1.5701    2.4350 C   0  0  0  0  0  0  0  0  0  0  0  0
   -2.8598    0.7602    3.0588 H   0  0  0  0  0  0  0  0  0  0  0  0
    0.6171   -1.4046    0.1345 C   0  0  0  0  0  0  0  0  0  0  0  0
    1.7478   -1.0381   -0.1845 O   0  0  0  0  0  0  0  0  0  0  0  0
    0.3074   -2.6930    0.3259 N   0  0  0  0  0  0  0  0  0  0  0  0
   -0.6547   -2.9182    0.5323 H   0  0  0  0  0  0  0  0  0  0  0  0
    1.2570   -3.7964    0.2070 C   0  0  0  0  0  0  0  0  0  0  0  0
    2.0732   -3.6598    0.9199 H   0  0  0  0  0  0  0  0  0  0  0  0
    0.7577   -4.7442    0.4106 H   0  0  0  0  0  0  0  0  0  0  0  0
    1.6752   -3.8189   -0.8005 H   0  0  0  0  0  0  0  0  0  0  0  0
  5  6  2  0  0  0  0
  5  7  1  0  0  0  0
  2  3  1  0  0  0  0
  2  4  1  0  0  0  0
  2  5  1  0  0  0  0
  1  2  1  0  0  0  0
 22 23  2  0  0  0  0
 22 24  1  0  0  0  0
 20 21  1  0  0  0  0
 19 20  1  0  0  0  0
 17 18  1  0  0  0  0
 17 19  2  0  0  0  0
 15 16  1  0  0  0  0
 15 17  1  0  0  0  0
 14 15  1  0  0  0  0
 14 20  2  0  0  0  0
 11 12  1  0  0  0  0
 11 13  1  0  0  0  0
 11 14  1  0  0  0  0
  9 10  1  0  0  0  0
  9 11  1  0  0  0  0
  9 22  1  0  0  0  0
  7  8  1  0  0  0  0
  7  9  1  0  0  0  0
 26 27  1  0  0  0  0
 26 28  1  0  0  0  0
 26 29  1  0  0  0  0
 24 25  1  0  0  0  0
 24 26  1  0  0  0  0
M  END
$$$$
default_name
  -OEChem-01062215323D

 29 29  0     1  0  0  0  0  0999 V2000
   -3.6042   -3.5728    1.4576 H   0  0  0  0  0  0  0  0  0  0  0  0
   -3.5202   -2.6488    0.8866 C   0  0  0  0  0  0  0  0  0  0  0  0
   -4.2052   -1.9048    1.2896 H   0  0  0  0  0  0  0  0  0  0  0  0
   -3.7552   -2.8428   -0.1584 H   0  0  0  0  0  0  0  0  0  0  0  0
   -2.1052   -2.1358    0.9946 C   0  0  0  0  0  0  0  0  0  0  0  0
   -1.2852   -2.7288    1.6826 O   0  0  0  0  0  0  0  0  0  0  0  0
   -1.8202   -1.0288    0.3146 N   0  0  0  0  0  0  0  0  0  0  0  0
   -2.5542   -0.5788   -0.2104 H   0  0  0  0  0  0  0  0  0  0  0  0
   -0.5102   -0.3728    0.3086 C   0  0  1  0  0  0  0  0  0  0  0  0
   -0.4673    0.3143   -0.5378 H   0  0  0  0  0  0  0  0  0  0  0  0
   -0.3513    0.4494    1.6009 C   0  0  0  0  0  0  0  0  0  0  0  0
   -0.4753   -0.2102    2.4615 H   0  0  0  0  0  0  0  0  0  0  0  0
    0.6583    0.8627    1.6376 H   0  0  0  0  0  0  0  0  0  0  0  0
   -1.3365    1.5831    1.7200 C   0  0  0  0  0  0  0  0  0  0  0  0
   -1.2944    2.7763    1.0312 N   0  0  0  0  0  0  0  0  0  0  0  0
   -0.5571    3.0808    0.4131 H   0  0  0  0  0  0  0  0  0  0  0  0
   -2.4063    3.4686    1.3307 C   0  0  0  0  0  0  0  0  0  0  0  0
   -2.6552    4.4502    0.9463 H   0  0  0  0  0  0  0  0  0  0  0  0
   -3.1756    2.7682    2.1769 N   0  0  0  0  0  0  0  0  0  0  0  0
   -2.5044    1.5701    2.4350 C   0  0  0  0  0  0  0  0  0  0  0  0
   -2.8598    0.7602    3.0588 H   0  0  0  0  0  0  0  0  0  0  0  0
    0.6171   -1.4046    0.1345 C   0  0  0  0  0  0  0  0  0  0  0  0
    1.7909   -1.0373    0.0899 O   0  0  0  0  0  0  0  0  0  0  0  0
    0.2624   -2.6905    0.0189 N   0  0  0  0  0  0  0  0  0  0  0  0
   -0.7238   -2.9057    0.0107 H   0  0  0  0  0  0  0  0  0  0  0  0
    1.2041   -3.7946   -0.1460 C   0  0  0  0  0  0  0  0  0  0  0  0
    1.8834   -3.8315    0.7086 H   0  0  0  0  0  0  0  0  0  0  0  0
    0.6649   -4.7397   -0.2168 H   0  0  0  0  0  0  0  0  0  0  0  0
    1.7933   -3.6474   -1.0525 H   0  0  0  0  0  0  0  0  0  0  0  0
  5  6  2  0  0  0  0
  5  7  1  0  0  0  0
  2  3  1  0  0  0  0
  2  4  1  0  0  0  0
  2  5  1  0  0  0  0
  1  2  1  0  0  0  0
 22 23  2  0  0  0  0
 22 24  1  0  0  0  0
 20 21  1  0  0  0  0
 19 20  1  0  0  0  0
 17 18  1  0  0  0  0
 17 19  2  0  0  0  0
 15 16  1  0  0  0  0
 15 17  1  0  0  0  0
 14 15  1  0  0  0  0
 14 20  2  0  0  0  0
 11 12  1  0  0  0  0
 11 13  1  0  0  0  0
 11 14  1  0  0  0  0
  9 10  1  0  0  0  0
  9 11  1  0  0  0  0
  9 22  1  0  0  0  0
  7  8  1  0  0  0  0
  7  9  1  0  0  0  0
 26 27  1  0  0  0  0
 26 28  1  0  0  0  0
 26 29  1  0  0  0  0
 24 25  1  0  0  0  0
 24 26  1  0  0  0  0
M  END
$$$$
default_name
  -OEChem-01062215323D

 29 29  0     1  0  0  0  0  0999 V2000
   -3.6042   -3.5728    1.4576 H   0  0  0  0  0  0  0  0  0  0  0  0
   -3.5202   -2.6488    0.8866 C   0  0  0  0  0  0  0  0  0  0  0  0
   -4.2052   -1.9048    1.2896 H   0  0  0  0  0  0  0  0  0  0  0  0
   -3.7552   -2.8428   -0.1584 H   0  0  0  0  0  0  0  0  0  0  0  0
   -2.1052   -2.1358    0.9946 C   0  0  0  0  0  0  0  0  0  0  0  0
   -1.2852   -2.7288    1.6826 O   0  0  0  0  0  0  0  0  0  0  0  0
   -1.8202   -1.0288    0.3146 N   0  0  0  0  0  0  0  0  0  0  0  0
   -2.5542   -0.5788   -0.2104 H   0  0  0  0  0  0  0  0  0  0  0  0
   -0.5102   -0.3728    0.3086 C   0  0  1  0  0  0  0  0  0  0  0  0
   -0.4673    0.3143   -0.5378 H   0  0  0  0  0  0  0  0  0  0  0  0
   -0.3513    0.4494    1.6009 C   0  0  0  0  0  0  0  0  0  0  0  0
   -0.4753   -0.2102    2.4615 H   0  0  0  0  0  0  0  0  0  0  0  0
    0.6583    0.8627    1.6376 H   0  0  0  0  0  0  0  0  0  0  0  0
   -1.3365    1.5831    1.7200 C   0  0  0  0  0  0  0  0  0  0  0  0
   -1.2944    2.7763    1.0312 N   0  0  0  0  0  0  0  0  0  0  0  0
   -0.5571    3.0808    0.4131 H   0  0  0  0  0  0  0  0  0  0  0  0
   -2.4063    3.4686    1.3307 C   0  0  0  0  0  0  0  0  0  0  0  0
   -2.6552    4.4502    0.9463 H   0  0  0  0  0  0  0  0  0  0  0  0
   -3.1756    2.7682    2.1769 N   0  0  0  0  0  0  0  0  0  0  0  0
   -2.5044    1.5701    2.4350 C   0  0  0  0  0  0  0  0  0  0  0  0
   -2.8598    0.7602    3.0588 H   0  0  0  0  0  0  0  0  0  0  0  0
    0.6171   -1.4046    0.1345 C   0  0  0  0  0  0  0  0  0  0  0  0
    1.7848   -1.0899    0.3625 O   0  0  0  0  0  0  0  0  0  0  0  0
    0.2723   -2.6284   -0.2851 N   0  0  0  0  0  0  0  0  0  0  0  0
   -0.6996   -2.7927   -0.5028 H   0  0  0  0  0  0  0  0  0  0  0  0
    1.2144   -3.7244   -0.4959 C   0  0  0  0  0  0  0  0  0  0  0  0
    1.7317   -3.9518    0.4390 H   0  0  0  0  0  0  0  0  0  0  0  0
    0.6843   -4.6137   -0.8380 H   0  0  0  0  0  0  0  0  0  0  0  0
    1.9560   -3.4374   -1.2429 H   0  0  0  0  0  0  0  0  0  0  0  0
  5  6  2  0  0  0  0
  5  7  1  0  0  0  0
  2  3  1  0  0  0  0
  2  4  1  0  0  0  0
  2  5  1  0  0  0  0
  1  2  1  0  0  0  0
 22 23  2  0  0  0  0
 22 24  1  0  0  0  0
 20 21  1  0  0  0  0
 19 20  1  0  0  0  0
 17 18  1  0  0  0  0
 17 19  2  0  0  0  0
 15 16  1  0  0  0  0
 15 17  1  0  0  0  0
 14 15  1  0  0  0  0
 14 20  2  0  0  0  0
 11 12  1  0  0  0  0
 11 13  1  0  0  0  0
 11 14  1  0  0  0  0
  9 10  1  0  0  0  0
  9 11  1  0  0  0  0
  9 22  1  0  0  0  0
  7  8  1  0  0  0  0
  7  9  1  0  0  0  0
 26 27  1  0  0  0  0
 26 28  1  0  0  0  0
 26 29  1  0  0  0  0
 24 25  1  0  0  0  0
 24 26  1  0  0  0  0
M  END
$$$$
default_name
  -OEChem-01062215323D

 29 29  0     1  0  0  0  0  0999 V2000
   -3.6042   -3.5728    1.4576 H   0  0  0  0  0  0  0  0  0  0  0  0
   -3.5202   -2.6488    0.8866 C   0  0  0  0  0  0  0  0  0  0  0  0
   -4.2052   -1.9048    1.2896 H   0  0  0  0  0  0  0  0  0  0  0  0
   -3.7552   -2.8428   -0.1584 H   0  0  0  0  0  0  0  0  0  0  0  0
   -2.1052   -2.1358    0.9946 C   0  0  0  0  0  0  0  0  0  0  0  0
   -1.2852   -2.7288    1.6826 O   0  0  0  0  0  0  0  0  0  0  0  0
   -1.8202   -1.0288    0.3146 N   0  0  0  0  0  0  0  0  0  0  0  0
   -2.5542   -0.5788   -0.2104 H   0  0  0  0  0  0  0  0  0  0  0  0
   -0.5102   -0.3728    0.3086 C   0  0  1  0  0  0  0  0  0  0  0  0
   -0.4673    0.3143   -0.5378 H   0  0  0  0  0  0  0  0  0  0  0  0
   -0.3513    0.4494    1.6009 C   0  0  0  0  0  0  0  0  0  0  0  0
   -0.4753   -0.2102    2.4615 H   0  0  0  0  0  0  0  0  0  0  0  0
    0.6583    0.8627    1.6376 H   0  0  0  0  0  0  0  0  0  0  0  0
   -1.3365    1.5831    1.7200 C   0  0  0  0  0  0  0  0  0  0  0  0
   -1.2944    2.7763    1.0312 N   0  0  0  0  0  0  0  0  0  0  0  0
   -0.5571    3.0808    0.4131 H   0  0  0  0  0  0  0  0  0  0  0  0
   -2.4063    3.4686    1.3307 C   0  0  0  0  0  0  0  0  0  0  0  0
   -2.6552    4.4502    0.9463 H   0  0  0  0  0  0  0  0  0  0  0  0
   -3.1756    2.7682    2.1769 N   0  0  0  0  0  0  0  0  0  0  0  0
   -2.5044    1.5701    2.4350 C   0  0  0  0  0  0  0  0  0  0  0  0
   -2.8598    0.7602    3.0588 H   0  0  0  0  0  0  0  0  0  0  0  0
    0.6171   -1.4046    0.1345 C   0  0  0  0  0  0  0  0  0  0  0  0
    1.7301   -1.1922    0.6148 O   0  0  0  0  0  0  0  0  0  0  0  0
    0.3364   -2.5111   -0.5651 N   0  0  0  0  0  0  0  0  0  0  0  0
   -0.5838   -2.5868   -0.9732 H   0  0  0  0  0  0  0  0  0  0  0  0
    1.2871   -3.5905   -0.8187 C   0  0  0  0  0  0  0  0  0  0  0  0
    1.6284   -4.0123    0.1293 H   0  0  0  0  0  0  0  0  0  0  0  0
    0.8146   -4.3747   -1.4108 H   0  0  0  0  0  0  0  0  0  0  0  0
    2.1525   -3.2033   -1.3588 H   0  0  0  0  0  0  0  0  0  0  0  0
  5  6  2  0  0  0  0
  5  7  1  0  0  0  0
  2  3  1  0  0  0  0
  2  4  1  0  0  0  0
  2  5  1  0  0  0  0
  1  2  1  0  0  0  0
 22 23  2  0  0  0  0
 22 24  1  0  0  0  0
 20 21  1  0  0  0  0
 19 20  1  0  0  0  0
 17 18  1  0  0  0  0
 17 19  2  0  0  0  0
 15 16  1  0  0  0  0
 15 17  1  0  0  0  0
 14 15  1  0  0  0  0
 14 20  2  0  0  0  0
 11 12  1  0  0  0  0
 11 13  1  0  0  0  0
 11 14  1  0  0  0  0
  9 10  1  0  0  0  0
  9 11  1  0  0  0  0
  9 22  1  0  0  0  0
  7  8  1  0  0  0  0
  7  9  1  0  0  0  0
 26 27  1  0  0  0  0
 26 28  1  0  0  0  0
 26 29  1  0  0  0  0
 24 25  1  0  0  0  0
 24 26  1  0  0  0  0
M  END
$$$$
default_name
  -OEChem-01062215323D

 29 29  0     1  0  0  0  0  0999 V2000
   -3.6042   -3.5728    1.4576 H   0  0  0  0  0  0  0  0  0  0  0  0
   -3.5202   -2.6488    0.8866 C   0  0  0  0  0  0  0  0  0  0  0  0
   -4.2052   -1.9048    1.2896 H   0  0  0  0  0  0  0  0  0  0  0  0
   -3.7552   -2.8428   -0.1584 H   0  0  0  0  0  0  0  0  0  0  0  0
   -2.1052   -2.1358    0.9946 C   0  0  0  0  0  0  0  0  0  0  0  0
   -1.2852   -2.7288    1.6826 O   0  0  0  0  0  0  0  0  0  0  0  0
   -1.8202   -1.0288    0.3146 N   0  0  0  0  0  0  0  0  0  0  0  0
   -2.5542   -0.5788   -0.2104 H   0  0  0  0  0  0  0  0  0  0  0  0
   -0.5102   -0.3728    0.3086 C   0  0  1  0  0  0  0  0  0  0  0  0
   -0.4673    0.3143   -0.5378 H   0  0  0  0  0  0  0  0  0  0  0  0
   -0.3513    0.4494    1.6009 C   0  0  0  0  0  0  0  0  0  0  0  0
   -0.4753   -0.2102    2.4615 H   0  0  0  0  0  0  0  0  0  0  0  0
    0.6583    0.8627    1.6376 H   0  0  0  0  0  0  0  0  0  0  0  0
   -1.3365    1.5831    1.7200 C   0  0  0  0  0  0  0  0  0  0  0  0
   -1.2944    2.7763    1.0312 N   0  0  0  0  0  0  0  0  0  0  0  0
   -0.5571    3.0808    0.4131 H   0  0  0  0  0  0  0  0  0  0  0  0
   -2.4063    3.4686    1.3307 C   0  0  0  0  0  0  0  0  0  0  0  0
   -2.6552    4.4502    0.9463 H   0  0  0  0  0  0  0  0  0  0  0  0
   -3.1756    2.7682    2.1769 N   0  0  0  0  0  0  0  0  0  0  0  0
   -2.5044    1.5701    2.4350 C   0  0  0  0  0  0  0  0  0  0  0  0
   -2.8598    0.7602    3.0588 H   0  0  0  0  0  0  0  0  0  0  0  0
    0.6171   -1.4046    0.1345 C   0  0  0  0  0  0  0  0  0  0  0  0
    1.6305   -1.3373    0.8296 O   0  0  0  0  0  0  0  0  0  0  0  0
    0.4504   -2.3465   -0.8023 N   0  0  0  0  0  0  0  0  0  0  0  0
   -0.3842   -2.3021   -1.3683 H   0  0  0  0  0  0  0  0  0  0  0  0
    1.4173   -3.4020   -1.0924 C   0  0  0  0  0  0  0  0  0  0  0  0
    1.5807   -4.0091   -0.1991 H   0  0  0  0  0  0  0  0  0  0  0  0
    1.0470   -4.0390   -1.8962 H   0  0  0  0  0  0  0  0  0  0  0  0
    2.3692   -2.9609   -1.3921 H   0  0  0  0  0  0  0  0  0  0  0  0
  5  6  2  0  0  0  0
  5  7  1  0  0  0  0
  2  3  1  0  0  0  0
  2  4  1  0  0  0  0
  2  5  1  0  0  0  0
  1  2  1  0  0  0  0
 22 23  2  0  0  0  0
 22 24  1  0  0  0  0
 20 21  1  0  0  0  0
 19 20  1  0  0  0  0
 17 18  1  0  0  0  0
 17 19  2  0  0  0  0
 15 16  1  0  0  0  0
 15 17  1  0  0  0  0
 14 15  1  0  0  0  0
 14 20  2  0  0  0  0
 11 12  1  0  0  0  0
 11 13  1  0  0  0  0
 11 14  1  0  0  0  0
  9 10  1  0  0  0  0
  9 11  1  0  0  0  0
  9 22  1  0  0  0  0
  7  8  1  0  0  0  0
  7  9  1  0  0  0  0
 26 27  1  0  0  0  0
 26 28  1  0  0  0  0
 26 29  1  0  0  0  0
 24 25  1  0  0  0  0
 24 26  1  0  0  0  0
M  END
$$$$
default_name
  -OEChem-01062215323D

 29 29  0     1  0  0  0  0  0999 V2000
   -3.6042   -3.5728    1.4576 H   0  0  0  0  0  0  0  0  0  0  0  0
   -3.5202   -2.6488    0.8866 C   0  0  0  0  0  0  0  0  0  0  0  0
   -4.2052   -1.9048    1.2896 H   0  0  0  0  0  0  0  0  0  0  0  0
   -3.7552   -2.8428   -0.1584 H   0  0  0  0  0  0  0  0  0  0  0  0
   -2.1052   -2.1358    0.9946 C   0  0  0  0  0  0  0  0  0  0  0  0
   -1.2852   -2.7288    1.6826 O   0  0  0  0  0  0  0  0  0  0  0  0
   -1.8202   -1.0288    0.3146 N   0  0  0  0  0  0  0  0  0  0  0  0
   -2.5542   -0.5788   -0.2104 H   0  0  0  0  0  0  0  0  0  0  0  0
   -0.5102   -0.3728    0.3086 C   0  0  1  0  0  0  0  0  0  0  0  0
   -0.4673    0.3143   -0.5378 H   0  0  0  0  0  0  0  0  0  0  0  0
   -0.3513    0.4494    1.6009 C   0  0  0  0  0  0  0  0  0  0  0  0
   -0.4753   -0.2102    2.4615 H   0  0  0  0  0  0  0  0  0  0  0  0
    0.6583    0.8627    1.6376 H   0  0  0  0  0  0  0  0  0  0  0  0
   -1.3365    1.5831    1.7200 C   0  0  0  0  0  0  0  0  0  0  0  0
   -1.2944    2.7763    1.0312 N   0  0  0  0  0  0  0  0  0  0  0  0
   -0.5571    3.0808    0.4131 H   0  0  0  0  0  0  0  0  0  0  0  0
   -2.4063    3.4686    1.3307 C   0  0  0  0  0  0  0  0  0  0  0  0
   -2.6552    4.4502    0.9463 H   0  0  0  0  0  0  0  0  0  0  0  0
   -3.1756    2.7682    2.1769 N   0  0  0  0  0  0  0  0  0  0  0  0
   -2.5044    1.5701    2.4350 C   0  0  0  0  0  0  0  0  0  0  0  0
   -2.8598    0.7602    3.0588 H   0  0  0  0  0  0  0  0  0  0  0  0
    0.6171   -1.4046    0.1345 C   0  0  0  0  0  0  0  0  0  0  0  0
    1.4927   -1.5153    0.9923 O   0  0  0  0  0  0  0  0  0  0  0  0
    0.6065   -2.1459   -0.9803 N   0  0  0  0  0  0  0  0  0  0  0  0
   -0.1145   -1.9580   -1.6614 H   0  0  0  0  0  0  0  0  0  0  0  0
    1.5961   -3.1719   -1.2985 C   0  0  0  0  0  0  0  0  0  0  0  0
    1.5917   -3.9422   -0.5241 H   0  0  0  0  0  0  0  0  0  0  0  0
    1.3655   -3.6295   -2.2610 H   0  0  0  0  0  0  0  0  0  0  0  0
    2.5915   -2.7268   -1.3407 H   0  0  0  0  0  0  0  0  0  0  0  0
  5  6  2  0  0  0  0
  5  7  1  0  0  0  0
  2  3  1  0  0  0  0
  2  4  1  0  0  0  0
  2  5  1  0  0  0  0
  1  2  1  0  0  0  0
 22 23  2  0  0  0  0
 22 24  1  0  0  0  0
 20 21  1  0  0  0  0
 19 20  1  0  0  0  0
 17 18  1  0  0  0  0
 17 19  2  0  0  0  0
 15 16  1  0  0  0  0
 15 17  1  0  0  0  0
 14 15  1  0  0  0  0
 14 20  2  0  0  0  0
 11 12  1  0  0  0  0
 11 13  1  0  0  0  0
 11 14  1  0  0  0  0
  9 10  1  0  0  0  0
  9 11  1  0  0  0  0
  9 22  1  0  0  0  0
  7  8  1  0  0  0  0
  7  9  1  0  0  0  0
 26 27  1  0  0  0  0
 26 28  1  0  0  0  0
 26 29  1  0  0  0  0
 24 25  1  0  0  0  0
 24 26  1  0  0  0  0
M  END
$$$$
default_name
  -OEChem-01062215323D

 29 29  0     1  0  0  0  0  0999 V2000
   -3.6042   -3.5728    1.4576 H   0  0  0  0  0  0  0  0  0  0  0  0
   -3.5202   -2.6488    0.8866 C   0  0  0  0  0  0  0  0  0  0  0  0
   -4.2052   -1.9048    1.2896 H   0  0  0  0  0  0  0  0  0  0  0  0
   -3.7552   -2.8428   -0.1584 H   0  0  0  0  0  0  0  0  0  0  0  0
   -2.1052   -2.1358    0.9946 C   0  0  0  0  0  0  0  0  0  0  0  0
   -1.2852   -2.7288    1.6826 O   0  0  0  0  0  0  0  0  0  0  0  0
   -1.8202   -1.0288    0.3146 N   0  0  0  0  0  0  0  0  0  0  0  0
   -2.5542   -0.5788   -0.2104 H   0  0  0  0  0  0  0  0  0  0  0  0
   -0.5102   -0.3728    0.3086 C   0  0  1  0  0  0  0  0  0  0  0  0
   -0.4673    0.3143   -0.5378 H   0  0  0  0  0  0  0  0  0  0  0  0
   -0.3513    0.4494    1.6009 C   0  0  0  0  0  0  0  0  0  0  0  0
   -0.4753   -0.2102    2.4615 H   0  0  0  0  0  0  0  0  0  0  0  0
    0.6583    0.8627    1.6376 H   0  0  0  0  0  0  0  0  0  0  0  0
   -1.3365    1.5831    1.7200 C   0  0  0  0  0  0  0  0  0  0  0  0
   -1.2944    2.7763    1.0312 N   0  0  0  0  0  0  0  0  0  0  0  0
   -0.5571    3.0808    0.4131 H   0  0  0  0  0  0  0  0  0  0  0  0
   -2.4063    3.4686    1.3307 C   0  0  0  0  0  0  0  0  0  0  0  0
   -2.6552    4.4502    0.9463 H   0  0  0  0  0  0  0  0  0  0  0  0
   -3.1756    2.7682    2.1769 N   0  0  0  0  0  0  0  0  0  0  0  0
   -2.5044    1.5701    2.4350 C   0  0  0  0  0  0  0  0  0  0  0  0
   -2.8598    0.7602    3.0588 H   0  0  0  0  0  0  0  0  0  0  0  0
    0.6171   -1.4046    0.1345 C   0  0  0  0  0  0  0  0  0  0  0  0
    1.3261   -1.7140    1.0917 O   0  0  0  0  0  0  0  0  0  0  0  0
    0.7941   -1.9230   -1.0872 N   0  0  0  0  0  0  0  0  0  0  0  0
    0.2070   -1.5779   -1.8323 H   0  0  0  0  0  0  0  0  0  0  0  0
    1.8114   -2.9157   -1.4229 C   0  0  0  0  0  0  0  0  0  0  0  0
    1.6607   -3.8163   -0.8234 H   0  0  0  0  0  0  0  0  0  0  0  0
    1.7485   -3.1741   -2.4803 H   0  0  0  0  0  0  0  0  0  0  0  0
    2.8040   -2.5169   -1.2081 H   0  0  0  0  0  0  0  0  0  0  0  0
  5  6  2  0  0  0  0
  5  7  1  0  0  0  0
  2  3  1  0  0  0  0
  2  4  1  0  0  0  0
  2  5  1  0  0  0  0
  1  2  1  0  0  0  0
 22 23  2  0  0  0  0
 22 24  1  0  0  0  0
 20 21  1  0  0  0  0
 19 20  1  0  0  0  0
 17 18  1  0  0  0  0
 17 19  2  0  0  0  0
 15 16  1  0  0  0  0
 15 17  1  0  0  0  0
 14 15  1  0  0  0  0
 14 20  2  0  0  0  0
 11 12  1  0  0  0  0
 11 13  1  0  0  0  0
 11 14  1  0  0  0  0
  9 10  1  0  0  0  0
  9 11  1  0  0  0  0
  9 22  1  0  0  0  0
  7  8  1  0  0  0  0
  7  9  1  0  0  0  0
 26 27  1  0  0  0  0
 26 28  1  0  0  0  0
 26 29  1  0  0  0  0
 24 25  1  0  0  0  0
 24 26  1  0  0  0  0
M  END
$$$$
default_name
  -OEChem-01062215323D

 29 29  0     1  0  0  0  0  0999 V2000
   -3.6042   -3.5728    1.4576 H   0  0  0  0  0  0  0  0  0  0  0  0
   -3.5202   -2.6488    0.8866 C   0  0  0  0  0  0  0  0  0  0  0  0
   -4.2052   -1.9048    1.2896 H   0  0  0  0  0  0  0  0  0  0  0  0
   -3.7552   -2.8428   -0.1584 H   0  0  0  0  0  0  0  0  0  0  0  0
   -2.1052   -2.1358    0.9946 C   0  0  0  0  0  0  0  0  0  0  0  0
   -1.2852   -2.7288    1.6826 O   0  0  0  0  0  0  0  0  0  0  0  0
   -1.8202   -1.0288    0.3146 N   0  0  0  0  0  0  0  0  0  0  0  0
   -2.5542   -0.5788   -0.2104 H   0  0  0  0  0  0  0  0  0  0  0  0
   -0.5102   -0.3728    0.3086 C   0  0  1  0  0  0  0  0  0  0  0  0
   -0.4673    0.3143   -0.5378 H   0  0  0  0  0  0  0  0  0  0  0  0
   -0.3513    0.4494    1.6009 C   0  0  0  0  0  0  0  0  0  0  0  0
   -0.4753   -0.2102    2.4615 H   0  0  0  0  0  0  0  0  0  0  0  0
    0.6583    0.8627    1.6376 H   0  0  0  0  0  0  0  0  0  0  0  0
   -1.3365    1.5831    1.7200 C   0  0  0  0  0  0  0  0  0  0  0  0
   -1.2944    2.7763    1.0312 N   0  0  0  0  0  0  0  0  0  0  0  0
   -0.5571    3.0808    0.4131 H   0  0  0  0  0  0  0  0  0  0  0  0
   -2.4063    3.4686    1.3307 C   0  0  0  0  0  0  0  0  0  0  0  0
   -2.6552    4.4502    0.9463 H   0  0  0  0  0  0  0  0  0  0  0  0
   -3.1756    2.7682    2.1769 N   0  0  0  0  0  0  0  0  0  0  0  0
   -2.5044    1.5701    2.4350 C   0  0  0  0  0  0  0  0  0  0  0  0
   -2.8598    0.7602    3.0588 H   0  0  0  0  0  0  0  0  0  0  0  0
    0.6171   -1.4046    0.1345 C   0  0  0  0  0  0  0  0  0  0  0  0
    1.1422   -1.9200    1.1211 O   0  0  0  0  0  0  0  0  0  0  0  0
    1.0004   -1.6928   -1.1155 N   0  0  0  0  0  0  0  0  0  0  0  0
    0.5583   -1.1878   -1.8695 H   0  0  0  0  0  0  0  0  0  0  0  0
    2.0484   -2.6510   -1.4570 C   0  0  0  0  0  0  0  0  0  0  0  0
    1.7830   -3.6400   -1.0766 H   0  0  0  0  0  0  0  0  0  0  0  0
    2.1699   -2.7038   -2.5394 H   0  0  0  0  0  0  0  0  0  0  0  0
    2.9925   -2.3456   -1.0032 H   0  0  0  0  0  0  0  0  0  0  0  0
  5  6  2  0  0  0  0
  5  7  1  0  0  0  0
  2  3  1  0  0  0  0
  2  4  1  0  0  0  0
  2  5  1  0  0  0  0
  1  2  1  0  0  0  0
 22 23  2  0  0  0  0
 22 24  1  0  0  0  0
 20 21  1  0  0  0  0
 19 20  1  0  0  0  0
 17 18  1  0  0  0  0
 17 19  2  0  0  0  0
 15 16  1  0  0  0  0
 15 17  1  0  0  0  0
 14 15  1  0  0  0  0
 14 20  2  0  0  0  0
 11 12  1  0  0  0  0
 11 13  1  0  0  0  0
 11 14  1  0  0  0  0
  9 10  1  0  0  0  0
  9 11  1  0  0  0  0
  9 22  1  0  0  0  0
  7  8  1  0  0  0  0
  7  9  1  0  0  0  0
 26 27  1  0  0  0  0
 26 28  1  0  0  0  0
 26 29  1  0  0  0  0
 24 25  1  0  0  0  0
 24 26  1  0  0  0  0
M  END
$$$$
default_name
  -OEChem-01062215323D

 29 29  0     1  0  0  0  0  0999 V2000
   -3.6042   -3.5728    1.4576 H   0  0  0  0  0  0  0  0  0  0  0  0
   -3.5202   -2.6488    0.8866 C   0  0  0  0  0  0  0  0  0  0  0  0
   -4.2052   -1.9048    1.2896 H   0  0  0  0  0  0  0  0  0  0  0  0
   -3.7552   -2.8428   -0.1584 H   0  0  0  0  0  0  0  0  0  0  0  0
   -2.1052   -2.1358    0.9946 C   0  0  0  0  0  0  0  0  0  0  0  0
   -1.2852   -2.7288    1.6826 O   0  0  0  0  0  0  0  0  0  0  0  0
   -1.8202   -1.0288    0.3146 N   0  0  0  0  0  0  0  0  0  0  0  0
   -2.5542   -0.5788   -0.2104 H   0  0  0  0  0  0  0  0  0  0  0  0
   -0.5102   -0.3728    0.3086 C   0  0  1  0  0  0  0  0  0  0  0  0
   -0.4673    0.3143   -0.5378 H   0  0  0  0  0  0  0  0  0  0  0  0
   -0.3513    0.4494    1.6009 C   0  0  0  0  0  0  0  0  0  0  0  0
   -0.4753   -0.2102    2.4615 H   0  0  0  0  0  0  0  0  0  0  0  0
    0.6583    0.8627    1.6376 H   0  0  0  0  0  0  0  0  0  0  0  0
   -1.3365    1.5831    1.7200 C   0  0  0  0  0  0  0  0  0  0  0  0
   -1.2944    2.7763    1.0312 N   0  0  0  0  0  0  0  0  0  0  0  0
   -0.5571    3.0808    0.4131 H   0  0  0  0  0  0  0  0  0  0  0  0
   -2.4063    3.4686    1.3307 C   0  0  0  0  0  0  0  0  0  0  0  0
   -2.6552    4.4502    0.9463 H   0  0  0  0  0  0  0  0  0  0  0  0
   -3.1756    2.7682    2.1769 N   0  0  0  0  0  0  0  0  0  0  0  0
   -2.5044    1.5701    2.4350 C   0  0  0  0  0  0  0  0  0  0  0  0
   -2.8598    0.7602    3.0588 H   0  0  0  0  0  0  0  0  0  0  0  0
    0.6171   -1.4046    0.1345 C   0  0  0  0  0  0  0  0  0  0  0  0
    0.9533   -2.1191    1.0785 O   0  0  0  0  0  0  0  0  0  0  0  0
    1.2113   -1.4712   -1.0634 N   0  0  0  0  0  0  0  0  0  0  0  0
    0.9156   -0.8142   -1.7704 H   0  0  0  0  0  0  0  0  0  0  0  0
    2.2911   -2.3958   -1.3987 C   0  0  0  0  0  0  0  0  0  0  0  0
    1.9503   -3.4252   -1.2665 H   0  0  0  0  0  0  0  0  0  0  0  0
    2.6009   -2.2507   -2.4340 H   0  0  0  0  0  0  0  0  0  0  0  0
    3.1440   -2.2244   -0.7401 H   0  0  0  0  0  0  0  0  0  0  0  0
  5  6  2  0  0  0  0
  5  7  1  0  0  0  0
  2  3  1  0  0  0  0
  2  4  1  0  0  0  0
  2  5  1  0  0  0  0
  1  2  1  0  0  0  0
 22 23  2  0  0  0  0
 22 24  1  0  0  0  0
 20 21  1  0  0  0  0
 19 20  1  0  0  0  0
 17 18  1  0  0  0  0
 17 19  2  0  0  0  0
 15 16  1  0  0  0  0
 15 17  1  0  0  0  0
 14 15  1  0  0  0  0
 14 20  2  0  0  0  0
 11 12  1  0  0  0  0
 11 13  1  0  0  0  0
 11 14  1  0  0  0  0
  9 10  1  0  0  0  0
  9 11  1  0  0  0  0
  9 22  1  0  0  0  0
  7  8  1  0  0  0  0
  7  9  1  0  0  0  0
 26 27  1  0  0  0  0
 26 28  1  0  0  0  0
 26 29  1  0  0  0  0
 24 25  1  0  0  0  0
 24 26  1  0  0  0  0
M  END
$$$$
default_name
  -OEChem-01062215323D

 29 29  0     1  0  0  0  0  0999 V2000
   -3.6042   -3.5728    1.4576 H   0  0  0  0  0  0  0  0  0  0  0  0
   -3.5202   -2.6488    0.8866 C   0  0  0  0  0  0  0  0  0  0  0  0
   -4.2052   -1.9048    1.2896 H   0  0  0  0  0  0  0  0  0  0  0  0
   -3.7552   -2.8428   -0.1584 H   0  0  0  0  0  0  0  0  0  0  0  0
   -2.1052   -2.1358    0.9946 C   0  0  0  0  0  0  0  0  0  0  0  0
   -1.2852   -2.7288    1.6826 O   0  0  0  0  0  0  0  0  0  0  0  0
   -1.8202   -1.0288    0.3146 N   0  0  0  0  0  0  0  0  0  0  0  0
   -2.5542   -0.5788   -0.2104 H   0  0  0  0  0  0  0  0  0  0  0  0
   -0.5102   -0.3728    0.3086 C   0  0  1  0  0  0  0  0  0  0  0  0
   -0.4673    0.3143   -0.5378 H   0  0  0  0  0  0  0  0  0  0  0  0
   -0.3513    0.4494    1.6009 C   0  0  0  0  0  0  0  0  0  0  0  0
   -0.4753   -0.2102    2.4615 H   0  0  0  0  0  0  0  0  0  0  0  0
    0.6583    0.8627    1.6376 H   0  0  0  0  0  0  0  0  0  0  0  0
   -1.3365    1.5831    1.7200 C   0  0  0  0  0  0  0  0  0  0  0  0
   -1.2944    2.7763    1.0312 N   0  0  0  0  0  0  0  0  0  0  0  0
   -0.5571    3.0808    0.4131 H   0  0  0  0  0  0  0  0  0  0  0  0
   -2.4063    3.4686    1.3307 C   0  0  0  0  0  0  0  0  0  0  0  0
   -2.6552    4.4502    0.9463 H   0  0  0  0  0  0  0  0  0  0  0  0
   -3.1756    2.7682    2.1769 N   0  0  0  0  0  0  0  0  0  0  0  0
   -2.5044    1.5701    2.4350 C   0  0  0  0  0  0  0  0  0  0  0  0
   -2.8598    0.7602    3.0588 H   0  0  0  0  0  0  0  0  0  0  0  0
    0.6171   -1.4046    0.1345 C   0  0  0  0  0  0  0  0  0  0  0  0
    0.7725   -2.2978    0.9669 O   0  0  0  0  0  0  0  0  0  0  0  0
    1.4125   -1.2732   -0.9344 N   0  0  0  0  0  0  0  0  0  0  0  0
    1.2544   -0.4826   -1.5418 H   0  0  0  0  0  0  0  0  0  0  0  0
    2.5228   -2.1674   -1.2517 C   0  0  0  0  0  0  0  0  0  0  0  0
    2.1512   -3.1866   -1.3801 H   0  0  0  0  0  0  0  0  0  0  0  0
    3.0122   -1.8456   -2.1714 H   0  0  0  0  0  0  0  0  0  0  0  0
    3.2482   -2.1618   -0.4367 H   0  0  0  0  0  0  0  0  0  0  0  0
  5  6  2  0  0  0  0
  5  7  1  0  0  0  0
  2  3  1  0  0  0  0
  2  4  1  0  0  0  0
  2  5  1  0  0  0  0
  1  2  1  0  0  0  0
 22 23  2  0  0  0  0
 22 24  1  0  0  0  0
 20 21  1  0  0  0  0
 19 20  1  0  0  0  0
 17 18  1  0  0  0  0
 17 19  2  0  0  0  0
 15 16  1  0  0  0  0
 15 17  1  0  0  0  0
 14 15  1  0  0  0  0
 14 20  2  0  0  0  0
 11 12  1  0  0  0  0
 11 13  1  0  0  0  0
 11 14  1  0  0  0  0
  9 10  1  0  0  0  0
  9 11  1  0  0  0  0
  9 22  1  0  0  0  0
  7  8  1  0  0  0  0
  7  9  1  0  0  0  0
 26 27  1  0  0  0  0
 26 28  1  0  0  0  0
 26 29  1  0  0  0  0
 24 25  1  0  0  0  0
 24 26  1  0  0  0  0
M  END
$$$$
default_name
  -OEChem-01062215323D

 29 29  0     1  0  0  0  0  0999 V2000
   -3.6042   -3.5728    1.4576 H   0  0  0  0  0  0  0  0  0  0  0  0
   -3.5202   -2.6488    0.8866 C   0  0  0  0  0  0  0  0  0  0  0  0
   -4.2052   -1.9048    1.2896 H   0  0  0  0  0  0  0  0  0  0  0  0
   -3.7552   -2.8428   -0.1584 H   0  0  0  0  0  0  0  0  0  0  0  0
   -2.1052   -2.1358    0.9946 C   0  0  0  0  0  0  0  0  0  0  0  0
   -1.2852   -2.7288    1.6826 O   0  0  0  0  0  0  0  0  0  0  0  0
   -1.8202   -1.0288    0.3146 N   0  0  0  0  0  0  0  0  0  0  0  0
   -2.5542   -0.5788   -0.2104 H   0  0  0  0  0  0  0  0  0  0  0  0
   -0.5102   -0.3728    0.3086 C   0  0  1  0  0  0  0  0  0  0  0  0
   -0.4673    0.3143   -0.5378 H   0  0  0  0  0  0  0  0  0  0  0  0
   -0.3513    0.4494    1.6009 C   0  0  0  0  0  0  0  0  0  0  0  0
   -0.4753   -0.2102    2.4615 H   0  0  0  0  0  0  0  0  0  0  0  0
    0.6583    0.8627    1.6376 H   0  0  0  0  0  0  0  0  0  0  0  0
   -1.3365    1.5831    1.7200 C   0  0  0  0  0  0  0  0  0  0  0  0
   -1.2944    2.7763    1.0312 N   0  0  0  0  0  0  0  0  0  0  0  0
   -0.5571    3.0808    0.4131 H   0  0  0  0  0  0  0  0  0  0  0  0
   -2.4063    3.4686    1.3307 C   0  0  0  0  0  0  0  0  0  0  0  0
   -2.6552    4.4502    0.9463 H   0  0  0  0  0  0  0  0  0  0  0  0
   -3.1756    2.7682    2.1769 N   0  0  0  0  0  0  0  0  0  0  0  0
   -2.5044    1.5701    2.4350 C   0  0  0  0  0  0  0  0  0  0  0  0
   -2.8598    0.7602    3.0588 H   0  0  0  0  0  0  0  0  0  0  0  0
    0.6171   -1.4046    0.1345 C   0  0  0  0  0  0  0  0  0  0  0  0
    0.6120   -2.4440    0.7937 O   0  0  0  0  0  0  0  0  0  0  0  0
    1.5902   -1.1123   -0.7373 N   0  0  0  0  0  0  0  0  0  0  0  0
    1.5518   -0.2156   -1.1993 H   0  0  0  0  0  0  0  0  0  0  0  0
    2.7278   -1.9815   -1.0263 C   0  0  0  0  0  0  0  0  0  0  0  0
    2.3719   -2.9404   -1.4098 H   0  0  0  0  0  0  0  0  0  0  0  0
    3.3758   -1.5162   -1.7695 H   0  0  0  0  0  0  0  0  0  0  0  0
    3.2980   -2.1619   -0.1137 H   0  0  0  0  0  0  0  0  0  0  0  0
  5  6  2  0  0  0  0
  5  7  1  0  0  0  0
  2  3  1  0  0  0  0
  2  4  1  0  0  0  0
  2  5  1  0  0  0  0
  1  2  1  0  0  0  0
 22 23  2  0  0  0  0
 22 24  1  0  0  0  0
 20 21  1  0  0  0  0
 19 20  1  0  0  0  0
 17 18  1  0  0  0  0
 17 19  2  0  0  0  0
 15 16  1  0  0  0  0
 15 17  1  0  0  0  0
 14 15  1  0  0  0  0
 14 20  2  0  0  0  0
 11 12  1  0  0  0  0
 11 13  1  0  0  0  0
 11 14  1  0  0  0  0
  9 10  1  0  0  0  0
  9 11  1  0  0  0  0
  9 22  1  0  0  0  0
  7  8  1  0  0  0  0
  7  9  1  0  0  0  0
 26 27  1  0  0  0  0
 26 28  1  0  0  0  0
 26 29  1  0  0  0  0
 24 25  1  0  0  0  0
 24 26  1  0  0  0  0
M  END
$$$$
default_name
  -OEChem-01062215323D

 29 29  0     1  0  0  0  0  0999 V2000
   -3.6042   -3.5728    1.4576 H   0  0  0  0  0  0  0  0  0  0  0  0
   -3.5202   -2.6488    0.8866 C   0  0  0  0  0  0  0  0  0  0  0  0
   -4.2052   -1.9048    1.2896 H   0  0  0  0  0  0  0  0  0  0  0  0
   -3.7552   -2.8428   -0.1584 H   0  0  0  0  0  0  0  0  0  0  0  0
   -2.1052   -2.1358    0.9946 C   0  0  0  0  0  0  0  0  0  0  0  0
   -1.2852   -2.7288    1.6826 O   0  0  0  0  0  0  0  0  0  0  0  0
   -1.8202   -1.0288    0.3146 N   0  0  0  0  0  0  0  0  0  0  0  0
   -2.5542   -0.5788   -0.2104 H   0  0  0  0  0  0  0  0  0  0  0  0
   -0.5102   -0.3728    0.3086 C   0  0  1  0  0  0  0  0  0  0  0  0
   -0.4673    0.3143   -0.5378 H   0  0  0  0  0  0  0  0  0  0  0  0
   -0.3513    0.4494    1.6009 C   0  0  0  0  0  0  0  0  0  0  0  0
   -0.4753   -0.2102    2.4615 H   0  0  0  0  0  0  0  0  0  0  0  0
    0.6583    0.8627    1.6376 H   0  0  0  0  0  0  0  0  0  0  0  0
   -1.3365    1.5831    1.7200 C   0  0  0  0  0  0  0  0  0  0  0  0
   -1.2944    2.7763    1.0312 N   0  0  0  0  0  0  0  0  0  0  0  0
   -0.5571    3.0808    0.4131 H   0  0  0  0  0  0  0  0  0  0  0  0
   -2.4063    3.4686    1.3307 C   0  0  0  0  0  0  0  0  0  0  0  0
   -2.6552    4.4502    0.9463 H   0  0  0  0  0  0  0  0  0  0  0  0
   -3.1756    2.7682    2.1769 N   0  0  0  0  0  0  0  0  0  0  0  0
   -2.5044    1.5701    2.4350 C   0  0  0  0  0  0  0  0  0  0  0  0
   -2.8598    0.7602    3.0588 H   0  0  0  0  0  0  0  0  0  0  0  0
    0.6171   -1.4046    0.1345 C   0  0  0  0  0  0  0  0  0  0  0  0
    0.4827   -2.5476    0.5708 O   0  0  0  0  0  0  0  0  0  0  0  0
    1.7323   -0.9995   -0.4855 N   0  0  0  0  0  0  0  0  0  0  0  0
    1.7873   -0.0314   -0.7662 H   0  0  0  0  0  0  0  0  0  0  0  0
    2.8921   -1.8507   -0.7376 C   0  0  0  0  0  0  0  0  0  0  0  0
    2.5975   -2.7035   -1.3534 H   0  0  0  0  0  0  0  0  0  0  0  0
    3.6669   -1.2849   -1.2557 H   0  0  0  0  0  0  0  0  0  0  0  0
    3.2900   -2.2247    0.2070 H   0  0  0  0  0  0  0  0  0  0  0  0
  5  6  2  0  0  0  0
  5  7  1  0  0  0  0
  2  3  1  0  0  0  0
  2  4  1  0  0  0  0
  2  5  1  0  0  0  0
  1  2  1  0  0  0  0
 22 23  2  0  0  0  0
 22 24  1  0  0  0  0
 20 21  1  0  0  0  0
 19 20  1  0  0  0  0
 17 18  1  0  0  0  0
 17 19  2  0  0  0  0
 15 16  1  0  0  0  0
 15 17  1  0  0  0  0
 14 15  1  0  0  0  0
 14 20  2  0  0  0  0
 11 12  1  0  0  0  0
 11 13  1  0  0  0  0
 11 14  1  0  0  0  0
  9 10  1  0  0  0  0
  9 11  1  0  0  0  0
  9 22  1  0  0  0  0
  7  8  1  0  0  0  0
  7  9  1  0  0  0  0
 26 27  1  0  0  0  0
 26 28  1  0  0  0  0
 26 29  1  0  0  0  0
 24 25  1  0  0  0  0
 24 26  1  0  0  0  0
M  END
$$$$
default_name
  -OEChem-01062215323D

 29 29  0     1  0  0  0  0  0999 V2000
   -3.6042   -3.5728    1.4576 H   0  0  0  0  0  0  0  0  0  0  0  0
   -3.5202   -2.6488    0.8866 C   0  0  0  0  0  0  0  0  0  0  0  0
   -4.2052   -1.9048    1.2896 H   0  0  0  0  0  0  0  0  0  0  0  0
   -3.7552   -2.8428   -0.1584 H   0  0  0  0  0  0  0  0  0  0  0  0
   -2.1052   -2.1358    0.9946 C   0  0  0  0  0  0  0  0  0  0  0  0
   -1.2852   -2.7288    1.6826 O   0  0  0  0  0  0  0  0  0  0  0  0
   -1.8202   -1.0288    0.3146 N   0  0  0  0  0  0  0  0  0  0  0  0
   -2.5542   -0.5788   -0.2104 H   0  0  0  0  0  0  0  0  0  0  0  0
   -0.5102   -0.3728    0.3086 C   0  0  1  0  0  0  0  0  0  0  0  0
   -0.4673    0.3143   -0.5378 H   0  0  0  0  0  0  0  0  0  0  0  0
   -0.3513    0.4494    1.6009 C   0  0  0  0  0  0  0  0  0  0  0  0
   -0.4753   -0.2102    2.4615 H   0  0  0  0  0  0  0  0  0  0  0  0
    0.6583    0.8627    1.6376 H   0  0  0  0  0  0  0  0  0  0  0  0
   -1.3365    1.5831    1.7200 C   0  0  0  0  0  0  0  0  0  0  0  0
   -1.2944    2.7763    1.0312 N   0  0  0  0  0  0  0  0  0  0  0  0
   -0.5571    3.0808    0.4131 H   0  0  0  0  0  0  0  0  0  0  0  0
   -2.4063    3.4686    1.3307 C   0  0  0  0  0  0  0  0  0  0  0  0
   -2.6552    4.4502    0.9463 H   0  0  0  0  0  0  0  0  0  0  0  0
   -3.1756    2.7682    2.1769 N   0  0  0  0  0  0  0  0  0  0  0  0
   -2.5044    1.5701    2.4350 C   0  0  0  0  0  0  0  0  0  0  0  0
   -2.8598    0.7602    3.0588 H   0  0  0  0  0  0  0  0  0  0  0  0
    0.6171   -1.4046    0.1345 C   0  0  0  0  0  0  0  0  0  0  0  0
    0.3935   -2.6016    0.3134 O   0  0  0  0  0  0  0  0  0  0  0  0
    1.8292   -0.9424   -0.1963 N   0  0  0  0  0  0  0  0  0  0  0  0
    1.9450    0.0575   -0.2719 H   0  0  0  0  0  0  0  0  0  0  0  0
    3.0045   -1.7840   -0.4055 C   0  0  0  0  0  0  0  0  0  0  0  0
    2.8125   -2.4920   -1.2148 H   0  0  0  0  0  0  0  0  0  0  0  0
    3.8656   -1.1674   -0.6650 H   0  0  0  0  0  0  0  0  0  0  0  0
    3.2248   -2.3460    0.5034 H   0  0  0  0  0  0  0  0  0  0  0  0
  5  6  2  0  0  0  0
  5  7  1  0  0  0  0
  2  3  1  0  0  0  0
  2  4  1  0  0  0  0
  2  5  1  0  0  0  0
  1  2  1  0  0  0  0
 22 23  2  0  0  0  0
 22 24  1  0  0  0  0
 20 21  1  0  0  0  0
 19 20  1  0  0  0  0
 17 18  1  0  0  0  0
 17 19  2  0  0  0  0
 15 16  1  0  0  0  0
 15 17  1  0  0  0  0
 14 15  1  0  0  0  0
 14 20  2  0  0  0  0
 11 12  1  0  0  0  0
 11 13  1  0  0  0  0
 11 14  1  0  0  0  0
  9 10  1  0  0  0  0
  9 11  1  0  0  0  0
  9 22  1  0  0  0  0
  7  8  1  0  0  0  0
  7  9  1  0  0  0  0
 26 27  1  0  0  0  0
 26 28  1  0  0  0  0
 26 29  1  0  0  0  0
 24 25  1  0  0  0  0
 24 26  1  0  0  0  0
M  END
$$$$
default_name
  -OEChem-01062215323D

 29 29  0     1  0  0  0  0  0999 V2000
   -3.6042   -3.5728    1.4576 H   0  0  0  0  0  0  0  0  0  0  0  0
   -3.5202   -2.6488    0.8866 C   0  0  0  0  0  0  0  0  0  0  0  0
   -4.2052   -1.9048    1.2896 H   0  0  0  0  0  0  0  0  0  0  0  0
   -3.7552   -2.8428   -0.1584 H   0  0  0  0  0  0  0  0  0  0  0  0
   -2.1052   -2.1358    0.9946 C   0  0  0  0  0  0  0  0  0  0  0  0
   -1.2852   -2.7288    1.6826 O   0  0  0  0  0  0  0  0  0  0  0  0
   -1.8202   -1.0288    0.3146 N   0  0  0  0  0  0  0  0  0  0  0  0
   -2.5542   -0.5788   -0.2104 H   0  0  0  0  0  0  0  0  0  0  0  0
   -0.5102   -0.3728    0.3086 C   0  0  1  0  0  0  0  0  0  0  0  0
   -0.5555    0.4921   -0.3550 H   0  0  0  0  0  0  0  0  0  0  0  0
   -0.1907    0.1298    1.7286 C   0  0  0  0  0  0  0  0  0  0  0  0
   -0.2239   -0.7126    2.4217 H   0  0  0  0  0  0  0  0  0  0  0  0
    0.8223    0.5361    1.7426 H   0  0  0  0  0  0  0  0  0  0  0  0
   -1.1387    1.1927    2.2203 C   0  0  0  0  0  0  0  0  0  0  0  0
   -1.1591    2.5134    1.8261 N   0  0  0  0  0  0  0  0  0  0  0  0
   -0.4939    2.9619    1.2140 H   0  0  0  0  0  0  0  0  0  0  0  0
   -2.2186    3.1035    2.4046 C   0  0  0  0  0  0  0  0  0  0  0  0
   -2.4958    4.1442    2.2893 H   0  0  0  0  0  0  0  0  0  0  0  0
   -2.8949    2.2166    3.1491 N   0  0  0  0  0  0  0  0  0  0  0  0
   -2.2161    0.9999    3.0434 C   0  0  0  0  0  0  0  0  0  0  0  0
   -2.5087    0.0631    3.4997 H   0  0  0  0  0  0  0  0  0  0  0  0
    0.5740   -1.3220   -0.2291 C   0  0  0  0  0  0  0  0  0  0  0  0
    0.2806   -2.4684   -0.5675 O   0  0  0  0  0  0  0  0  0  0  0  0
    1.8267   -0.8536   -0.2915 N   0  0  0  0  0  0  0  0  0  0  0  0
    1.9962    0.0790    0.0555 H   0  0  0  0  0  0  0  0  0  0  0  0
    2.9704   -1.6188   -0.7810 C   0  0  0  0  0  0  0  0  0  0  0  0
    2.7978   -1.9193   -1.8169 H   0  0  0  0  0  0  0  0  0  0  0  0
    3.8761   -1.0138   -0.7291 H   0  0  0  0  0  0  0  0  0  0  0  0
    3.1022   -2.5170   -0.1756 H   0  0  0  0  0  0  0  0  0  0  0  0
  5  6  2  0  0  0  0
  5  7  1  0  0  0  0
  2  3  1  0  0  0  0
  2  4  1  0  0  0  0
  2  5  1  0  0  0  0
  1  2  1  0  0  0  0
 22 23  2  0  0  0  0
 22 24  1  0  0  0  0
 20 21  1  0  0  0  0
 19 20  1  0  0  0  0
 17 18  1  0  0  0  0
 17 19  2  0  0  0  0
 15 16  1  0  0  0  0
 15 17  1  0  0  0  0
 14 15  1  0  0  0  0
 14 20  2  0  0  0  0
 11 12  1  0  0  0  0
 11 13  1  0  0  0  0
 11 14  1  0  0  0  0
  9 10  1  0  0  0  0
  9 11  1  0  0  0  0
  9 22  1  0  0  0  0
  7  8  1  0  0  0  0
  7  9  1  0  0  0  0
 26 27  1  0  0  0  0
 26 28  1  0  0  0  0
 26 29  1  0  0  0  0
 24 25  1  0  0  0  0
 24 26  1  0  0  0  0
M  END
$$$$
default_name
  -OEChem-01062215323D

 29 29  0     1  0  0  0  0  0999 V2000
   -3.6042   -3.5728    1.4576 H   0  0  0  0  0  0  0  0  0  0  0  0
   -3.5202   -2.6488    0.8866 C   0  0  0  0  0  0  0  0  0  0  0  0
   -4.2052   -1.9048    1.2896 H   0  0  0  0  0  0  0  0  0  0  0  0
   -3.7552   -2.8428   -0.1584 H   0  0  0  0  0  0  0  0  0  0  0  0
   -2.1052   -2.1358    0.9946 C   0  0  0  0  0  0  0  0  0  0  0  0
   -1.2852   -2.7288    1.6826 O   0  0  0  0  0  0  0  0  0  0  0  0
   -1.8202   -1.0288    0.3146 N   0  0  0  0  0  0  0  0  0  0  0  0
   -2.5542   -0.5788   -0.2104 H   0  0  0  0  0  0  0  0  0  0  0  0
   -0.5102   -0.3728    0.3086 C   0  0  1  0  0  0  0  0  0  0  0  0
   -0.5555    0.4921   -0.3550 H   0  0  0  0  0  0  0  0  0  0  0  0
   -0.1907    0.1298    1.7286 C   0  0  0  0  0  0  0  0  0  0  0  0
   -0.2239   -0.7126    2.4217 H   0  0  0  0  0  0  0  0  0  0  0  0
    0.8223    0.5361    1.7426 H   0  0  0  0  0  0  0  0  0  0  0  0
   -1.1387    1.1927    2.2203 C   0  0  0  0  0  0  0  0  0  0  0  0
   -1.1591    2.5134    1.8261 N   0  0  0  0  0  0  0  0  0  0  0  0
   -0.4939    2.9619    1.2140 H   0  0  0  0  0  0  0  0  0  0  0  0
   -2.2186    3.1035    2.4046 C   0  0  0  0  0  0  0  0  0  0  0  0
   -2.4958    4.1442    2.2893 H   0  0  0  0  0  0  0  0  0  0  0  0
   -2.8949    2.2166    3.1491 N   0  0  0  0  0  0  0  0  0  0  0  0
   -2.2161    0.9999    3.0434 C   0  0  0  0  0  0  0  0  0  0  0  0
   -2.5087    0.0631    3.4997 H   0  0  0  0  0  0  0  0  0  0  0  0
    0.5740   -1.3220   -0.2291 C   0  0  0  0  0  0  0  0  0  0  0  0
    0.2558   -2.3541   -0.8193 O   0  0  0  0  0  0  0  0  0  0  0  0
    1.8512   -0.9844   -0.0112 N   0  0  0  0  0  0  0  0  0  0  0  0
    2.0299   -0.1501    0.5281 H   0  0  0  0  0  0  0  0  0  0  0  0
    2.9997   -1.7682   -0.4581 C   0  0  0  0  0  0  0  0  0  0  0  0
    2.9815   -1.8628   -1.5462 H   0  0  0  0  0  0  0  0  0  0  0  0
    3.9269   -1.2804   -0.1559 H   0  0  0  0  0  0  0  0  0  0  0  0
    2.9595   -2.7673   -0.0214 H   0  0  0  0  0  0  0  0  0  0  0  0
  5  6  2  0  0  0  0
  5  7  1  0  0  0  0
  2  3  1  0  0  0  0
  2  4  1  0  0  0  0
  2  5  1  0  0  0  0
  1  2  1  0  0  0  0
 22 23  2  0  0  0  0
 22 24  1  0  0  0  0
 20 21  1  0  0  0  0
 19 20  1  0  0  0  0
 17 18  1  0  0  0  0
 17 19  2  0  0  0  0
 15 16  1  0  0  0  0
 15 17  1  0  0  0  0
 14 15  1  0  0  0  0
 14 20  2  0  0  0  0
 11 12  1  0  0  0  0
 11 13  1  0  0  0  0
 11 14  1  0  0  0  0
  9 10  1  0  0  0  0
  9 11  1  0  0  0  0
  9 22  1  0  0  0  0
  7  8  1  0  0  0  0
  7  9  1  0  0  0  0
 26 27  1  0  0  0  0
 26 28  1  0  0  0  0
 26 29  1  0  0  0  0
 24 25  1  0  0  0  0
 24 26  1  0  0  0  0
M  END
$$$$
default_name
  -OEChem-01062215323D

 29 29  0     1  0  0  0  0  0999 V2000
   -3.6042   -3.5728    1.4576 H   0  0  0  0  0  0  0  0  0  0  0  0
   -3.5202   -2.6488    0.8866 C   0  0  0  0  0  0  0  0  0  0  0  0
   -4.2052   -1.9048    1.2896 H   0  0  0  0  0  0  0  0  0  0  0  0
   -3.7552   -2.8428   -0.1584 H   0  0  0  0  0  0  0  0  0  0  0  0
   -2.1052   -2.1358    0.9946 C   0  0  0  0  0  0  0  0  0  0  0  0
   -1.2852   -2.7288    1.6826 O   0  0  0  0  0  0  0  0  0  0  0  0
   -1.8202   -1.0288    0.3146 N   0  0  0  0  0  0  0  0  0  0  0  0
   -2.5542   -0.5788   -0.2104 H   0  0  0  0  0  0  0  0  0  0  0  0
   -0.5102   -0.3728    0.3086 C   0  0  1  0  0  0  0  0  0  0  0  0
   -0.5555    0.4921   -0.3550 H   0  0  0  0  0  0  0  0  0  0  0  0
   -0.1907    0.1298    1.7286 C   0  0  0  0  0  0  0  0  0  0  0  0
   -0.2239   -0.7126    2.4217 H   0  0  0  0  0  0  0  0  0  0  0  0
    0.8223    0.5361    1.7426 H   0  0  0  0  0  0  0  0  0  0  0  0
   -1.1387    1.1927    2.2203 C   0  0  0  0  0  0  0  0  0  0  0  0
   -1.1591    2.5134    1.8261 N   0  0  0  0  0  0  0  0  0  0  0  0
   -0.4939    2.9619    1.2140 H   0  0  0  0  0  0  0  0  0  0  0  0
   -2.2186    3.1035    2.4046 C   0  0  0  0  0  0  0  0  0  0  0  0
   -2.4958    4.1442    2.2893 H   0  0  0  0  0  0  0  0  0  0  0  0
   -2.8949    2.2166    3.1491 N   0  0  0  0  0  0  0  0  0  0  0  0
   -2.2161    0.9999    3.0434 C   0  0  0  0  0  0  0  0  0  0  0  0
   -2.5087    0.0631    3.4997 H   0  0  0  0  0  0  0  0  0  0  0  0
    0.5740   -1.3220   -0.2291 C   0  0  0  0  0  0  0  0  0  0  0  0
    0.2824   -2.1954   -1.0457 O   0  0  0  0  0  0  0  0  0  0  0  0
    1.8182   -1.1642    0.2397 N   0  0  0  0  0  0  0  0  0  0  0  0
    1.9663   -0.4607    0.9482 H   0  0  0  0  0  0  0  0  0  0  0  0
    2.9628   -1.9741   -0.1689 C   0  0  0  0  0  0  0  0  0  0  0  0
    3.1207   -1.8743   -1.2451 H   0  0  0  0  0  0  0  0  0  0  0  0
    3.8602   -1.6471    0.3572 H   0  0  0  0  0  0  0  0  0  0  0  0
    2.7744   -3.0244    0.0591 H   0  0  0  0  0  0  0  0  0  0  0  0
  5  6  2  0  0  0  0
  5  7  1  0  0  0  0
  2  3  1  0  0  0  0
  2  4  1  0  0  0  0
  2  5  1  0  0  0  0
  1  2  1  0  0  0  0
 22 23  2  0  0  0  0
 22 24  1  0  0  0  0
 20 21  1  0  0  0  0
 19 20  1  0  0  0  0
 17 18  1  0  0  0  0
 17 19  2  0  0  0  0
 15 16  1  0  0  0  0
 15 17  1  0  0  0  0
 14 15  1  0  0  0  0
 14 20  2  0  0  0  0
 11 12  1  0  0  0  0
 11 13  1  0  0  0  0
 11 14  1  0  0  0  0
  9 10  1  0  0  0  0
  9 11  1  0  0  0  0
  9 22  1  0  0  0  0
  7  8  1  0  0  0  0
  7  9  1  0  0  0  0
 26 27  1  0  0  0  0
 26 28  1  0  0  0  0
 26 29  1  0  0  0  0
 24 25  1  0  0  0  0
 24 26  1  0  0  0  0
M  END
$$$$
default_name
  -OEChem-01062215323D

 29 29  0     1  0  0  0  0  0999 V2000
   -3.6042   -3.5728    1.4576 H   0  0  0  0  0  0  0  0  0  0  0  0
   -3.5202   -2.6488    0.8866 C   0  0  0  0  0  0  0  0  0  0  0  0
   -4.2052   -1.9048    1.2896 H   0  0  0  0  0  0  0  0  0  0  0  0
   -3.7552   -2.8428   -0.1584 H   0  0  0  0  0  0  0  0  0  0  0  0
   -2.1052   -2.1358    0.9946 C   0  0  0  0  0  0  0  0  0  0  0  0
   -1.2852   -2.7288    1.6826 O   0  0  0  0  0  0  0  0  0  0  0  0
   -1.8202   -1.0288    0.3146 N   0  0  0  0  0  0  0  0  0  0  0  0
   -2.5542   -0.5788   -0.2104 H   0  0  0  0  0  0  0  0  0  0  0  0
   -0.5102   -0.3728    0.3086 C   0  0  1  0  0  0  0  0  0  0  0  0
   -0.5555    0.4921   -0.3550 H   0  0  0  0  0  0  0  0  0  0  0  0
   -0.1907    0.1298    1.7286 C   0  0  0  0  0  0  0  0  0  0  0  0
   -0.2239   -0.7126    2.4217 H   0  0  0  0  0  0  0  0  0  0  0  0
    0.8223    0.5361    1.7426 H   0  0  0  0  0  0  0  0  0  0  0  0
   -1.1387    1.1927    2.2203 C   0  0  0  0  0  0  0  0  0  0  0  0
   -1.1591    2.5134    1.8261 N   0  0  0  0  0  0  0  0  0  0  0  0
   -0.4939    2.9619    1.2140 H   0  0  0  0  0  0  0  0  0  0  0  0
   -2.2186    3.1035    2.4046 C   0  0  0  0  0  0  0  0  0  0  0  0
   -2.4958    4.1442    2.2893 H   0  0  0  0  0  0  0  0  0  0  0  0
   -2.8949    2.2166    3.1491 N   0  0  0  0  0  0  0  0  0  0  0  0
   -2.2161    0.9999    3.0434 C   0  0  0  0  0  0  0  0  0  0  0  0
   -2.5087    0.0631    3.4997 H   0  0  0  0  0  0  0  0  0  0  0  0
    0.5740   -1.3220   -0.2291 C   0  0  0  0  0  0  0  0  0  0  0  0
    0.3586   -2.0033   -1.2312 O   0  0  0  0  0  0  0  0  0  0  0  0
    1.7300   -1.3806    0.4439 N   0  0  0  0  0  0  0  0  0  0  0  0
    1.8097   -0.8316    1.2872 H   0  0  0  0  0  0  0  0  0  0  0  0
    2.8624   -2.2224    0.0671 C   0  0  0  0  0  0  0  0  0  0  0  0
    3.2061   -1.9529   -0.9341 H   0  0  0  0  0  0  0  0  0  0  0  0
    3.6807   -2.0889    0.7753 H   0  0  0  0  0  0  0  0  0  0  0  0
    2.5594   -3.2706    0.0604 H   0  0  0  0  0  0  0  0  0  0  0  0
  5  6  2  0  0  0  0
  5  7  1  0  0  0  0
  2  3  1  0  0  0  0
  2  4  1  0  0  0  0
  2  5  1  0  0  0  0
  1  2  1  0  0  0  0
 22 23  2  0  0  0  0
 22 24  1  0  0  0  0
 20 21  1  0  0  0  0
 19 20  1  0  0  0  0
 17 18  1  0  0  0  0
 17 19  2  0  0  0  0
 15 16  1  0  0  0  0
 15 17  1  0  0  0  0
 14 15  1  0  0  0  0
 14 20  2  0  0  0  0
 11 12  1  0  0  0  0
 11 13  1  0  0  0  0
 11 14  1  0  0  0  0
  9 10  1  0  0  0  0
  9 11  1  0  0  0  0
  9 22  1  0  0  0  0
  7  8  1  0  0  0  0
  7  9  1  0  0  0  0
 26 27  1  0  0  0  0
 26 28  1  0  0  0  0
 26 29  1  0  0  0  0
 24 25  1  0  0  0  0
 24 26  1  0  0  0  0
M  END
$$$$
default_name
  -OEChem-01062215323D

 29 29  0     1  0  0  0  0  0999 V2000
   -3.6042   -3.5728    1.4576 H   0  0  0  0  0  0  0  0  0  0  0  0
   -3.5202   -2.6488    0.8866 C   0  0  0  0  0  0  0  0  0  0  0  0
   -4.2052   -1.9048    1.2896 H   0  0  0  0  0  0  0  0  0  0  0  0
   -3.7552   -2.8428   -0.1584 H   0  0  0  0  0  0  0  0  0  0  0  0
   -2.1052   -2.1358    0.9946 C   0  0  0  0  0  0  0  0  0  0  0  0
   -1.2852   -2.7288    1.6826 O   0  0  0  0  0  0  0  0  0  0  0  0
   -1.8202   -1.0288    0.3146 N   0  0  0  0  0  0  0  0  0  0  0  0
   -2.5542   -0.5788   -0.2104 H   0  0  0  0  0  0  0  0  0  0  0  0
   -0.5102   -0.3728    0.3086 C   0  0  1  0  0  0  0  0  0  0  0  0
   -0.5555    0.4921   -0.3550 H   0  0  0  0  0  0  0  0  0  0  0  0
   -0.1907    0.1298    1.7286 C   0  0  0  0  0  0  0  0  0  0  0  0
   -0.2239   -0.7126    2.4217 H   0  0  0  0  0  0  0  0  0  0  0  0
    0.8223    0.5361    1.7426 H   0  0  0  0  0  0  0  0  0  0  0  0
   -1.1387    1.1927    2.2203 C   0  0  0  0  0  0  0  0  0  0  0  0
   -1.1591    2.5134    1.8261 N   0  0  0  0  0  0  0  0  0  0  0  0
   -0.4939    2.9619    1.2140 H   0  0  0  0  0  0  0  0  0  0  0  0
   -2.2186    3.1035    2.4046 C   0  0  0  0  0  0  0  0  0  0  0  0
   -2.4958    4.1442    2.2893 H   0  0  0  0  0  0  0  0  0  0  0  0
   -2.8949    2.2166    3.1491 N   0  0  0  0  0  0  0  0  0  0  0  0
   -2.2161    0.9999    3.0434 C   0  0  0  0  0  0  0  0  0  0  0  0
   -2.5087    0.0631    3.4997 H   0  0  0  0  0  0  0  0  0  0  0  0
    0.5740   -1.3220   -0.2291 C   0  0  0  0  0  0  0  0  0  0  0  0
    0.4793   -1.7908   -1.3631 O   0  0  0  0  0  0  0  0  0  0  0  0
    1.5926   -1.6189    0.5876 N   0  0  0  0  0  0  0  0  0  0  0  0
    1.5707   -1.2376    1.5220 H   0  0  0  0  0  0  0  0  0  0  0  0
    2.7053   -2.4963    0.2337 C   0  0  0  0  0  0  0  0  0  0  0  0
    3.2318   -2.0933   -0.6344 H   0  0  0  0  0  0  0  0  0  0  0  0
    3.4006   -2.5757    1.0698 H   0  0  0  0  0  0  0  0  0  0  0  0
    2.3293   -3.4893   -0.0177 H   0  0  0  0  0  0  0  0  0  0  0  0
  5  6  2  0  0  0  0
  5  7  1  0  0  0  0
  2  3  1  0  0  0  0
  2  4  1  0  0  0  0
  2  5  1  0  0  0  0
  1  2  1  0  0  0  0
 22 23  2  0  0  0  0
 22 24  1  0  0  0  0
 20 21  1  0  0  0  0
 19 20  1  0  0  0  0
 17 18  1  0  0  0  0
 17 19  2  0  0  0  0
 15 16  1  0  0  0  0
 15 17  1  0  0  0  0
 14 15  1  0  0  0  0
 14 20  2  0  0  0  0
 11 12  1  0  0  0  0
 11 13  1  0  0  0  0
 11 14  1  0  0  0  0
  9 10  1  0  0  0  0
  9 11  1  0  0  0  0
  9 22  1  0  0  0  0
  7  8  1  0  0  0  0
  7  9  1  0  0  0  0
 26 27  1  0  0  0  0
 26 28  1  0  0  0  0
 26 29  1  0  0  0  0
 24 25  1  0  0  0  0
 24 26  1  0  0  0  0
M  END
$$$$
default_name
  -OEChem-01062215323D

 29 29  0     1  0  0  0  0  0999 V2000
   -3.6042   -3.5728    1.4576 H   0  0  0  0  0  0  0  0  0  0  0  0
   -3.5202   -2.6488    0.8866 C   0  0  0  0  0  0  0  0  0  0  0  0
   -4.2052   -1.9048    1.2896 H   0  0  0  0  0  0  0  0  0  0  0  0
   -3.7552   -2.8428   -0.1584 H   0  0  0  0  0  0  0  0  0  0  0  0
   -2.1052   -2.1358    0.9946 C   0  0  0  0  0  0  0  0  0  0  0  0
   -1.2852   -2.7288    1.6826 O   0  0  0  0  0  0  0  0  0  0  0  0
   -1.8202   -1.0288    0.3146 N   0  0  0  0  0  0  0  0  0  0  0  0
   -2.5542   -0.5788   -0.2104 H   0  0  0  0  0  0  0  0  0  0  0  0
   -0.5102   -0.3728    0.3086 C   0  0  1  0  0  0  0  0  0  0  0  0
   -0.5555    0.4921   -0.3550 H   0  0  0  0  0  0  0  0  0  0  0  0
   -0.1907    0.1298    1.7286 C   0  0  0  0  0  0  0  0  0  0  0  0
   -0.2239   -0.7126    2.4217 H   0  0  0  0  0  0  0  0  0  0  0  0
    0.8223    0.5361    1.7426 H   0  0  0  0  0  0  0  0  0  0  0  0
   -1.1387    1.1927    2.2203 C   0  0  0  0  0  0  0  0  0  0  0  0
   -1.1591    2.5134    1.8261 N   0  0  0  0  0  0  0  0  0  0  0  0
   -0.4939    2.9619    1.2140 H   0  0  0  0  0  0  0  0  0  0  0  0
   -2.2186    3.1035    2.4046 C   0  0  0  0  0  0  0  0  0  0  0  0
   -2.4958    4.1442    2.2893 H   0  0  0  0  0  0  0  0  0  0  0  0
   -2.8949    2.2166    3.1491 N   0  0  0  0  0  0  0  0  0  0  0  0
   -2.2161    0.9999    3.0434 C   0  0  0  0  0  0  0  0  0  0  0  0
   -2.5087    0.0631    3.4997 H   0  0  0  0  0  0  0  0  0  0  0  0
    0.5740   -1.3220   -0.2291 C   0  0  0  0  0  0  0  0  0  0  0  0
    0.6361   -1.5724   -1.4325 O   0  0  0  0  0  0  0  0  0  0  0  0
    1.4154   -1.8629    0.6609 N   0  0  0  0  0  0  0  0  0  0  0  0
    1.2656   -1.6509    1.6364 H   0  0  0  0  0  0  0  0  0  0  0  0
    2.5021   -2.7769    0.3195 C   0  0  0  0  0  0  0  0  0  0  0  0
    3.1961   -2.2859   -0.3664 H   0  0  0  0  0  0  0  0  0  0  0  0
    3.0389   -3.0744    1.2208 H   0  0  0  0  0  0  0  0  0  0  0  0
    2.0997   -3.6654   -0.1697 H   0  0  0  0  0  0  0  0  0  0  0  0
  5  6  2  0  0  0  0
  5  7  1  0  0  0  0
  2  3  1  0  0  0  0
  2  4  1  0  0  0  0
  2  5  1  0  0  0  0
  1  2  1  0  0  0  0
 22 23  2  0  0  0  0
 22 24  1  0  0  0  0
 20 21  1  0  0  0  0
 19 20  1  0  0  0  0
 17 18  1  0  0  0  0
 17 19  2  0  0  0  0
 15 16  1  0  0  0  0
 15 17  1  0  0  0  0
 14 15  1  0  0  0  0
 14 20  2  0  0  0  0
 11 12  1  0  0  0  0
 11 13  1  0  0  0  0
 11 14  1  0  0  0  0
  9 10  1  0  0  0  0
  9 11  1  0  0  0  0
  9 22  1  0  0  0  0
  7  8  1  0  0  0  0
  7  9  1  0  0  0  0
 26 27  1  0  0  0  0
 26 28  1  0  0  0  0
 26 29  1  0  0  0  0
 24 25  1  0  0  0  0
 24 26  1  0  0  0  0
M  END
$$$$
default_name
  -OEChem-01062215323D

 29 29  0     1  0  0  0  0  0999 V2000
   -3.6042   -3.5728    1.4576 H   0  0  0  0  0  0  0  0  0  0  0  0
   -3.5202   -2.6488    0.8866 C   0  0  0  0  0  0  0  0  0  0  0  0
   -4.2052   -1.9048    1.2896 H   0  0  0  0  0  0  0  0  0  0  0  0
   -3.7552   -2.8428   -0.1584 H   0  0  0  0  0  0  0  0  0  0  0  0
   -2.1052   -2.1358    0.9946 C   0  0  0  0  0  0  0  0  0  0  0  0
   -1.2852   -2.7288    1.6826 O   0  0  0  0  0  0  0  0  0  0  0  0
   -1.8202   -1.0288    0.3146 N   0  0  0  0  0  0  0  0  0  0  0  0
   -2.5542   -0.5788   -0.2104 H   0  0  0  0  0  0  0  0  0  0  0  0
   -0.5102   -0.3728    0.3086 C   0  0  1  0  0  0  0  0  0  0  0  0
   -0.5555    0.4921   -0.3550 H   0  0  0  0  0  0  0  0  0  0  0  0
   -0.1907    0.1298    1.7286 C   0  0  0  0  0  0  0  0  0  0  0  0
   -0.2239   -0.7126    2.4217 H   0  0  0  0  0  0  0  0  0  0  0  0
    0.8223    0.5361    1.7426 H   0  0  0  0  0  0  0  0  0  0  0  0
   -1.1387    1.1927    2.2203 C   0  0  0  0  0  0  0  0  0  0  0  0
   -1.1591    2.5134    1.8261 N   0  0  0  0  0  0  0  0  0  0  0  0
   -0.4939    2.9619    1.2140 H   0  0  0  0  0  0  0  0  0  0  0  0
   -2.2186    3.1035    2.4046 C   0  0  0  0  0  0  0  0  0  0  0  0
   -2.4958    4.1442    2.2893 H   0  0  0  0  0  0  0  0  0  0  0  0
   -2.8949    2.2166    3.1491 N   0  0  0  0  0  0  0  0  0  0  0  0
   -2.2161    0.9999    3.0434 C   0  0  0  0  0  0  0  0  0  0  0  0
   -2.5087    0.0631    3.4997 H   0  0  0  0  0  0  0  0  0  0  0  0
    0.5740   -1.3220   -0.2291 C   0  0  0  0  0  0  0  0  0  0  0  0
    0.8184   -1.3629   -1.4346 O   0  0  0  0  0  0  0  0  0  0  0  0
    1.2104   -2.0959    0.6590 N   0  0  0  0  0  0  0  0  0  0  0  0
    0.9152   -2.0434    1.6229 H   0  0  0  0  0  0  0  0  0  0  0  0
    2.2668   -3.0453    0.3187 C   0  0  0  0  0  0  0  0  0  0  0  0
    3.1013   -2.5176   -0.1485 H   0  0  0  0  0  0  0  0  0  0  0  0
    2.6204   -3.5508    1.2179 H   0  0  0  0  0  0  0  0  0  0  0  0
    1.8863   -3.7870   -0.3853 H   0  0  0  0  0  0  0  0  0  0  0  0
  5  6  2  0  0  0  0
  5  7  1  0  0  0  0
  2  3  1  0  0  0  0
  2  4  1  0  0  0  0
  2  5  1  0  0  0  0
  1  2  1  0  0  0  0
 22 23  2  0  0  0  0
 22 24  1  0  0  0  0
 20 21  1  0  0  0  0
 19 20  1  0  0  0  0
 17 18  1  0  0  0  0
 17 19  2  0  0  0  0
 15 16  1  0  0  0  0
 15 17  1  0  0  0  0
 14 15  1  0  0  0  0
 14 20  2  0  0  0  0
 11 12  1  0  0  0  0
 11 13  1  0  0  0  0
 11 14  1  0  0  0  0
  9 10  1  0  0  0  0
  9 11  1  0  0  0  0
  9 22  1  0  0  0  0
  7  8  1  0  0  0  0
  7  9  1  0  0  0  0
 26 27  1  0  0  0  0
 26 28  1  0  0  0  0
 26 29  1  0  0  0  0
 24 25  1  0  0  0  0
 24 26  1  0  0  0  0
M  END
$$$$
default_name
  -OEChem-01062215323D

 29 29  0     1  0  0  0  0  0999 V2000
   -3.6042   -3.5728    1.4576 H   0  0  0  0  0  0  0  0  0  0  0  0
   -3.5202   -2.6488    0.8866 C   0  0  0  0  0  0  0  0  0  0  0  0
   -4.2052   -1.9048    1.2896 H   0  0  0  0  0  0  0  0  0  0  0  0
   -3.7552   -2.8428   -0.1584 H   0  0  0  0  0  0  0  0  0  0  0  0
   -2.1052   -2.1358    0.9946 C   0  0  0  0  0  0  0  0  0  0  0  0
   -1.2852   -2.7288    1.6826 O   0  0  0  0  0  0  0  0  0  0  0  0
   -1.8202   -1.0288    0.3146 N   0  0  0  0  0  0  0  0  0  0  0  0
   -2.5542   -0.5788   -0.2104 H   0  0  0  0  0  0  0  0  0  0  0  0
   -0.5102   -0.3728    0.3086 C   0  0  1  0  0  0  0  0  0  0  0  0
   -0.5555    0.4921   -0.3550 H   0  0  0  0  0  0  0  0  0  0  0  0
   -0.1907    0.1298    1.7286 C   0  0  0  0  0  0  0  0  0  0  0  0
   -0.2239   -0.7126    2.4217 H   0  0  0  0  0  0  0  0  0  0  0  0
    0.8223    0.5361    1.7426 H   0  0  0  0  0  0  0  0  0  0  0  0
   -1.1387    1.1927    2.2203 C   0  0  0  0  0  0  0  0  0  0  0  0
   -1.1591    2.5134    1.8261 N   0  0  0  0  0  0  0  0  0  0  0  0
   -0.4939    2.9619    1.2140 H   0  0  0  0  0  0  0  0  0  0  0  0
   -2.2186    3.1035    2.4046 C   0  0  0  0  0  0  0  0  0  0  0  0
   -2.4958    4.1442    2.2893 H   0  0  0  0  0  0  0  0  0  0  0  0
   -2.8949    2.2166    3.1491 N   0  0  0  0  0  0  0  0  0  0  0  0
   -2.2161    0.9999    3.0434 C   0  0  0  0  0  0  0  0  0  0  0  0
   -2.5087    0.0631    3.4997 H   0  0  0  0  0  0  0  0  0  0  0  0
    0.5740   -1.3220   -0.2291 C   0  0  0  0  0  0  0  0  0  0  0  0
    1.0138   -1.1767   -1.3693 O   0  0  0  0  0  0  0  0  0  0  0  0
    0.9916   -2.3021    0.5818 N   0  0  0  0  0  0  0  0  0  0  0  0
    0.5434   -2.3884    1.4822 H   0  0  0  0  0  0  0  0  0  0  0  0
    2.0153   -3.2831    0.2315 C   0  0  0  0  0  0  0  0  0  0  0  0
    2.9540   -2.7726    0.0047 H   0  0  0  0  0  0  0  0  0  0  0  0
    2.1734   -3.9726    1.0613 H   0  0  0  0  0  0  0  0  0  0  0  0
    1.7036   -3.8458   -0.6499 H   0  0  0  0  0  0  0  0  0  0  0  0
  5  6  2  0  0  0  0
  5  7  1  0  0  0  0
  2  3  1  0  0  0  0
  2  4  1  0  0  0  0
  2  5  1  0  0  0  0
  1  2  1  0  0  0  0
 22 23  2  0  0  0  0
 22 24  1  0  0  0  0
 20 21  1  0  0  0  0
 19 20  1  0  0  0  0
 17 18  1  0  0  0  0
 17 19  2  0  0  0  0
 15 16  1  0  0  0  0
 15 17  1  0  0  0  0
 14 15  1  0  0  0  0
 14 20  2  0  0  0  0
 11 12  1  0  0  0  0
 11 13  1  0  0  0  0
 11 14  1  0  0  0  0
  9 10  1  0  0  0  0
  9 11  1  0  0  0  0
  9 22  1  0  0  0  0
  7  8  1  0  0  0  0
  7  9  1  0  0  0  0
 26 27  1  0  0  0  0
 26 28  1  0  0  0  0
 26 29  1  0  0  0  0
 24 25  1  0  0  0  0
 24 26  1  0  0  0  0
M  END
$$$$
default_name
  -OEChem-01062215323D

 29 29  0     1  0  0  0  0  0999 V2000
   -3.6042   -3.5728    1.4576 H   0  0  0  0  0  0  0  0  0  0  0  0
   -3.5202   -2.6488    0.8866 C   0  0  0  0  0  0  0  0  0  0  0  0
   -4.2052   -1.9048    1.2896 H   0  0  0  0  0  0  0  0  0  0  0  0
   -3.7552   -2.8428   -0.1584 H   0  0  0  0  0  0  0  0  0  0  0  0
   -2.1052   -2.1358    0.9946 C   0  0  0  0  0  0  0  0  0  0  0  0
   -1.2852   -2.7288    1.6826 O   0  0  0  0  0  0  0  0  0  0  0  0
   -1.8202   -1.0288    0.3146 N   0  0  0  0  0  0  0  0  0  0  0  0
   -2.5542   -0.5788   -0.2104 H   0  0  0  0  0  0  0  0  0  0  0  0
   -0.5102   -0.3728    0.3086 C   0  0  1  0  0  0  0  0  0  0  0  0
   -0.5555    0.4921   -0.3550 H   0  0  0  0  0  0  0  0  0  0  0  0
   -0.1907    0.1298    1.7286 C   0  0  0  0  0  0  0  0  0  0  0  0
   -0.2239   -0.7126    2.4217 H   0  0  0  0  0  0  0  0  0  0  0  0
    0.8223    0.5361    1.7426 H   0  0  0  0  0  0  0  0  0  0  0  0
   -1.1387    1.1927    2.2203 C   0  0  0  0  0  0  0  0  0  0  0  0
   -1.1591    2.5134    1.8261 N   0  0  0  0  0  0  0  0  0  0  0  0
   -0.4939    2.9619    1.2140 H   0  0  0  0  0  0  0  0  0  0  0  0
   -2.2186    3.1035    2.4046 C   0  0  0  0  0  0  0  0  0  0  0  0
   -2.4958    4.1442    2.2893 H   0  0  0  0  0  0  0  0  0  0  0  0
   -2.8949    2.2166    3.1491 N   0  0  0  0  0  0  0  0  0  0  0  0
   -2.2161    0.9999    3.0434 C   0  0  0  0  0  0  0  0  0  0  0  0
   -2.5087    0.0631    3.4997 H   0  0  0  0  0  0  0  0  0  0  0  0
    0.5740   -1.3220   -0.2291 C   0  0  0  0  0  0  0  0  0  0  0  0
    1.2090   -1.0264   -1.2411 O   0  0  0  0  0  0  0  0  0  0  0  0
    0.7740   -2.4674    0.4348 N   0  0  0  0  0  0  0  0  0  0  0  0
    0.1755   -2.6623    1.2240 H   0  0  0  0  0  0  0  0  0  0  0  0
    1.7648   -3.4742    0.0636 C   0  0  0  0  0  0  0  0  0  0  0  0
    2.7642   -3.0335    0.0826 H   0  0  0  0  0  0  0  0  0  0  0  0
    1.7285   -4.3110    0.7616 H   0  0  0  0  0  0  0  0  0  0  0  0
    1.5641   -3.8378   -0.9454 H   0  0  0  0  0  0  0  0  0  0  0  0
  5  6  2  0  0  0  0
  5  7  1  0  0  0  0
  2  3  1  0  0  0  0
  2  4  1  0  0  0  0
  2  5  1  0  0  0  0
  1  2  1  0  0  0  0
 22 23  2  0  0  0  0
 22 24  1  0  0  0  0
 20 21  1  0  0  0  0
 19 20  1  0  0  0  0
 17 18  1  0  0  0  0
 17 19  2  0  0  0  0
 15 16  1  0  0  0  0
 15 17  1  0  0  0  0
 14 15  1  0  0  0  0
 14 20  2  0  0  0  0
 11 12  1  0  0  0  0
 11 13  1  0  0  0  0
 11 14  1  0  0  0  0
  9 10  1  0  0  0  0
  9 11  1  0  0  0  0
  9 22  1  0  0  0  0
  7  8  1  0  0  0  0
  7  9  1  0  0  0  0
 26 27  1  0  0  0  0
 26 28  1  0  0  0  0
 26 29  1  0  0  0  0
 24 25  1  0  0  0  0
 24 26  1  0  0  0  0
M  END
$$$$
default_name
  -OEChem-01062215323D

 29 29  0     1  0  0  0  0  0999 V2000
   -3.6042   -3.5728    1.4576 H   0  0  0  0  0  0  0  0  0  0  0  0
   -3.5202   -2.6488    0.8866 C   0  0  0  0  0  0  0  0  0  0  0  0
   -4.2052   -1.9048    1.2896 H   0  0  0  0  0  0  0  0  0  0  0  0
   -3.7552   -2.8428   -0.1584 H   0  0  0  0  0  0  0  0  0  0  0  0
   -2.1052   -2.1358    0.9946 C   0  0  0  0  0  0  0  0  0  0  0  0
   -1.2852   -2.7288    1.6826 O   0  0  0  0  0  0  0  0  0  0  0  0
   -1.8202   -1.0288    0.3146 N   0  0  0  0  0  0  0  0  0  0  0  0
   -2.5542   -0.5788   -0.2104 H   0  0  0  0  0  0  0  0  0  0  0  0
   -0.5102   -0.3728    0.3086 C   0  0  1  0  0  0  0  0  0  0  0  0
   -0.5555    0.4921   -0.3550 H   0  0  0  0  0  0  0  0  0  0  0  0
   -0.1907    0.1298    1.7286 C   0  0  0  0  0  0  0  0  0  0  0  0
   -0.2239   -0.7126    2.4217 H   0  0  0  0  0  0  0  0  0  0  0  0
    0.8223    0.5361    1.7426 H   0  0  0  0  0  0  0  0  0  0  0  0
   -1.1387    1.1927    2.2203 C   0  0  0  0  0  0  0  0  0  0  0  0
   -1.1591    2.5134    1.8261 N   0  0  0  0  0  0  0  0  0  0  0  0
   -0.4939    2.9619    1.2140 H   0  0  0  0  0  0  0  0  0  0  0  0
   -2.2186    3.1035    2.4046 C   0  0  0  0  0  0  0  0  0  0  0  0
   -2.4958    4.1442    2.2893 H   0  0  0  0  0  0  0  0  0  0  0  0
   -2.8949    2.2166    3.1491 N   0  0  0  0  0  0  0  0  0  0  0  0
   -2.2161    0.9999    3.0434 C   0  0  0  0  0  0  0  0  0  0  0  0
   -2.5087    0.0631    3.4997 H   0  0  0  0  0  0  0  0  0  0  0  0
    0.5740   -1.3220   -0.2291 C   0  0  0  0  0  0  0  0  0  0  0  0
    1.3906   -0.9223   -1.0586 O   0  0  0  0  0  0  0  0  0  0  0  0
    0.5723   -2.5805    0.2278 N   0  0  0  0  0  0  0  0  0  0  0  0
   -0.1633   -2.8465    0.8658 H   0  0  0  0  0  0  0  0  0  0  0  0
    1.5324   -3.6054   -0.1734 C   0  0  0  0  0  0  0  0  0  0  0  0
    2.5447   -3.2826    0.0798 H   0  0  0  0  0  0  0  0  0  0  0  0
    1.3161   -4.5430    0.3394 H   0  0  0  0  0  0  0  0  0  0  0  0
    1.4772   -3.7636   -1.2516 H   0  0  0  0  0  0  0  0  0  0  0  0
  5  6  2  0  0  0  0
  5  7  1  0  0  0  0
  2  3  1  0  0  0  0
  2  4  1  0  0  0  0
  2  5  1  0  0  0  0
  1  2  1  0  0  0  0
 22 23  2  0  0  0  0
 22 24  1  0  0  0  0
 20 21  1  0  0  0  0
 19 20  1  0  0  0  0
 17 18  1  0  0  0  0
 17 19  2  0  0  0  0
 15 16  1  0  0  0  0
 15 17  1  0  0  0  0
 14 15  1  0  0  0  0
 14 20  2  0  0  0  0
 11 12  1  0  0  0  0
 11 13  1  0  0  0  0
 11 14  1  0  0  0  0
  9 10  1  0  0  0  0
  9 11  1  0  0  0  0
  9 22  1  0  0  0  0
  7  8  1  0  0  0  0
  7  9  1  0  0  0  0
 26 27  1  0  0  0  0
 26 28  1  0  0  0  0
 26 29  1  0  0  0  0
 24 25  1  0  0  0  0
 24 26  1  0  0  0  0
M  END
$$$$
default_name
  -OEChem-01062215323D

 29 29  0     1  0  0  0  0  0999 V2000
   -3.6042   -3.5728    1.4576 H   0  0  0  0  0  0  0  0  0  0  0  0
   -3.5202   -2.6488    0.8866 C   0  0  0  0  0  0  0  0  0  0  0  0
   -4.2052   -1.9048    1.2896 H   0  0  0  0  0  0  0  0  0  0  0  0
   -3.7552   -2.8428   -0.1584 H   0  0  0  0  0  0  0  0  0  0  0  0
   -2.1052   -2.1358    0.9946 C   0  0  0  0  0  0  0  0  0  0  0  0
   -1.2852   -2.7288    1.6826 O   0  0  0  0  0  0  0  0  0  0  0  0
   -1.8202   -1.0288    0.3146 N   0  0  0  0  0  0  0  0  0  0  0  0
   -2.5542   -0.5788   -0.2104 H   0  0  0  0  0  0  0  0  0  0  0  0
   -0.5102   -0.3728    0.3086 C   0  0  1  0  0  0  0  0  0  0  0  0
   -0.5555    0.4921   -0.3550 H   0  0  0  0  0  0  0  0  0  0  0  0
   -0.1907    0.1298    1.7286 C   0  0  0  0  0  0  0  0  0  0  0  0
   -0.2239   -0.7126    2.4217 H   0  0  0  0  0  0  0  0  0  0  0  0
    0.8223    0.5361    1.7426 H   0  0  0  0  0  0  0  0  0  0  0  0
   -1.1387    1.1927    2.2203 C   0  0  0  0  0  0  0  0  0  0  0  0
   -1.1591    2.5134    1.8261 N   0  0  0  0  0  0  0  0  0  0  0  0
   -0.4939    2.9619    1.2140 H   0  0  0  0  0  0  0  0  0  0  0  0
   -2.2186    3.1035    2.4046 C   0  0  0  0  0  0  0  0  0  0  0  0
   -2.4958    4.1442    2.2893 H   0  0  0  0  0  0  0  0  0  0  0  0
   -2.8949    2.2166    3.1491 N   0  0  0  0  0  0  0  0  0  0  0  0
   -2.2161    0.9999    3.0434 C   0  0  0  0  0  0  0  0  0  0  0  0
   -2.5087    0.0631    3.4997 H   0  0  0  0  0  0  0  0  0  0  0  0
    0.5740   -1.3220   -0.2291 C   0  0  0  0  0  0  0  0  0  0  0  0
    1.5464   -0.8715   -0.8343 O   0  0  0  0  0  0  0  0  0  0  0  0
    0.4003   -2.6338   -0.0250 N   0  0  0  0  0  0  0  0  0  0  0  0
   -0.4501   -2.9284    0.4322 H   0  0  0  0  0  0  0  0  0  0  0  0
    1.3339   -3.6679   -0.4634 C   0  0  0  0  0  0  0  0  0  0  0  0
    2.3107   -3.5028   -0.0033 H   0  0  0  0  0  0  0  0  0  0  0  0
    0.9641   -4.6528   -0.1766 H   0  0  0  0  0  0  0  0  0  0  0  0
    1.4490   -3.6282   -1.5477 H   0  0  0  0  0  0  0  0  0  0  0  0
  5  6  2  0  0  0  0
  5  7  1  0  0  0  0
  2  3  1  0  0  0  0
  2  4  1  0  0  0  0
  2  5  1  0  0  0  0
  1  2  1  0  0  0  0
 22 23  2  0  0  0  0
 22 24  1  0  0  0  0
 20 21  1  0  0  0  0
 19 20  1  0  0  0  0
 17 18  1  0  0  0  0
 17 19  2  0  0  0  0
 15 16  1  0  0  0  0
 15 17  1  0  0  0  0
 14 15  1  0  0  0  0
 14 20  2  0  0  0  0
 11 12  1  0  0  0  0
 11 13  1  0  0  0  0
 11 14  1  0  0  0  0
  9 10  1  0  0  0  0
  9 11  1  0  0  0  0
  9 22  1  0  0  0  0
  7  8  1  0  0  0  0
  7  9  1  0  0  0  0
 26 27  1  0  0  0  0
 26 28  1  0  0  0  0
 26 29  1  0  0  0  0
 24 25  1  0  0  0  0
 24 26  1  0  0  0  0
M  END
$$$$
default_name
  -OEChem-01062215323D

 29 29  0     1  0  0  0  0  0999 V2000
   -3.6042   -3.5728    1.4576 H   0  0  0  0  0  0  0  0  0  0  0  0
   -3.5202   -2.6488    0.8866 C   0  0  0  0  0  0  0  0  0  0  0  0
   -4.2052   -1.9048    1.2896 H   0  0  0  0  0  0  0  0  0  0  0  0
   -3.7552   -2.8428   -0.1584 H   0  0  0  0  0  0  0  0  0  0  0  0
   -2.1052   -2.1358    0.9946 C   0  0  0  0  0  0  0  0  0  0  0  0
   -1.2852   -2.7288    1.6826 O   0  0  0  0  0  0  0  0  0  0  0  0
   -1.8202   -1.0288    0.3146 N   0  0  0  0  0  0  0  0  0  0  0  0
   -2.5542   -0.5788   -0.2104 H   0  0  0  0  0  0  0  0  0  0  0  0
   -0.5102   -0.3728    0.3086 C   0  0  1  0  0  0  0  0  0  0  0  0
   -0.5555    0.4921   -0.3550 H   0  0  0  0  0  0  0  0  0  0  0  0
   -0.1907    0.1298    1.7286 C   0  0  0  0  0  0  0  0  0  0  0  0
   -0.2239   -0.7126    2.4217 H   0  0  0  0  0  0  0  0  0  0  0  0
    0.8223    0.5361    1.7426 H   0  0  0  0  0  0  0  0  0  0  0  0
   -1.1387    1.1927    2.2203 C   0  0  0  0  0  0  0  0  0  0  0  0
   -1.1591    2.5134    1.8261 N   0  0  0  0  0  0  0  0  0  0  0  0
   -0.4939    2.9619    1.2140 H   0  0  0  0  0  0  0  0  0  0  0  0
   -2.2186    3.1035    2.4046 C   0  0  0  0  0  0  0  0  0  0  0  0
   -2.4958    4.1442    2.2893 H   0  0  0  0  0  0  0  0  0  0  0  0
   -2.8949    2.2166    3.1491 N   0  0  0  0  0  0  0  0  0  0  0  0
   -2.2161    0.9999    3.0434 C   0  0  0  0  0  0  0  0  0  0  0  0
   -2.5087    0.0631    3.4997 H   0  0  0  0  0  0  0  0  0  0  0  0
    0.5740   -1.3220   -0.2291 C   0  0  0  0  0  0  0  0  0  0  0  0
    1.6655   -0.8774   -0.5836 O   0  0  0  0  0  0  0  0  0  0  0  0
    0.2697   -2.6236   -0.3064 N   0  0  0  0  0  0  0  0  0  0  0  0
   -0.6652   -2.9025   -0.0475 H   0  0  0  0  0  0  0  0  0  0  0  0
    1.1828   -3.6574   -0.7867 C   0  0  0  0  0  0  0  0  0  0  0  0
    2.0780   -3.6792   -0.1611 H   0  0  0  0  0  0  0  0  0  0  0  0
    0.6966   -4.6327   -0.7513 H   0  0  0  0  0  0  0  0  0  0  0  0
    1.4812   -3.4407   -1.8136 H   0  0  0  0  0  0  0  0  0  0  0  0
  5  6  2  0  0  0  0
  5  7  1  0  0  0  0
  2  3  1  0  0  0  0
  2  4  1  0  0  0  0
  2  5  1  0  0  0  0
  1  2  1  0  0  0  0
 22 23  2  0  0  0  0
 22 24  1  0  0  0  0
 20 21  1  0  0  0  0
 19 20  1  0  0  0  0
 17 18  1  0  0  0  0
 17 19  2  0  0  0  0
 15 16  1  0  0  0  0
 15 17  1  0  0  0  0
 14 15  1  0  0  0  0
 14 20  2  0  0  0  0
 11 12  1  0  0  0  0
 11 13  1  0  0  0  0
 11 14  1  0  0  0  0
  9 10  1  0  0  0  0
  9 11  1  0  0  0  0
  9 22  1  0  0  0  0
  7  8  1  0  0  0  0
  7  9  1  0  0  0  0
 26 27  1  0  0  0  0
 26 28  1  0  0  0  0
 26 29  1  0  0  0  0
 24 25  1  0  0  0  0
 24 26  1  0  0  0  0
M  END
$$$$
default_name
  -OEChem-01062215323D

 29 29  0     1  0  0  0  0  0999 V2000
   -3.6042   -3.5728    1.4576 H   0  0  0  0  0  0  0  0  0  0  0  0
   -3.5202   -2.6488    0.8866 C   0  0  0  0  0  0  0  0  0  0  0  0
   -4.2052   -1.9048    1.2896 H   0  0  0  0  0  0  0  0  0  0  0  0
   -3.7552   -2.8428   -0.1584 H   0  0  0  0  0  0  0  0  0  0  0  0
   -2.1052   -2.1358    0.9946 C   0  0  0  0  0  0  0  0  0  0  0  0
   -1.2852   -2.7288    1.6826 O   0  0  0  0  0  0  0  0  0  0  0  0
   -1.8202   -1.0288    0.3146 N   0  0  0  0  0  0  0  0  0  0  0  0
   -2.5542   -0.5788   -0.2104 H   0  0  0  0  0  0  0  0  0  0  0  0
   -0.5102   -0.3728    0.3086 C   0  0  1  0  0  0  0  0  0  0  0  0
   -0.5555    0.4921   -0.3550 H   0  0  0  0  0  0  0  0  0  0  0  0
   -0.1907    0.1298    1.7286 C   0  0  0  0  0  0  0  0  0  0  0  0
   -0.2239   -0.7126    2.4217 H   0  0  0  0  0  0  0  0  0  0  0  0
    0.8223    0.5361    1.7426 H   0  0  0  0  0  0  0  0  0  0  0  0
   -1.1387    1.1927    2.2203 C   0  0  0  0  0  0  0  0  0  0  0  0
   -1.1591    2.5134    1.8261 N   0  0  0  0  0  0  0  0  0  0  0  0
   -0.4939    2.9619    1.2140 H   0  0  0  0  0  0  0  0  0  0  0  0
   -2.2186    3.1035    2.4046 C   0  0  0  0  0  0  0  0  0  0  0  0
   -2.4958    4.1442    2.2893 H   0  0  0  0  0  0  0  0  0  0  0  0
   -2.8949    2.2166    3.1491 N   0  0  0  0  0  0  0  0  0  0  0  0
   -2.2161    0.9999    3.0434 C   0  0  0  0  0  0  0  0  0  0  0  0
   -2.5087    0.0631    3.4997 H   0  0  0  0  0  0  0  0  0  0  0  0
    0.5740   -1.3220   -0.2291 C   0  0  0  0  0  0  0  0  0  0  0  0
    1.7401   -0.9396   -0.3234 O   0  0  0  0  0  0  0  0  0  0  0  0
    0.1895   -2.5505   -0.5971 N   0  0  0  0  0  0  0  0  0  0  0  0
   -0.7941   -2.7704   -0.5404 H   0  0  0  0  0  0  0  0  0  0  0  0
    1.0894   -3.5746   -1.1211 C   0  0  0  0  0  0  0  0  0  0  0  0
    1.8625   -3.7998   -0.3829 H   0  0  0  0  0  0  0  0  0  0  0  0
    0.5319   -4.4844   -1.3455 H   0  0  0  0  0  0  0  0  0  0  0  0
    1.5718   -3.2141   -2.0310 H   0  0  0  0  0  0  0  0  0  0  0  0
  5  6  2  0  0  0  0
  5  7  1  0  0  0  0
  2  3  1  0  0  0  0
  2  4  1  0  0  0  0
  2  5  1  0  0  0  0
  1  2  1  0  0  0  0
 22 23  2  0  0  0  0
 22 24  1  0  0  0  0
 20 21  1  0  0  0  0
 19 20  1  0  0  0  0
 17 18  1  0  0  0  0
 17 19  2  0  0  0  0
 15 16  1  0  0  0  0
 15 17  1  0  0  0  0
 14 15  1  0  0  0  0
 14 20  2  0  0  0  0
 11 12  1  0  0  0  0
 11 13  1  0  0  0  0
 11 14  1  0  0  0  0
  9 10  1  0  0  0  0
  9 11  1  0  0  0  0
  9 22  1  0  0  0  0
  7  8  1  0  0  0  0
  7  9  1  0  0  0  0
 26 27  1  0  0  0  0
 26 28  1  0  0  0  0
 26 29  1  0  0  0  0
 24 25  1  0  0  0  0
 24 26  1  0  0  0  0
M  END
$$$$
default_name
  -OEChem-01062215323D

 29 29  0     1  0  0  0  0  0999 V2000
   -3.6042   -3.5728    1.4576 H   0  0  0  0  0  0  0  0  0  0  0  0
   -3.5202   -2.6488    0.8866 C   0  0  0  0  0  0  0  0  0  0  0  0
   -4.2052   -1.9048    1.2896 H   0  0  0  0  0  0  0  0  0  0  0  0
   -3.7552   -2.8428   -0.1584 H   0  0  0  0  0  0  0  0  0  0  0  0
   -2.1052   -2.1358    0.9946 C   0  0  0  0  0  0  0  0  0  0  0  0
   -1.2852   -2.7288    1.6826 O   0  0  0  0  0  0  0  0  0  0  0  0
   -1.8202   -1.0288    0.3146 N   0  0  0  0  0  0  0  0  0  0  0  0
   -2.5542   -0.5788   -0.2104 H   0  0  0  0  0  0  0  0  0  0  0  0
   -0.5102   -0.3728    0.3086 C   0  0  1  0  0  0  0  0  0  0  0  0
   -0.5555    0.4921   -0.3550 H   0  0  0  0  0  0  0  0  0  0  0  0
   -0.1907    0.1298    1.7286 C   0  0  0  0  0  0  0  0  0  0  0  0
   -0.2239   -0.7126    2.4217 H   0  0  0  0  0  0  0  0  0  0  0  0
    0.8223    0.5361    1.7426 H   0  0  0  0  0  0  0  0  0  0  0  0
   -1.1387    1.1927    2.2203 C   0  0  0  0  0  0  0  0  0  0  0  0
   -1.1591    2.5134    1.8261 N   0  0  0  0  0  0  0  0  0  0  0  0
   -0.4939    2.9619    1.2140 H   0  0  0  0  0  0  0  0  0  0  0  0
   -2.2186    3.1035    2.4046 C   0  0  0  0  0  0  0  0  0  0  0  0
   -2.4958    4.1442    2.2893 H   0  0  0  0  0  0  0  0  0  0  0  0
   -2.8949    2.2166    3.1491 N   0  0  0  0  0  0  0  0  0  0  0  0
   -2.2161    0.9999    3.0434 C   0  0  0  0  0  0  0  0  0  0  0  0
   -2.5087    0.0631    3.4997 H   0  0  0  0  0  0  0  0  0  0  0  0
    0.5740   -1.3220   -0.2291 C   0  0  0  0  0  0  0  0  0  0  0  0
    1.7649   -1.0540   -0.0715 O   0  0  0  0  0  0  0  0  0  0  0  0
    0.1650   -2.4197   -0.8775 N   0  0  0  0  0  0  0  0  0  0  0  0
   -0.8278   -2.5413   -1.0131 H   0  0  0  0  0  0  0  0  0  0  0  0
    1.0602   -3.4251   -1.4439 C   0  0  0  0  0  0  0  0  0  0  0  0
    1.6788   -3.8562   -0.6536 H   0  0  0  0  0  0  0  0  0  0  0  0
    0.4811   -4.2177   -1.9187 H   0  0  0  0  0  0  0  0  0  0  0  0
    1.7145   -2.9638   -2.1852 H   0  0  0  0  0  0  0  0  0  0  0  0
  5  6  2  0  0  0  0
  5  7  1  0  0  0  0
  2  3  1  0  0  0  0
  2  4  1  0  0  0  0
  2  5  1  0  0  0  0
  1  2  1  0  0  0  0
 22 23  2  0  0  0  0
 22 24  1  0  0  0  0
 20 21  1  0  0  0  0
 19 20  1  0  0  0  0
 17 18  1  0  0  0  0
 17 19  2  0  0  0  0
 15 16  1  0  0  0  0
 15 17  1  0  0  0  0
 14 15  1  0  0  0  0
 14 20  2  0  0  0  0
 11 12  1  0  0  0  0
 11 13  1  0  0  0  0
 11 14  1  0  0  0  0
  9 10  1  0  0  0  0
  9 11  1  0  0  0  0
  9 22  1  0  0  0  0
  7  8  1  0  0  0  0
  7  9  1  0  0  0  0
 26 27  1  0  0  0  0
 26 28  1  0  0  0  0
 26 29  1  0  0  0  0
 24 25  1  0  0  0  0
 24 26  1  0  0  0  0
M  END
$$$$
default_name
  -OEChem-01062215323D

 29 29  0     1  0  0  0  0  0999 V2000
   -3.6042   -3.5728    1.4576 H   0  0  0  0  0  0  0  0  0  0  0  0
   -3.5202   -2.6488    0.8866 C   0  0  0  0  0  0  0  0  0  0  0  0
   -4.2052   -1.9048    1.2896 H   0  0  0  0  0  0  0  0  0  0  0  0
   -3.7552   -2.8428   -0.1584 H   0  0  0  0  0  0  0  0  0  0  0  0
   -2.1052   -2.1358    0.9946 C   0  0  0  0  0  0  0  0  0  0  0  0
   -1.2852   -2.7288    1.6826 O   0  0  0  0  0  0  0  0  0  0  0  0
   -1.8202   -1.0288    0.3146 N   0  0  0  0  0  0  0  0  0  0  0  0
   -2.5542   -0.5788   -0.2104 H   0  0  0  0  0  0  0  0  0  0  0  0
   -0.5102   -0.3728    0.3086 C   0  0  1  0  0  0  0  0  0  0  0  0
   -0.5555    0.4921   -0.3550 H   0  0  0  0  0  0  0  0  0  0  0  0
   -0.1907    0.1298    1.7286 C   0  0  0  0  0  0  0  0  0  0  0  0
   -0.2239   -0.7126    2.4217 H   0  0  0  0  0  0  0  0  0  0  0  0
    0.8223    0.5361    1.7426 H   0  0  0  0  0  0  0  0  0  0  0  0
   -1.1387    1.1927    2.2203 C   0  0  0  0  0  0  0  0  0  0  0  0
   -1.1591    2.5134    1.8261 N   0  0  0  0  0  0  0  0  0  0  0  0
   -0.4939    2.9619    1.2140 H   0  0  0  0  0  0  0  0  0  0  0  0
   -2.2186    3.1035    2.4046 C   0  0  0  0  0  0  0  0  0  0  0  0
   -2.4958    4.1442    2.2893 H   0  0  0  0  0  0  0  0  0  0  0  0
   -2.8949    2.2166    3.1491 N   0  0  0  0  0  0  0  0  0  0  0  0
   -2.2161    0.9999    3.0434 C   0  0  0  0  0  0  0  0  0  0  0  0
   -2.5087    0.0631    3.4997 H   0  0  0  0  0  0  0  0  0  0  0  0
    0.5740   -1.3220   -0.2291 C   0  0  0  0  0  0  0  0  0  0  0  0
    1.7382   -1.2126    0.1549 O   0  0  0  0  0  0  0  0  0  0  0  0
    0.1980   -2.2399   -1.1283 N   0  0  0  0  0  0  0  0  0  0  0  0
   -0.7642   -2.2307   -1.4332 H   0  0  0  0  0  0  0  0  0  0  0  0
    1.0970   -3.2192   -1.7332 C   0  0  0  0  0  0  0  0  0  0  0  0
    1.5396   -3.8448   -0.9547 H   0  0  0  0  0  0  0  0  0  0  0  0
    0.5477   -3.8510   -2.4318 H   0  0  0  0  0  0  0  0  0  0  0  0
    1.8997   -2.7067   -2.2657 H   0  0  0  0  0  0  0  0  0  0  0  0
  5  6  2  0  0  0  0
  5  7  1  0  0  0  0
  2  3  1  0  0  0  0
  2  4  1  0  0  0  0
  2  5  1  0  0  0  0
  1  2  1  0  0  0  0
 22 23  2  0  0  0  0
 22 24  1  0  0  0  0
 20 21  1  0  0  0  0
 19 20  1  0  0  0  0
 17 18  1  0  0  0  0
 17 19  2  0  0  0  0
 15 16  1  0  0  0  0
 15 17  1  0  0  0  0
 14 15  1  0  0  0  0
 14 20  2  0  0  0  0
 11 12  1  0  0  0  0
 11 13  1  0  0  0  0
 11 14  1  0  0  0  0
  9 10  1  0  0  0  0
  9 11  1  0  0  0  0
  9 22  1  0  0  0  0
  7  8  1  0  0  0  0
  7  9  1  0  0  0  0
 26 27  1  0  0  0  0
 26 28  1  0  0  0  0
 26 29  1  0  0  0  0
 24 25  1  0  0  0  0
 24 26  1  0  0  0  0
M  END
$$$$
default_name
  -OEChem-01062215323D

 29 29  0     1  0  0  0  0  0999 V2000
   -3.6042   -3.5728    1.4576 H   0  0  0  0  0  0  0  0  0  0  0  0
   -3.5202   -2.6488    0.8866 C   0  0  0  0  0  0  0  0  0  0  0  0
   -4.2052   -1.9048    1.2896 H   0  0  0  0  0  0  0  0  0  0  0  0
   -3.7552   -2.8428   -0.1584 H   0  0  0  0  0  0  0  0  0  0  0  0
   -2.1052   -2.1358    0.9946 C   0  0  0  0  0  0  0  0  0  0  0  0
   -1.2852   -2.7288    1.6826 O   0  0  0  0  0  0  0  0  0  0  0  0
   -1.8202   -1.0288    0.3146 N   0  0  0  0  0  0  0  0  0  0  0  0
   -2.5542   -0.5788   -0.2104 H   0  0  0  0  0  0  0  0  0  0  0  0
   -0.5102   -0.3728    0.3086 C   0  0  1  0  0  0  0  0  0  0  0  0
   -0.5555    0.4921   -0.3550 H   0  0  0  0  0  0  0  0  0  0  0  0
   -0.1907    0.1298    1.7286 C   0  0  0  0  0  0  0  0  0  0  0  0
   -0.2239   -0.7126    2.4217 H   0  0  0  0  0  0  0  0  0  0  0  0
    0.8223    0.5361    1.7426 H   0  0  0  0  0  0  0  0  0  0  0  0
   -1.1387    1.1927    2.2203 C   0  0  0  0  0  0  0  0  0  0  0  0
   -1.1591    2.5134    1.8261 N   0  0  0  0  0  0  0  0  0  0  0  0
   -0.4939    2.9619    1.2140 H   0  0  0  0  0  0  0  0  0  0  0  0
   -2.2186    3.1035    2.4046 C   0  0  0  0  0  0  0  0  0  0  0  0
   -2.4958    4.1442    2.2893 H   0  0  0  0  0  0  0  0  0  0  0  0
   -2.8949    2.2166    3.1491 N   0  0  0  0  0  0  0  0  0  0  0  0
   -2.2161    0.9999    3.0434 C   0  0  0  0  0  0  0  0  0  0  0  0
   -2.5087    0.0631    3.4997 H   0  0  0  0  0  0  0  0  0  0  0  0
    0.5740   -1.3220   -0.2291 C   0  0  0  0  0  0  0  0  0  0  0  0
    1.6620   -1.4047    0.3403 O   0  0  0  0  0  0  0  0  0  0  0  0
    0.2862   -2.0235   -1.3325 N   0  0  0  0  0  0  0  0  0  0  0  0
   -0.6076   -1.8598   -1.7722 H   0  0  0  0  0  0  0  0  0  0  0  0
    1.1974   -2.9709   -1.9692 C   0  0  0  0  0  0  0  0  0  0  0  0
    1.4542   -3.7662   -1.2657 H   0  0  0  0  0  0  0  0  0  0  0  0
    0.7272   -3.4092   -2.8499 H   0  0  0  0  0  0  0  0  0  0  0  0
    2.1146   -2.4605   -2.2670 H   0  0  0  0  0  0  0  0  0  0  0  0
  5  6  2  0  0  0  0
  5  7  1  0  0  0  0
  2  3  1  0  0  0  0
  2  4  1  0  0  0  0
  2  5  1  0  0  0  0
  1  2  1  0  0  0  0
 22 23  2  0  0  0  0
 22 24  1  0  0  0  0
 20 21  1  0  0  0  0
 19 20  1  0  0  0  0
 17 18  1  0  0  0  0
 17 19  2  0  0  0  0
 15 16  1  0  0  0  0
 15 17  1  0  0  0  0
 14 15  1  0  0  0  0
 14 20  2  0  0  0  0
 11 12  1  0  0  0  0
 11 13  1  0  0  0  0
 11 14  1  0  0  0  0
  9 10  1  0  0  0  0
  9 11  1  0  0  0  0
  9 22  1  0  0  0  0
  7  8  1  0  0  0  0
  7  9  1  0  0  0  0
 26 27  1  0  0  0  0
 26 28  1  0  0  0  0
 26 29  1  0  0  0  0
 24 25  1  0  0  0  0
 24 26  1  0  0  0  0
M  END
$$$$
default_name
  -OEChem-01062215323D

 29 29  0     1  0  0  0  0  0999 V2000
   -3.6042   -3.5728    1.4576 H   0  0  0  0  0  0  0  0  0  0  0  0
   -3.5202   -2.6488    0.8866 C   0  0  0  0  0  0  0  0  0  0  0  0
   -4.2052   -1.9048    1.2896 H   0  0  0  0  0  0  0  0  0  0  0  0
   -3.7552   -2.8428   -0.1584 H   0  0  0  0  0  0  0  0  0  0  0  0
   -2.1052   -2.1358    0.9946 C   0  0  0  0  0  0  0  0  0  0  0  0
   -1.2852   -2.7288    1.6826 O   0  0  0  0  0  0  0  0  0  0  0  0
   -1.8202   -1.0288    0.3146 N   0  0  0  0  0  0  0  0  0  0  0  0
   -2.5542   -0.5788   -0.2104 H   0  0  0  0  0  0  0  0  0  0  0  0
   -0.5102   -0.3728    0.3086 C   0  0  1  0  0  0  0  0  0  0  0  0
   -0.5555    0.4921   -0.3550 H   0  0  0  0  0  0  0  0  0  0  0  0
   -0.1907    0.1298    1.7286 C   0  0  0  0  0  0  0  0  0  0  0  0
   -0.2239   -0.7126    2.4217 H   0  0  0  0  0  0  0  0  0  0  0  0
    0.8223    0.5361    1.7426 H   0  0  0  0  0  0  0  0  0  0  0  0
   -1.1387    1.1927    2.2203 C   0  0  0  0  0  0  0  0  0  0  0  0
   -1.1591    2.5134    1.8261 N   0  0  0  0  0  0  0  0  0  0  0  0
   -0.4939    2.9619    1.2140 H   0  0  0  0  0  0  0  0  0  0  0  0
   -2.2186    3.1035    2.4046 C   0  0  0  0  0  0  0  0  0  0  0  0
   -2.4958    4.1442    2.2893 H   0  0  0  0  0  0  0  0  0  0  0  0
   -2.8949    2.2166    3.1491 N   0  0  0  0  0  0  0  0  0  0  0  0
   -2.2161    0.9999    3.0434 C   0  0  0  0  0  0  0  0  0  0  0  0
   -2.5087    0.0631    3.4997 H   0  0  0  0  0  0  0  0  0  0  0  0
    0.5740   -1.3220   -0.2291 C   0  0  0  0  0  0  0  0  0  0  0  0
    1.5414   -1.6172    0.4723 O   0  0  0  0  0  0  0  0  0  0  0  0
    0.4236   -1.7852   -1.4762 N   0  0  0  0  0  0  0  0  0  0  0  0
   -0.3686   -1.4538   -2.0069 H   0  0  0  0  0  0  0  0  0  0  0  0
    1.3546   -2.6971   -2.1357 C   0  0  0  0  0  0  0  0  0  0  0  0
    1.4285   -3.6258   -1.5654 H   0  0  0  0  0  0  0  0  0  0  0  0
    1.0073   -2.9224   -3.1445 H   0  0  0  0  0  0  0  0  0  0  0  0
    2.3447   -2.2418   -2.1890 H   0  0  0  0  0  0  0  0  0  0  0  0
  5  6  2  0  0  0  0
  5  7  1  0  0  0  0
  2  3  1  0  0  0  0
  2  4  1  0  0  0  0
  2  5  1  0  0  0  0
  1  2  1  0  0  0  0
 22 23  2  0  0  0  0
 22 24  1  0  0  0  0
 20 21  1  0  0  0  0
 19 20  1  0  0  0  0
 17 18  1  0  0  0  0
 17 19  2  0  0  0  0
 15 16  1  0  0  0  0
 15 17  1  0  0  0  0
 14 15  1  0  0  0  0
 14 20  2  0  0  0  0
 11 12  1  0  0  0  0
 11 13  1  0  0  0  0
 11 14  1  0  0  0  0
  9 10  1  0  0  0  0
  9 11  1  0  0  0  0
  9 22  1  0  0  0  0
  7  8  1  0  0  0  0
  7  9  1  0  0  0  0
 26 27  1  0  0  0  0
 26 28  1  0  0  0  0
 26 29  1  0  0  0  0
 24 25  1  0  0  0  0
 24 26  1  0  0  0  0
M  END
$$$$
default_name
  -OEChem-01062215323D

 29 29  0     1  0  0  0  0  0999 V2000
   -3.6042   -3.5728    1.4576 H   0  0  0  0  0  0  0  0  0  0  0  0
   -3.5202   -2.6488    0.8866 C   0  0  0  0  0  0  0  0  0  0  0  0
   -4.2052   -1.9048    1.2896 H   0  0  0  0  0  0  0  0  0  0  0  0
   -3.7552   -2.8428   -0.1584 H   0  0  0  0  0  0  0  0  0  0  0  0
   -2.1052   -2.1358    0.9946 C   0  0  0  0  0  0  0  0  0  0  0  0
   -1.2852   -2.7288    1.6826 O   0  0  0  0  0  0  0  0  0  0  0  0
   -1.8202   -1.0288    0.3146 N   0  0  0  0  0  0  0  0  0  0  0  0
   -2.5542   -0.5788   -0.2104 H   0  0  0  0  0  0  0  0  0  0  0  0
   -0.5102   -0.3728    0.3086 C   0  0  1  0  0  0  0  0  0  0  0  0
   -0.5555    0.4921   -0.3550 H   0  0  0  0  0  0  0  0  0  0  0  0
   -0.1907    0.1298    1.7286 C   0  0  0  0  0  0  0  0  0  0  0  0
   -0.2239   -0.7126    2.4217 H   0  0  0  0  0  0  0  0  0  0  0  0
    0.8223    0.5361    1.7426 H   0  0  0  0  0  0  0  0  0  0  0  0
   -1.1387    1.1927    2.2203 C   0  0  0  0  0  0  0  0  0  0  0  0
   -1.1591    2.5134    1.8261 N   0  0  0  0  0  0  0  0  0  0  0  0
   -0.4939    2.9619    1.2140 H   0  0  0  0  0  0  0  0  0  0  0  0
   -2.2186    3.1035    2.4046 C   0  0  0  0  0  0  0  0  0  0  0  0
   -2.4958    4.1442    2.2893 H   0  0  0  0  0  0  0  0  0  0  0  0
   -2.8949    2.2166    3.1491 N   0  0  0  0  0  0  0  0  0  0  0  0
   -2.2161    0.9999    3.0434 C   0  0  0  0  0  0  0  0  0  0  0  0
   -2.5087    0.0631    3.4997 H   0  0  0  0  0  0  0  0  0  0  0  0
    0.5740   -1.3220   -0.2291 C   0  0  0  0  0  0  0  0  0  0  0  0
    1.3845   -1.8357    0.5417 O   0  0  0  0  0  0  0  0  0  0  0  0
    0.6008   -1.5412   -1.5496 N   0  0  0  0  0  0  0  0  0  0  0  0
   -0.0635   -1.0405   -2.1214 H   0  0  0  0  0  0  0  0  0  0  0  0
    1.5577   -2.4164   -2.2216 C   0  0  0  0  0  0  0  0  0  0  0  0
    1.4642   -3.4332   -1.8334 H   0  0  0  0  0  0  0  0  0  0  0  0
    1.3690   -2.4238   -3.2955 H   0  0  0  0  0  0  0  0  0  0  0  0
    2.5743   -2.0657   -2.0369 H   0  0  0  0  0  0  0  0  0  0  0  0
  5  6  2  0  0  0  0
  5  7  1  0  0  0  0
  2  3  1  0  0  0  0
  2  4  1  0  0  0  0
  2  5  1  0  0  0  0
  1  2  1  0  0  0  0
 22 23  2  0  0  0  0
 22 24  1  0  0  0  0
 20 21  1  0  0  0  0
 19 20  1  0  0  0  0
 17 18  1  0  0  0  0
 17 19  2  0  0  0  0
 15 16  1  0  0  0  0
 15 17  1  0  0  0  0
 14 15  1  0  0  0  0
 14 20  2  0  0  0  0
 11 12  1  0  0  0  0
 11 13  1  0  0  0  0
 11 14  1  0  0  0  0
  9 10  1  0  0  0  0
  9 11  1  0  0  0  0
  9 22  1  0  0  0  0
  7  8  1  0  0  0  0
  7  9  1  0  0  0  0
 26 27  1  0  0  0  0
 26 28  1  0  0  0  0
 26 29  1  0  0  0  0
 24 25  1  0  0  0  0
 24 26  1  0  0  0  0
M  END
$$$$
default_name
  -OEChem-01062215323D

 29 29  0     1  0  0  0  0  0999 V2000
   -3.6042   -3.5728    1.4576 H   0  0  0  0  0  0  0  0  0  0  0  0
   -3.5202   -2.6488    0.8866 C   0  0  0  0  0  0  0  0  0  0  0  0
   -4.2052   -1.9048    1.2896 H   0  0  0  0  0  0  0  0  0  0  0  0
   -3.7552   -2.8428   -0.1584 H   0  0  0  0  0  0  0  0  0  0  0  0
   -2.1052   -2.1358    0.9946 C   0  0  0  0  0  0  0  0  0  0  0  0
   -1.2852   -2.7288    1.6826 O   0  0  0  0  0  0  0  0  0  0  0  0
   -1.8202   -1.0288    0.3146 N   0  0  0  0  0  0  0  0  0  0  0  0
   -2.5542   -0.5788   -0.2104 H   0  0  0  0  0  0  0  0  0  0  0  0
   -0.5102   -0.3728    0.3086 C   0  0  1  0  0  0  0  0  0  0  0  0
   -0.5555    0.4921   -0.3550 H   0  0  0  0  0  0  0  0  0  0  0  0
   -0.1907    0.1298    1.7286 C   0  0  0  0  0  0  0  0  0  0  0  0
   -0.2239   -0.7126    2.4217 H   0  0  0  0  0  0  0  0  0  0  0  0
    0.8223    0.5361    1.7426 H   0  0  0  0  0  0  0  0  0  0  0  0
   -1.1387    1.1927    2.2203 C   0  0  0  0  0  0  0  0  0  0  0  0
   -1.1591    2.5134    1.8261 N   0  0  0  0  0  0  0  0  0  0  0  0
   -0.4939    2.9619    1.2140 H   0  0  0  0  0  0  0  0  0  0  0  0
   -2.2186    3.1035    2.4046 C   0  0  0  0  0  0  0  0  0  0  0  0
   -2.4958    4.1442    2.2893 H   0  0  0  0  0  0  0  0  0  0  0  0
   -2.8949    2.2166    3.1491 N   0  0  0  0  0  0  0  0  0  0  0  0
   -2.2161    0.9999    3.0434 C   0  0  0  0  0  0  0  0  0  0  0  0
   -2.5087    0.0631    3.4997 H   0  0  0  0  0  0  0  0  0  0  0  0
    0.5740   -1.3220   -0.2291 C   0  0  0  0  0  0  0  0  0  0  0  0
    1.2022   -2.0451    0.5438 O   0  0  0  0  0  0  0  0  0  0  0  0
    0.8058   -1.3082   -1.5476 N   0  0  0  0  0  0  0  0  0  0  0  0
    0.2869   -0.6480   -2.1078 H   0  0  0  0  0  0  0  0  0  0  0  0
    1.7931   -2.1480   -2.2208 C   0  0  0  0  0  0  0  0  0  0  0  0
    1.5590   -3.2015   -2.0513 H   0  0  0  0  0  0  0  0  0  0  0  0
    1.7876   -1.9473   -3.2925 H   0  0  0  0  0  0  0  0  0  0  0  0
    2.7877   -1.9441   -1.8213 H   0  0  0  0  0  0  0  0  0  0  0  0
  5  6  2  0  0  0  0
  5  7  1  0  0  0  0
  2  3  1  0  0  0  0
  2  4  1  0  0  0  0
  2  5  1  0  0  0  0
  1  2  1  0  0  0  0
 22 23  2  0  0  0  0
 22 24  1  0  0  0  0
 20 21  1  0  0  0  0
 19 20  1  0  0  0  0
 17 18  1  0  0  0  0
 17 19  2  0  0  0  0
 15 16  1  0  0  0  0
 15 17  1  0  0  0  0
 14 15  1  0  0  0  0
 14 20  2  0  0  0  0
 11 12  1  0  0  0  0
 11 13  1  0  0  0  0
 11 14  1  0  0  0  0
  9 10  1  0  0  0  0
  9 11  1  0  0  0  0
  9 22  1  0  0  0  0
  7  8  1  0  0  0  0
  7  9  1  0  0  0  0
 26 27  1  0  0  0  0
 26 28  1  0  0  0  0
 26 29  1  0  0  0  0
 24 25  1  0  0  0  0
 24 26  1  0  0  0  0
M  END
$$$$
default_name
  -OEChem-01062215323D

 29 29  0     1  0  0  0  0  0999 V2000
   -3.6042   -3.5728    1.4576 H   0  0  0  0  0  0  0  0  0  0  0  0
   -3.5202   -2.6488    0.8866 C   0  0  0  0  0  0  0  0  0  0  0  0
   -4.2052   -1.9048    1.2896 H   0  0  0  0  0  0  0  0  0  0  0  0
   -3.7552   -2.8428   -0.1584 H   0  0  0  0  0  0  0  0  0  0  0  0
   -2.1052   -2.1358    0.9946 C   0  0  0  0  0  0  0  0  0  0  0  0
   -1.2852   -2.7288    1.6826 O   0  0  0  0  0  0  0  0  0  0  0  0
   -1.8202   -1.0288    0.3146 N   0  0  0  0  0  0  0  0  0  0  0  0
   -2.5542   -0.5788   -0.2104 H   0  0  0  0  0  0  0  0  0  0  0  0
   -0.5102   -0.3728    0.3086 C   0  0  1  0  0  0  0  0  0  0  0  0
   -0.5555    0.4921   -0.3550 H   0  0  0  0  0  0  0  0  0  0  0  0
   -0.1907    0.1298    1.7286 C   0  0  0  0  0  0  0  0  0  0  0  0
   -0.2239   -0.7126    2.4217 H   0  0  0  0  0  0  0  0  0  0  0  0
    0.8223    0.5361    1.7426 H   0  0  0  0  0  0  0  0  0  0  0  0
   -1.1387    1.1927    2.2203 C   0  0  0  0  0  0  0  0  0  0  0  0
   -1.1591    2.5134    1.8261 N   0  0  0  0  0  0  0  0  0  0  0  0
   -0.4939    2.9619    1.2140 H   0  0  0  0  0  0  0  0  0  0  0  0
   -2.2186    3.1035    2.4046 C   0  0  0  0  0  0  0  0  0  0  0  0
   -2.4958    4.1442    2.2893 H   0  0  0  0  0  0  0  0  0  0  0  0
   -2.8949    2.2166    3.1491 N   0  0  0  0  0  0  0  0  0  0  0  0
   -2.2161    0.9999    3.0434 C   0  0  0  0  0  0  0  0  0  0  0  0
   -2.5087    0.0631    3.4997 H   0  0  0  0  0  0  0  0  0  0  0  0
    0.5740   -1.3220   -0.2291 C   0  0  0  0  0  0  0  0  0  0  0  0
    1.0068   -2.2313    0.4785 O   0  0  0  0  0  0  0  0  0  0  0  0
    1.0246   -1.1020   -1.4705 N   0  0  0  0  0  0  0  0  0  0  0  0
    0.6587   -0.3030   -1.9671 H   0  0  0  0  0  0  0  0  0  0  0  0
    2.0445   -1.9102   -2.1335 C   0  0  0  0  0  0  0  0  0  0  0  0
    1.7063   -2.9464   -2.2045 H   0  0  0  0  0  0  0  0  0  0  0  0
    2.2345   -1.5255   -3.1359 H   0  0  0  0  0  0  0  0  0  0  0  0
    2.9704   -1.8853   -1.5567 H   0  0  0  0  0  0  0  0  0  0  0  0
  5  6  2  0  0  0  0
  5  7  1  0  0  0  0
  2  3  1  0  0  0  0
  2  4  1  0  0  0  0
  2  5  1  0  0  0  0
  1  2  1  0  0  0  0
 22 23  2  0  0  0  0
 22 24  1  0  0  0  0
 20 21  1  0  0  0  0
 19 20  1  0  0  0  0
 17 18  1  0  0  0  0
 17 19  2  0  0  0  0
 15 16  1  0  0  0  0
 15 17  1  0  0  0  0
 14 15  1  0  0  0  0
 14 20  2  0  0  0  0
 11 12  1  0  0  0  0
 11 13  1  0  0  0  0
 11 14  1  0  0  0  0
  9 10  1  0  0  0  0
  9 11  1  0  0  0  0
  9 22  1  0  0  0  0
  7  8  1  0  0  0  0
  7  9  1  0  0  0  0
 26 27  1  0  0  0  0
 26 28  1  0  0  0  0
 26 29  1  0  0  0  0
 24 25  1  0  0  0  0
 24 26  1  0  0  0  0
M  END
$$$$
default_name
  -OEChem-01062215323D

 29 29  0     1  0  0  0  0  0999 V2000
   -3.6042   -3.5728    1.4576 H   0  0  0  0  0  0  0  0  0  0  0  0
   -3.5202   -2.6488    0.8866 C   0  0  0  0  0  0  0  0  0  0  0  0
   -4.2052   -1.9048    1.2896 H   0  0  0  0  0  0  0  0  0  0  0  0
   -3.7552   -2.8428   -0.1584 H   0  0  0  0  0  0  0  0  0  0  0  0
   -2.1052   -2.1358    0.9946 C   0  0  0  0  0  0  0  0  0  0  0  0
   -1.2852   -2.7288    1.6826 O   0  0  0  0  0  0  0  0  0  0  0  0
   -1.8202   -1.0288    0.3146 N   0  0  0  0  0  0  0  0  0  0  0  0
   -2.5542   -0.5788   -0.2104 H   0  0  0  0  0  0  0  0  0  0  0  0
   -0.5102   -0.3728    0.3086 C   0  0  1  0  0  0  0  0  0  0  0  0
   -0.5555    0.4921   -0.3550 H   0  0  0  0  0  0  0  0  0  0  0  0
   -0.1907    0.1298    1.7286 C   0  0  0  0  0  0  0  0  0  0  0  0
   -0.2239   -0.7126    2.4217 H   0  0  0  0  0  0  0  0  0  0  0  0
    0.8223    0.5361    1.7426 H   0  0  0  0  0  0  0  0  0  0  0  0
   -1.1387    1.1927    2.2203 C   0  0  0  0  0  0  0  0  0  0  0  0
   -1.1591    2.5134    1.8261 N   0  0  0  0  0  0  0  0  0  0  0  0
   -0.4939    2.9619    1.2140 H   0  0  0  0  0  0  0  0  0  0  0  0
   -2.2186    3.1035    2.4046 C   0  0  0  0  0  0  0  0  0  0  0  0
   -2.4958    4.1442    2.2893 H   0  0  0  0  0  0  0  0  0  0  0  0
   -2.8949    2.2166    3.1491 N   0  0  0  0  0  0  0  0  0  0  0  0
   -2.2161    0.9999    3.0434 C   0  0  0  0  0  0  0  0  0  0  0  0
   -2.5087    0.0631    3.4997 H   0  0  0  0  0  0  0  0  0  0  0  0
    0.5740   -1.3220   -0.2291 C   0  0  0  0  0  0  0  0  0  0  0  0
    0.8116   -2.3816    0.3502 O   0  0  0  0  0  0  0  0  0  0  0  0
    1.2422   -0.9367   -1.3234 N   0  0  0  0  0  0  0  0  0  0  0  0
    1.0266   -0.0291   -1.7089 H   0  0  0  0  0  0  0  0  0  0  0  0
    2.2950   -1.7192   -1.9656 C   0  0  0  0  0  0  0  0  0  0  0  0
    1.8961   -2.6855   -2.2824 H   0  0  0  0  0  0  0  0  0  0  0  0
    2.6794   -1.1871   -2.8363 H   0  0  0  0  0  0  0  0  0  0  0  0
    3.1099   -1.8932   -1.2613 H   0  0  0  0  0  0  0  0  0  0  0  0
  5  6  2  0  0  0  0
  5  7  1  0  0  0  0
  2  3  1  0  0  0  0
  2  4  1  0  0  0  0
  2  5  1  0  0  0  0
  1  2  1  0  0  0  0
 22 23  2  0  0  0  0
 22 24  1  0  0  0  0
 20 21  1  0  0  0  0
 19 20  1  0  0  0  0
 17 18  1  0  0  0  0
 17 19  2  0  0  0  0
 15 16  1  0  0  0  0
 15 17  1  0  0  0  0
 14 15  1  0  0  0  0
 14 20  2  0  0  0  0
 11 12  1  0  0  0  0
 11 13  1  0  0  0  0
 11 14  1  0  0  0  0
  9 10  1  0  0  0  0
  9 11  1  0  0  0  0
  9 22  1  0  0  0  0
  7  8  1  0  0  0  0
  7  9  1  0  0  0  0
 26 27  1  0  0  0  0
 26 28  1  0  0  0  0
 26 29  1  0  0  0  0
 24 25  1  0  0  0  0
 24 26  1  0  0  0  0
M  END
$$$$
default_name
  -OEChem-01062215323D

 29 29  0     1  0  0  0  0  0999 V2000
   -3.6042   -3.5728    1.4576 H   0  0  0  0  0  0  0  0  0  0  0  0
   -3.5202   -2.6488    0.8866 C   0  0  0  0  0  0  0  0  0  0  0  0
   -4.2052   -1.9048    1.2896 H   0  0  0  0  0  0  0  0  0  0  0  0
   -3.7552   -2.8428   -0.1584 H   0  0  0  0  0  0  0  0  0  0  0  0
   -2.1052   -2.1358    0.9946 C   0  0  0  0  0  0  0  0  0  0  0  0
   -1.2852   -2.7288    1.6826 O   0  0  0  0  0  0  0  0  0  0  0  0
   -1.8202   -1.0288    0.3146 N   0  0  0  0  0  0  0  0  0  0  0  0
   -2.5542   -0.5788   -0.2104 H   0  0  0  0  0  0  0  0  0  0  0  0
   -0.5102   -0.3728    0.3086 C   0  0  1  0  0  0  0  0  0  0  0  0
   -0.5555    0.4921   -0.3550 H   0  0  0  0  0  0  0  0  0  0  0  0
   -0.1907    0.1298    1.7286 C   0  0  0  0  0  0  0  0  0  0  0  0
   -0.2239   -0.7126    2.4217 H   0  0  0  0  0  0  0  0  0  0  0  0
    0.8223    0.5361    1.7426 H   0  0  0  0  0  0  0  0  0  0  0  0
   -1.1387    1.1927    2.2203 C   0  0  0  0  0  0  0  0  0  0  0  0
   -1.1591    2.5134    1.8261 N   0  0  0  0  0  0  0  0  0  0  0  0
   -0.4939    2.9619    1.2140 H   0  0  0  0  0  0  0  0  0  0  0  0
   -2.2186    3.1035    2.4046 C   0  0  0  0  0  0  0  0  0  0  0  0
   -2.4958    4.1442    2.2893 H   0  0  0  0  0  0  0  0  0  0  0  0
   -2.8949    2.2166    3.1491 N   0  0  0  0  0  0  0  0  0  0  0  0
   -2.2161    0.9999    3.0434 C   0  0  0  0  0  0  0  0  0  0  0  0
   -2.5087    0.0631    3.4997 H   0  0  0  0  0  0  0  0  0  0  0  0
    0.5740   -1.3220   -0.2291 C   0  0  0  0  0  0  0  0  0  0  0  0
    0.6300   -2.4857    0.1678 O   0  0  0  0  0  0  0  0  0  0  0  0
    1.4439   -0.8236   -1.1164 N   0  0  0  0  0  0  0  0  0  0  0  0
    1.3654    0.1551   -1.3508 H   0  0  0  0  0  0  0  0  0  0  0  0
    2.5275   -1.5880   -1.7286 C   0  0  0  0  0  0  0  0  0  0  0  0
    2.1155   -2.4364   -2.2796 H   0  0  0  0  0  0  0  0  0  0  0  0
    3.0919   -0.9551   -2.4141 H   0  0  0  0  0  0  0  0  0  0  0  0
    3.1968   -1.9675   -0.9550 H   0  0  0  0  0  0  0  0  0  0  0  0
  5  6  2  0  0  0  0
  5  7  1  0  0  0  0
  2  3  1  0  0  0  0
  2  4  1  0  0  0  0
  2  5  1  0  0  0  0
  1  2  1  0  0  0  0
 22 23  2  0  0  0  0
 22 24  1  0  0  0  0
 20 21  1  0  0  0  0
 19 20  1  0  0  0  0
 17 18  1  0  0  0  0
 17 19  2  0  0  0  0
 15 16  1  0  0  0  0
 15 17  1  0  0  0  0
 14 15  1  0  0  0  0
 14 20  2  0  0  0  0
 11 12  1  0  0  0  0
 11 13  1  0  0  0  0
 11 14  1  0  0  0  0
  9 10  1  0  0  0  0
  9 11  1  0  0  0  0
  9 22  1  0  0  0  0
  7  8  1  0  0  0  0
  7  9  1  0  0  0  0
 26 27  1  0  0  0  0
 26 28  1  0  0  0  0
 26 29  1  0  0  0  0
 24 25  1  0  0  0  0
 24 26  1  0  0  0  0
M  END
$$$$
default_name
  -OEChem-01062215323D

 29 29  0     1  0  0  0  0  0999 V2000
   -3.6042   -3.5728    1.4576 H   0  0  0  0  0  0  0  0  0  0  0  0
   -3.5202   -2.6488    0.8866 C   0  0  0  0  0  0  0  0  0  0  0  0
   -4.2052   -1.9048    1.2896 H   0  0  0  0  0  0  0  0  0  0  0  0
   -3.7552   -2.8428   -0.1584 H   0  0  0  0  0  0  0  0  0  0  0  0
   -2.1052   -2.1358    0.9946 C   0  0  0  0  0  0  0  0  0  0  0  0
   -1.2852   -2.7288    1.6826 O   0  0  0  0  0  0  0  0  0  0  0  0
   -1.8202   -1.0288    0.3146 N   0  0  0  0  0  0  0  0  0  0  0  0
   -2.5542   -0.5788   -0.2104 H   0  0  0  0  0  0  0  0  0  0  0  0
   -0.5102   -0.3728    0.3086 C   0  0  1  0  0  0  0  0  0  0  0  0
   -0.5555    0.4921   -0.3550 H   0  0  0  0  0  0  0  0  0  0  0  0
   -0.1907    0.1298    1.7286 C   0  0  0  0  0  0  0  0  0  0  0  0
   -0.2239   -0.7126    2.4217 H   0  0  0  0  0  0  0  0  0  0  0  0
    0.8223    0.5361    1.7426 H   0  0  0  0  0  0  0  0  0  0  0  0
   -1.1387    1.1927    2.2203 C   0  0  0  0  0  0  0  0  0  0  0  0
   -1.1591    2.5134    1.8261 N   0  0  0  0  0  0  0  0  0  0  0  0
   -0.4939    2.9619    1.2140 H   0  0  0  0  0  0  0  0  0  0  0  0
   -2.2186    3.1035    2.4046 C   0  0  0  0  0  0  0  0  0  0  0  0
   -2.4958    4.1442    2.2893 H   0  0  0  0  0  0  0  0  0  0  0  0
   -2.8949    2.2166    3.1491 N   0  0  0  0  0  0  0  0  0  0  0  0
   -2.2161    0.9999    3.0434 C   0  0  0  0  0  0  0  0  0  0  0  0
   -2.5087    0.0631    3.4997 H   0  0  0  0  0  0  0  0  0  0  0  0
    0.5740   -1.3220   -0.2291 C   0  0  0  0  0  0  0  0  0  0  0  0
    0.4743   -2.5365   -0.0565 O   0  0  0  0  0  0  0  0  0  0  0  0
    1.6159   -0.7703   -0.8637 N   0  0  0  0  0  0  0  0  0  0  0  0
    1.6522    0.2370   -0.9171 H   0  0  0  0  0  0  0  0  0  0  0  0
    2.7260   -1.5255   -1.4386 C   0  0  0  0  0  0  0  0  0  0  0  0
    2.3496   -2.2162   -2.1965 H   0  0  0  0  0  0  0  0  0  0  0  0
    3.4439   -0.8454   -1.8980 H   0  0  0  0  0  0  0  0  0  0  0  0
    3.2251   -2.1029   -0.6589 H   0  0  0  0  0  0  0  0  0  0  0  0
  5  6  2  0  0  0  0
  5  7  1  0  0  0  0
  2  3  1  0  0  0  0
  2  4  1  0  0  0  0
  2  5  1  0  0  0  0
  1  2  1  0  0  0  0
 22 23  2  0  0  0  0
 22 24  1  0  0  0  0
 20 21  1  0  0  0  0
 19 20  1  0  0  0  0
 17 18  1  0  0  0  0
 17 19  2  0  0  0  0
 15 16  1  0  0  0  0
 15 17  1  0  0  0  0
 14 15  1  0  0  0  0
 14 20  2  0  0  0  0
 11 12  1  0  0  0  0
 11 13  1  0  0  0  0
 11 14  1  0  0  0  0
  9 10  1  0  0  0  0
  9 11  1  0  0  0  0
  9 22  1  0  0  0  0
  7  8  1  0  0  0  0
  7  9  1  0  0  0  0
 26 27  1  0  0  0  0
 26 28  1  0  0  0  0
 26 29  1  0  0  0  0
 24 25  1  0  0  0  0
 24 26  1  0  0  0  0
M  END
$$$$
default_name
  -OEChem-01062215323D

 29 29  0     1  0  0  0  0  0999 V2000
   -3.6042   -3.5728    1.4576 H   0  0  0  0  0  0  0  0  0  0  0  0
   -3.5202   -2.6488    0.8866 C   0  0  0  0  0  0  0  0  0  0  0  0
   -4.2052   -1.9048    1.2896 H   0  0  0  0  0  0  0  0  0  0  0  0
   -3.7552   -2.8428   -0.1584 H   0  0  0  0  0  0  0  0  0  0  0  0
   -2.1052   -2.1358    0.9946 C   0  0  0  0  0  0  0  0  0  0  0  0
   -1.2852   -2.7288    1.6826 O   0  0  0  0  0  0  0  0  0  0  0  0
   -1.8202   -1.0288    0.3146 N   0  0  0  0  0  0  0  0  0  0  0  0
   -2.5542   -0.5788   -0.2104 H   0  0  0  0  0  0  0  0  0  0  0  0
   -0.5102   -0.3728    0.3086 C   0  0  1  0  0  0  0  0  0  0  0  0
   -0.5555    0.4921   -0.3550 H   0  0  0  0  0  0  0  0  0  0  0  0
   -0.1907    0.1298    1.7286 C   0  0  0  0  0  0  0  0  0  0  0  0
   -0.2239   -0.7126    2.4217 H   0  0  0  0  0  0  0  0  0  0  0  0
    0.8223    0.5361    1.7426 H   0  0  0  0  0  0  0  0  0  0  0  0
   -1.1387    1.1927    2.2203 C   0  0  0  0  0  0  0  0  0  0  0  0
   -1.1591    2.5134    1.8261 N   0  0  0  0  0  0  0  0  0  0  0  0
   -0.4939    2.9619    1.2140 H   0  0  0  0  0  0  0  0  0  0  0  0
   -2.2186    3.1035    2.4046 C   0  0  0  0  0  0  0  0  0  0  0  0
   -2.4958    4.1442    2.2893 H   0  0  0  0  0  0  0  0  0  0  0  0
   -2.8949    2.2166    3.1491 N   0  0  0  0  0  0  0  0  0  0  0  0
   -2.2161    0.9999    3.0434 C   0  0  0  0  0  0  0  0  0  0  0  0
   -2.5087    0.0631    3.4997 H   0  0  0  0  0  0  0  0  0  0  0  0
    0.5740   -1.3220   -0.2291 C   0  0  0  0  0  0  0  0  0  0  0  0
    0.3551   -2.5306   -0.3073 O   0  0  0  0  0  0  0  0  0  0  0  0
    1.7464   -0.7806   -0.5823 N   0  0  0  0  0  0  0  0  0  0  0  0
    1.8673    0.2111   -0.4375 H   0  0  0  0  0  0  0  0  0  0  0  0
    2.8771   -1.5360   -1.1154 C   0  0  0  0  0  0  0  0  0  0  0  0
    2.5823   -2.0398   -2.0387 H   0  0  0  0  0  0  0  0  0  0  0  0
    3.7113   -0.8654   -1.3233 H   0  0  0  0  0  0  0  0  0  0  0  0
    3.1928   -2.2903   -0.3930 H   0  0  0  0  0  0  0  0  0  0  0  0
  5  6  2  0  0  0  0
  5  7  1  0  0  0  0
  2  3  1  0  0  0  0
  2  4  1  0  0  0  0
  2  5  1  0  0  0  0
  1  2  1  0  0  0  0
 22 23  2  0  0  0  0
 22 24  1  0  0  0  0
 20 21  1  0  0  0  0
 19 20  1  0  0  0  0
 17 18  1  0  0  0  0
 17 19  2  0  0  0  0
 15 16  1  0  0  0  0
 15 17  1  0  0  0  0
 14 15  1  0  0  0  0
 14 20  2  0  0  0  0
 11 12  1  0  0  0  0
 11 13  1  0  0  0  0
 11 14  1  0  0  0  0
  9 10  1  0  0  0  0
  9 11  1  0  0  0  0
  9 22  1  0  0  0  0
  7  8  1  0  0  0  0
  7  9  1  0  0  0  0
 26 27  1  0  0  0  0
 26 28  1  0  0  0  0
 26 29  1  0  0  0  0
 24 25  1  0  0  0  0
 24 26  1  0  0  0  0
M  END
$$$$
default_name
  -OEChem-01062215323D

 29 29  0     1  0  0  0  0  0999 V2000
   -3.6042   -3.5728    1.4576 H   0  0  0  0  0  0  0  0  0  0  0  0
   -3.5202   -2.6488    0.8866 C   0  0  0  0  0  0  0  0  0  0  0  0
   -4.2052   -1.9048    1.2896 H   0  0  0  0  0  0  0  0  0  0  0  0
   -3.7552   -2.8428   -0.1584 H   0  0  0  0  0  0  0  0  0  0  0  0
   -2.1052   -2.1358    0.9946 C   0  0  0  0  0  0  0  0  0  0  0  0
   -1.2852   -2.7288    1.6826 O   0  0  0  0  0  0  0  0  0  0  0  0
   -1.8202   -1.0288    0.3146 N   0  0  0  0  0  0  0  0  0  0  0  0
   -2.5542   -0.5788   -0.2104 H   0  0  0  0  0  0  0  0  0  0  0  0
   -0.5102   -0.3728    0.3086 C   0  0  1  0  0  0  0  0  0  0  0  0
   -0.6192    0.6215   -0.1270 H   0  0  0  0  0  0  0  0  0  0  0  0
   -0.0211   -0.2085    1.7594 C   0  0  0  0  0  0  0  0  0  0  0  0
    0.0137   -1.1889    2.2379 H   0  0  0  0  0  0  0  0  0  0  0  0
    0.9926    0.1962    1.7494 H   0  0  0  0  0  0  0  0  0  0  0  0
   -0.8901    0.6996    2.5903 C   0  0  0  0  0  0  0  0  0  0  0  0
   -0.9365    2.0753    2.5174 N   0  0  0  0  0  0  0  0  0  0  0  0
   -0.3402    2.6617    1.9528 H   0  0  0  0  0  0  0  0  0  0  0  0
   -1.9132    2.5021    3.3356 C   0  0  0  0  0  0  0  0  0  0  0  0
   -2.1866    3.5377    3.4972 H   0  0  0  0  0  0  0  0  0  0  0  0
   -2.5117    1.4585    3.9281 N   0  0  0  0  0  0  0  0  0  0  0  0
   -1.8677    0.3080    3.4657 C   0  0  0  0  0  0  0  0  0  0  0  0
   -2.1192   -0.7126    3.7237 H   0  0  0  0  0  0  0  0  0  0  0  0
    0.4904   -1.1581   -0.5562 C   0  0  0  0  0  0  0  0  0  0  0  0
    0.1430   -2.1986   -1.1142 O   0  0  0  0  0  0  0  0  0  0  0  0
    1.7342   -0.6722   -0.6534 N   0  0  0  0  0  0  0  0  0  0  0  0
    1.9564    0.1569   -0.1221 H   0  0  0  0  0  0  0  0  0  0  0  0
    2.8022   -1.2888   -1.4359 C   0  0  0  0  0  0  0  0  0  0  0  0
    2.5064   -1.3435   -2.4860 H   0  0  0  0  0  0  0  0  0  0  0  0
    3.7165   -0.7009   -1.3509 H   0  0  0  0  0  0  0  0  0  0  0  0
    2.9900   -2.3010   -1.0743 H   0  0  0  0  0  0  0  0  0  0  0  0
  5  6  2  0  0  0  0
  5  7  1  0  0  0  0
  2  3  1  0  0  0  0
  2  4  1  0  0  0  0
  2  5  1  0  0  0  0
  1  2  1  0  0  0  0
 22 23  2  0  0  0  0
 22 24  1  0  0  0  0
 20 21  1  0  0  0  0
 19 20  1  0  0  0  0
 17 18  1  0  0  0  0
 17 19  2  0  0  0  0
 15 16  1  0  0  0  0
 15 17  1  0  0  0  0
 14 15  1  0  0  0  0
 14 20  2  0  0  0  0
 11 12  1  0  0  0  0
 11 13  1  0  0  0  0
 11 14  1  0  0  0  0
  9 10  1  0  0  0  0
  9 11  1  0  0  0  0
  9 22  1  0  0  0  0
  7  8  1  0  0  0  0
  7  9  1  0  0  0  0
 26 27  1  0  0  0  0
 26 28  1  0  0  0  0
 26 29  1  0  0  0  0
 24 25  1  0  0  0  0
 24 26  1  0  0  0  0
M  END
$$$$
default_name
  -OEChem-01062215323D

 29 29  0     1  0  0  0  0  0999 V2000
   -3.6042   -3.5728    1.4576 H   0  0  0  0  0  0  0  0  0  0  0  0
   -3.5202   -2.6488    0.8866 C   0  0  0  0  0  0  0  0  0  0  0  0
   -4.2052   -1.9048    1.2896 H   0  0  0  0  0  0  0  0  0  0  0  0
   -3.7552   -2.8428   -0.1584 H   0  0  0  0  0  0  0  0  0  0  0  0
   -2.1052   -2.1358    0.9946 C   0  0  0  0  0  0  0  0  0  0  0  0
   -1.2852   -2.7288    1.6826 O   0  0  0  0  0  0  0  0  0  0  0  0
   -1.8202   -1.0288    0.3146 N   0  0  0  0  0  0  0  0  0  0  0  0
   -2.5542   -0.5788   -0.2104 H   0  0  0  0  0  0  0  0  0  0  0  0
   -0.5102   -0.3728    0.3086 C   0  0  1  0  0  0  0  0  0  0  0  0
   -0.6192    0.6215   -0.1270 H   0  0  0  0  0  0  0  0  0  0  0  0
   -0.0211   -0.2085    1.7594 C   0  0  0  0  0  0  0  0  0  0  0  0
    0.0137   -1.1889    2.2379 H   0  0  0  0  0  0  0  0  0  0  0  0
    0.9926    0.1962    1.7494 H   0  0  0  0  0  0  0  0  0  0  0  0
   -0.8901    0.6996    2.5903 C   0  0  0  0  0  0  0  0  0  0  0  0
   -0.9365    2.0753    2.5174 N   0  0  0  0  0  0  0  0  0  0  0  0
   -0.3402    2.6617    1.9528 H   0  0  0  0  0  0  0  0  0  0  0  0
   -1.9132    2.5021    3.3356 C   0  0  0  0  0  0  0  0  0  0  0  0
   -2.1866    3.5377    3.4972 H   0  0  0  0  0  0  0  0  0  0  0  0
   -2.5117    1.4585    3.9281 N   0  0  0  0  0  0  0  0  0  0  0  0
   -1.8677    0.3080    3.4657 C   0  0  0  0  0  0  0  0  0  0  0  0
   -2.1192   -0.7126    3.7237 H   0  0  0  0  0  0  0  0  0  0  0  0
    0.4904   -1.1581   -0.5562 C   0  0  0  0  0  0  0  0  0  0  0  0
    0.0909   -2.0294   -1.3282 O   0  0  0  0  0  0  0  0  0  0  0  0
    1.7890   -0.8641   -0.4157 N   0  0  0  0  0  0  0  0  0  0  0  0
    2.0413   -0.1750    0.2775 H   0  0  0  0  0  0  0  0  0  0  0  0
    2.8664   -1.5086   -1.1620 C   0  0  0  0  0  0  0  0  0  0  0  0
    2.7210   -1.3489   -2.2328 H   0  0  0  0  0  0  0  0  0  0  0  0
    3.8294   -1.0923   -0.8649 H   0  0  0  0  0  0  0  0  0  0  0  0
    2.8624   -2.5821   -0.9667 H   0  0  0  0  0  0  0  0  0  0  0  0
  5  6  2  0  0  0  0
  5  7  1  0  0  0  0
  2  3  1  0  0  0  0
  2  4  1  0  0  0  0
  2  5  1  0  0  0  0
  1  2  1  0  0  0  0
 22 23  2  0  0  0  0
 22 24  1  0  0  0  0
 20 21  1  0  0  0  0
 19 20  1  0  0  0  0
 17 18  1  0  0  0  0
 17 19  2  0  0  0  0
 15 16  1  0  0  0  0
 15 17  1  0  0  0  0
 14 15  1  0  0  0  0
 14 20  2  0  0  0  0
 11 12  1  0  0  0  0
 11 13  1  0  0  0  0
 11 14  1  0  0  0  0
  9 10  1  0  0  0  0
  9 11  1  0  0  0  0
  9 22  1  0  0  0  0
  7  8  1  0  0  0  0
  7  9  1  0  0  0  0
 26 27  1  0  0  0  0
 26 28  1  0  0  0  0
 26 29  1  0  0  0  0
 24 25  1  0  0  0  0
 24 26  1  0  0  0  0
M  END
$$$$
default_name
  -OEChem-01062215323D

 29 29  0     1  0  0  0  0  0999 V2000
   -3.6042   -3.5728    1.4576 H   0  0  0  0  0  0  0  0  0  0  0  0
   -3.5202   -2.6488    0.8866 C   0  0  0  0  0  0  0  0  0  0  0  0
   -4.2052   -1.9048    1.2896 H   0  0  0  0  0  0  0  0  0  0  0  0
   -3.7552   -2.8428   -0.1584 H   0  0  0  0  0  0  0  0  0  0  0  0
   -2.1052   -2.1358    0.9946 C   0  0  0  0  0  0  0  0  0  0  0  0
   -1.2852   -2.7288    1.6826 O   0  0  0  0  0  0  0  0  0  0  0  0
   -1.8202   -1.0288    0.3146 N   0  0  0  0  0  0  0  0  0  0  0  0
   -2.5542   -0.5788   -0.2104 H   0  0  0  0  0  0  0  0  0  0  0  0
   -0.5102   -0.3728    0.3086 C   0  0  1  0  0  0  0  0  0  0  0  0
   -0.6192    0.6215   -0.1270 H   0  0  0  0  0  0  0  0  0  0  0  0
   -0.0211   -0.2085    1.7594 C   0  0  0  0  0  0  0  0  0  0  0  0
    0.0137   -1.1889    2.2379 H   0  0  0  0  0  0  0  0  0  0  0  0
    0.9926    0.1962    1.7494 H   0  0  0  0  0  0  0  0  0  0  0  0
   -0.8901    0.6996    2.5903 C   0  0  0  0  0  0  0  0  0  0  0  0
   -0.9365    2.0753    2.5174 N   0  0  0  0  0  0  0  0  0  0  0  0
   -0.3402    2.6617    1.9528 H   0  0  0  0  0  0  0  0  0  0  0  0
   -1.9132    2.5021    3.3356 C   0  0  0  0  0  0  0  0  0  0  0  0
   -2.1866    3.5377    3.4972 H   0  0  0  0  0  0  0  0  0  0  0  0
   -2.5117    1.4585    3.9281 N   0  0  0  0  0  0  0  0  0  0  0  0
   -1.8677    0.3080    3.4657 C   0  0  0  0  0  0  0  0  0  0  0  0
   -2.1192   -0.7126    3.7237 H   0  0  0  0  0  0  0  0  0  0  0  0
    0.4904   -1.1581   -0.5562 C   0  0  0  0  0  0  0  0  0  0  0  0
    0.0934   -1.8223   -1.5132 O   0  0  0  0  0  0  0  0  0  0  0  0
    1.7826   -1.0974   -0.2112 N   0  0  0  0  0  0  0  0  0  0  0  0
    2.0222   -0.5752    0.6188 H   0  0  0  0  0  0  0  0  0  0  0  0
    2.8603   -1.7763   -0.9260 C   0  0  0  0  0  0  0  0  0  0  0  0
    2.8940   -1.4280   -1.9608 H   0  0  0  0  0  0  0  0  0  0  0  0
    3.8173   -1.5687   -0.4463 H   0  0  0  0  0  0  0  0  0  0  0  0
    2.6841   -2.8531   -0.9269 H   0  0  0  0  0  0  0  0  0  0  0  0
  5  6  2  0  0  0  0
  5  7  1  0  0  0  0
  2  3  1  0  0  0  0
  2  4  1  0  0  0  0
  2  5  1  0  0  0  0
  1  2  1  0  0  0  0
 22 23  2  0  0  0  0
 22 24  1  0  0  0  0
 20 21  1  0  0  0  0
 19 20  1  0  0  0  0
 17 18  1  0  0  0  0
 17 19  2  0  0  0  0
 15 16  1  0  0  0  0
 15 17  1  0  0  0  0
 14 15  1  0  0  0  0
 14 20  2  0  0  0  0
 11 12  1  0  0  0  0
 11 13  1  0  0  0  0
 11 14  1  0  0  0  0
  9 10  1  0  0  0  0
  9 11  1  0  0  0  0
  9 22  1  0  0  0  0
  7  8  1  0  0  0  0
  7  9  1  0  0  0  0
 26 27  1  0  0  0  0
 26 28  1  0  0  0  0
 26 29  1  0  0  0  0
 24 25  1  0  0  0  0
 24 26  1  0  0  0  0
M  END
$$$$
default_name
  -OEChem-01062215323D

 29 29  0     1  0  0  0  0  0999 V2000
   -3.6042   -3.5728    1.4576 H   0  0  0  0  0  0  0  0  0  0  0  0
   -3.5202   -2.6488    0.8866 C   0  0  0  0  0  0  0  0  0  0  0  0
   -4.2052   -1.9048    1.2896 H   0  0  0  0  0  0  0  0  0  0  0  0
   -3.7552   -2.8428   -0.1584 H   0  0  0  0  0  0  0  0  0  0  0  0
   -2.1052   -2.1358    0.9946 C   0  0  0  0  0  0  0  0  0  0  0  0
   -1.2852   -2.7288    1.6826 O   0  0  0  0  0  0  0  0  0  0  0  0
   -1.8202   -1.0288    0.3146 N   0  0  0  0  0  0  0  0  0  0  0  0
   -2.5542   -0.5788   -0.2104 H   0  0  0  0  0  0  0  0  0  0  0  0
   -0.5102   -0.3728    0.3086 C   0  0  1  0  0  0  0  0  0  0  0  0
   -0.6192    0.6215   -0.1270 H   0  0  0  0  0  0  0  0  0  0  0  0
   -0.0211   -0.2085    1.7594 C   0  0  0  0  0  0  0  0  0  0  0  0
    0.0137   -1.1889    2.2379 H   0  0  0  0  0  0  0  0  0  0  0  0
    0.9926    0.1962    1.7494 H   0  0  0  0  0  0  0  0  0  0  0  0
   -0.8901    0.6996    2.5903 C   0  0  0  0  0  0  0  0  0  0  0  0
   -0.9365    2.0753    2.5174 N   0  0  0  0  0  0  0  0  0  0  0  0
   -0.3402    2.6617    1.9528 H   0  0  0  0  0  0  0  0  0  0  0  0
   -1.9132    2.5021    3.3356 C   0  0  0  0  0  0  0  0  0  0  0  0
   -2.1866    3.5377    3.4972 H   0  0  0  0  0  0  0  0  0  0  0  0
   -2.5117    1.4585    3.9281 N   0  0  0  0  0  0  0  0  0  0  0  0
   -1.8677    0.3080    3.4657 C   0  0  0  0  0  0  0  0  0  0  0  0
   -2.1192   -0.7126    3.7237 H   0  0  0  0  0  0  0  0  0  0  0  0
    0.4904   -1.1581   -0.5562 C   0  0  0  0  0  0  0  0  0  0  0  0
    0.1505   -1.5915   -1.6568 O   0  0  0  0  0  0  0  0  0  0  0  0
    1.7155   -1.3563   -0.0538 N   0  0  0  0  0  0  0  0  0  0  0  0
    1.9004   -1.0165    0.8786 H   0  0  0  0  0  0  0  0  0  0  0  0
    2.7842   -2.0737   -0.7439 C   0  0  0  0  0  0  0  0  0  0  0  0
    3.0137   -1.5754   -1.6885 H   0  0  0  0  0  0  0  0  0  0  0  0
    3.6809   -2.0975   -0.1239 H   0  0  0  0  0  0  0  0  0  0  0  0
    2.4671   -3.0956   -0.9577 H   0  0  0  0  0  0  0  0  0  0  0  0
  5  6  2  0  0  0  0
  5  7  1  0  0  0  0
  2  3  1  0  0  0  0
  2  4  1  0  0  0  0
  2  5  1  0  0  0  0
  1  2  1  0  0  0  0
 22 23  2  0  0  0  0
 22 24  1  0  0  0  0
 20 21  1  0  0  0  0
 19 20  1  0  0  0  0
 17 18  1  0  0  0  0
 17 19  2  0  0  0  0
 15 16  1  0  0  0  0
 15 17  1  0  0  0  0
 14 15  1  0  0  0  0
 14 20  2  0  0  0  0
 11 12  1  0  0  0  0
 11 13  1  0  0  0  0
 11 14  1  0  0  0  0
  9 10  1  0  0  0  0
  9 11  1  0  0  0  0
  9 22  1  0  0  0  0
  7  8  1  0  0  0  0
  7  9  1  0  0  0  0
 26 27  1  0  0  0  0
 26 28  1  0  0  0  0
 26 29  1  0  0  0  0
 24 25  1  0  0  0  0
 24 26  1  0  0  0  0
M  END
$$$$
default_name
  -OEChem-01062215323D

 29 29  0     1  0  0  0  0  0999 V2000
   -3.6042   -3.5728    1.4576 H   0  0  0  0  0  0  0  0  0  0  0  0
   -3.5202   -2.6488    0.8866 C   0  0  0  0  0  0  0  0  0  0  0  0
   -4.2052   -1.9048    1.2896 H   0  0  0  0  0  0  0  0  0  0  0  0
   -3.7552   -2.8428   -0.1584 H   0  0  0  0  0  0  0  0  0  0  0  0
   -2.1052   -2.1358    0.9946 C   0  0  0  0  0  0  0  0  0  0  0  0
   -1.2852   -2.7288    1.6826 O   0  0  0  0  0  0  0  0  0  0  0  0
   -1.8202   -1.0288    0.3146 N   0  0  0  0  0  0  0  0  0  0  0  0
   -2.5542   -0.5788   -0.2104 H   0  0  0  0  0  0  0  0  0  0  0  0
   -0.5102   -0.3728    0.3086 C   0  0  1  0  0  0  0  0  0  0  0  0
   -0.6192    0.6215   -0.1270 H   0  0  0  0  0  0  0  0  0  0  0  0
   -0.0211   -0.2085    1.7594 C   0  0  0  0  0  0  0  0  0  0  0  0
    0.0137   -1.1889    2.2379 H   0  0  0  0  0  0  0  0  0  0  0  0
    0.9926    0.1962    1.7494 H   0  0  0  0  0  0  0  0  0  0  0  0
   -0.8901    0.6996    2.5903 C   0  0  0  0  0  0  0  0  0  0  0  0
   -0.9365    2.0753    2.5174 N   0  0  0  0  0  0  0  0  0  0  0  0
   -0.3402    2.6617    1.9528 H   0  0  0  0  0  0  0  0  0  0  0  0
   -1.9132    2.5021    3.3356 C   0  0  0  0  0  0  0  0  0  0  0  0
   -2.1866    3.5377    3.4972 H   0  0  0  0  0  0  0  0  0  0  0  0
   -2.5117    1.4585    3.9281 N   0  0  0  0  0  0  0  0  0  0  0  0
   -1.8677    0.3080    3.4657 C   0  0  0  0  0  0  0  0  0  0  0  0
   -2.1192   -0.7126    3.7237 H   0  0  0  0  0  0  0  0  0  0  0  0
    0.4904   -1.1581   -0.5562 C   0  0  0  0  0  0  0  0  0  0  0  0
    0.2581   -1.3527   -1.7490 O   0  0  0  0  0  0  0  0  0  0  0  0
    1.5922   -1.6231    0.0458 N   0  0  0  0  0  0  0  0  0  0  0  0
    1.6842   -1.4687    1.0391 H   0  0  0  0  0  0  0  0  0  0  0  0
    2.6434   -2.3806   -0.6281 C   0  0  0  0  0  0  0  0  0  0  0  0
    3.0718   -1.7810   -1.4345 H   0  0  0  0  0  0  0  0  0  0  0  0
    3.4296   -2.6427    0.0805 H   0  0  0  0  0  0  0  0  0  0  0  0
    2.2263   -3.2931   -1.0570 H   0  0  0  0  0  0  0  0  0  0  0  0
  5  6  2  0  0  0  0
  5  7  1  0  0  0  0
  2  3  1  0  0  0  0
  2  4  1  0  0  0  0
  2  5  1  0  0  0  0
  1  2  1  0  0  0  0
 22 23  2  0  0  0  0
 22 24  1  0  0  0  0
 20 21  1  0  0  0  0
 19 20  1  0  0  0  0
 17 18  1  0  0  0  0
 17 19  2  0  0  0  0
 15 16  1  0  0  0  0
 15 17  1  0  0  0  0
 14 15  1  0  0  0  0
 14 20  2  0  0  0  0
 11 12  1  0  0  0  0
 11 13  1  0  0  0  0
 11 14  1  0  0  0  0
  9 10  1  0  0  0  0
  9 11  1  0  0  0  0
  9 22  1  0  0  0  0
  7  8  1  0  0  0  0
  7  9  1  0  0  0  0
 26 27  1  0  0  0  0
 26 28  1  0  0  0  0
 26 29  1  0  0  0  0
 24 25  1  0  0  0  0
 24 26  1  0  0  0  0
M  END
$$$$
default_name
  -OEChem-01062215323D

 29 29  0     1  0  0  0  0  0999 V2000
   -3.6042   -3.5728    1.4576 H   0  0  0  0  0  0  0  0  0  0  0  0
   -3.5202   -2.6488    0.8866 C   0  0  0  0  0  0  0  0  0  0  0  0
   -4.2052   -1.9048    1.2896 H   0  0  0  0  0  0  0  0  0  0  0  0
   -3.7552   -2.8428   -0.1584 H   0  0  0  0  0  0  0  0  0  0  0  0
   -2.1052   -2.1358    0.9946 C   0  0  0  0  0  0  0  0  0  0  0  0
   -1.2852   -2.7288    1.6826 O   0  0  0  0  0  0  0  0  0  0  0  0
   -1.8202   -1.0288    0.3146 N   0  0  0  0  0  0  0  0  0  0  0  0
   -2.5542   -0.5788   -0.2104 H   0  0  0  0  0  0  0  0  0  0  0  0
   -0.5102   -0.3728    0.3086 C   0  0  1  0  0  0  0  0  0  0  0  0
   -0.6192    0.6215   -0.1270 H   0  0  0  0  0  0  0  0  0  0  0  0
   -0.0211   -0.2085    1.7594 C   0  0  0  0  0  0  0  0  0  0  0  0
    0.0137   -1.1889    2.2379 H   0  0  0  0  0  0  0  0  0  0  0  0
    0.9926    0.1962    1.7494 H   0  0  0  0  0  0  0  0  0  0  0  0
   -0.8901    0.6996    2.5903 C   0  0  0  0  0  0  0  0  0  0  0  0
   -0.9365    2.0753    2.5174 N   0  0  0  0  0  0  0  0  0  0  0  0
   -0.3402    2.6617    1.9528 H   0  0  0  0  0  0  0  0  0  0  0  0
   -1.9132    2.5021    3.3356 C   0  0  0  0  0  0  0  0  0  0  0  0
   -2.1866    3.5377    3.4972 H   0  0  0  0  0  0  0  0  0  0  0  0
   -2.5117    1.4585    3.9281 N   0  0  0  0  0  0  0  0  0  0  0  0
   -1.8677    0.3080    3.4657 C   0  0  0  0  0  0  0  0  0  0  0  0
   -2.1192   -0.7126    3.7237 H   0  0  0  0  0  0  0  0  0  0  0  0
    0.4904   -1.1581   -0.5562 C   0  0  0  0  0  0  0  0  0  0  0  0
    0.4091   -1.1222   -1.7837 O   0  0  0  0  0  0  0  0  0  0  0  0
    1.4211   -1.8796    0.0808 N   0  0  0  0  0  0  0  0  0  0  0  0
    1.3884   -1.9011    1.0895 H   0  0  0  0  0  0  0  0  0  0  0  0
    2.4475   -2.6761   -0.5866 C   0  0  0  0  0  0  0  0  0  0  0  0
    3.0645   -2.0309   -1.2160 H   0  0  0  0  0  0  0  0  0  0  0  0
    3.0806   -3.1673    0.1529 H   0  0  0  0  0  0  0  0  0  0  0  0
    1.9781   -3.4321   -1.2179 H   0  0  0  0  0  0  0  0  0  0  0  0
  5  6  2  0  0  0  0
  5  7  1  0  0  0  0
  2  3  1  0  0  0  0
  2  4  1  0  0  0  0
  2  5  1  0  0  0  0
  1  2  1  0  0  0  0
 22 23  2  0  0  0  0
 22 24  1  0  0  0  0
 20 21  1  0  0  0  0
 19 20  1  0  0  0  0
 17 18  1  0  0  0  0
 17 19  2  0  0  0  0
 15 16  1  0  0  0  0
 15 17  1  0  0  0  0
 14 15  1  0  0  0  0
 14 20  2  0  0  0  0
 11 12  1  0  0  0  0
 11 13  1  0  0  0  0
 11 14  1  0  0  0  0
  9 10  1  0  0  0  0
  9 11  1  0  0  0  0
  9 22  1  0  0  0  0
  7  8  1  0  0  0  0
  7  9  1  0  0  0  0
 26 27  1  0  0  0  0
 26 28  1  0  0  0  0
 26 29  1  0  0  0  0
 24 25  1  0  0  0  0
 24 26  1  0  0  0  0
M  END
$$$$
default_name
  -OEChem-01062215323D

 29 29  0     1  0  0  0  0  0999 V2000
   -3.6042   -3.5728    1.4576 H   0  0  0  0  0  0  0  0  0  0  0  0
   -3.5202   -2.6488    0.8866 C   0  0  0  0  0  0  0  0  0  0  0  0
   -4.2052   -1.9048    1.2896 H   0  0  0  0  0  0  0  0  0  0  0  0
   -3.7552   -2.8428   -0.1584 H   0  0  0  0  0  0  0  0  0  0  0  0
   -2.1052   -2.1358    0.9946 C   0  0  0  0  0  0  0  0  0  0  0  0
   -1.2852   -2.7288    1.6826 O   0  0  0  0  0  0  0  0  0  0  0  0
   -1.8202   -1.0288    0.3146 N   0  0  0  0  0  0  0  0  0  0  0  0
   -2.5542   -0.5788   -0.2104 H   0  0  0  0  0  0  0  0  0  0  0  0
   -0.5102   -0.3728    0.3086 C   0  0  1  0  0  0  0  0  0  0  0  0
   -0.6192    0.6215   -0.1270 H   0  0  0  0  0  0  0  0  0  0  0  0
   -0.0211   -0.2085    1.7594 C   0  0  0  0  0  0  0  0  0  0  0  0
    0.0137   -1.1889    2.2379 H   0  0  0  0  0  0  0  0  0  0  0  0
    0.9926    0.1962    1.7494 H   0  0  0  0  0  0  0  0  0  0  0  0
   -0.8901    0.6996    2.5903 C   0  0  0  0  0  0  0  0  0  0  0  0
   -0.9365    2.0753    2.5174 N   0  0  0  0  0  0  0  0  0  0  0  0
   -0.3402    2.6617    1.9528 H   0  0  0  0  0  0  0  0  0  0  0  0
   -1.9132    2.5021    3.3356 C   0  0  0  0  0  0  0  0  0  0  0  0
   -2.1866    3.5377    3.4972 H   0  0  0  0  0  0  0  0  0  0  0  0
   -2.5117    1.4585    3.9281 N   0  0  0  0  0  0  0  0  0  0  0  0
   -1.8677    0.3080    3.4657 C   0  0  0  0  0  0  0  0  0  0  0  0
   -2.1192   -0.7126    3.7237 H   0  0  0  0  0  0  0  0  0  0  0  0
    0.4904   -1.1581   -0.5562 C   0  0  0  0  0  0  0  0  0  0  0  0
    0.5930   -0.9157   -1.7585 O   0  0  0  0  0  0  0  0  0  0  0  0
    1.2138   -2.1084    0.0488 N   0  0  0  0  0  0  0  0  0  0  0  0
    1.0330   -2.2842    1.0262 H   0  0  0  0  0  0  0  0  0  0  0  0
    2.2097   -2.9399   -0.6221 C   0  0  0  0  0  0  0  0  0  0  0  0
    2.9922   -2.3079   -1.0481 H   0  0  0  0  0  0  0  0  0  0  0  0
    2.6575   -3.6353    0.0884 H   0  0  0  0  0  0  0  0  0  0  0  0
    1.7394   -3.5032   -1.4296 H   0  0  0  0  0  0  0  0  0  0  0  0
  5  6  2  0  0  0  0
  5  7  1  0  0  0  0
  2  3  1  0  0  0  0
  2  4  1  0  0  0  0
  2  5  1  0  0  0  0
  1  2  1  0  0  0  0
 22 23  2  0  0  0  0
 22 24  1  0  0  0  0
 20 21  1  0  0  0  0
 19 20  1  0  0  0  0
 17 18  1  0  0  0  0
 17 19  2  0  0  0  0
 15 16  1  0  0  0  0
 15 17  1  0  0  0  0
 14 15  1  0  0  0  0
 14 20  2  0  0  0  0
 11 12  1  0  0  0  0
 11 13  1  0  0  0  0
 11 14  1  0  0  0  0
  9 10  1  0  0  0  0
  9 11  1  0  0  0  0
  9 22  1  0  0  0  0
  7  8  1  0  0  0  0
  7  9  1  0  0  0  0
 26 27  1  0  0  0  0
 26 28  1  0  0  0  0
 26 29  1  0  0  0  0
 24 25  1  0  0  0  0
 24 26  1  0  0  0  0
M  END
$$$$
default_name
  -OEChem-01062215323D

 29 29  0     1  0  0  0  0  0999 V2000
   -3.6042   -3.5728    1.4576 H   0  0  0  0  0  0  0  0  0  0  0  0
   -3.5202   -2.6488    0.8866 C   0  0  0  0  0  0  0  0  0  0  0  0
   -4.2052   -1.9048    1.2896 H   0  0  0  0  0  0  0  0  0  0  0  0
   -3.7552   -2.8428   -0.1584 H   0  0  0  0  0  0  0  0  0  0  0  0
   -2.1052   -2.1358    0.9946 C   0  0  0  0  0  0  0  0  0  0  0  0
   -1.2852   -2.7288    1.6826 O   0  0  0  0  0  0  0  0  0  0  0  0
   -1.8202   -1.0288    0.3146 N   0  0  0  0  0  0  0  0  0  0  0  0
   -2.5542   -0.5788   -0.2104 H   0  0  0  0  0  0  0  0  0  0  0  0
   -0.5102   -0.3728    0.3086 C   0  0  1  0  0  0  0  0  0  0  0  0
   -0.6192    0.6215   -0.1270 H   0  0  0  0  0  0  0  0  0  0  0  0
   -0.0211   -0.2085    1.7594 C   0  0  0  0  0  0  0  0  0  0  0  0
    0.0137   -1.1889    2.2379 H   0  0  0  0  0  0  0  0  0  0  0  0
    0.9926    0.1962    1.7494 H   0  0  0  0  0  0  0  0  0  0  0  0
   -0.8901    0.6996    2.5903 C   0  0  0  0  0  0  0  0  0  0  0  0
   -0.9365    2.0753    2.5174 N   0  0  0  0  0  0  0  0  0  0  0  0
   -0.3402    2.6617    1.9528 H   0  0  0  0  0  0  0  0  0  0  0  0
   -1.9132    2.5021    3.3356 C   0  0  0  0  0  0  0  0  0  0  0  0
   -2.1866    3.5377    3.4972 H   0  0  0  0  0  0  0  0  0  0  0  0
   -2.5117    1.4585    3.9281 N   0  0  0  0  0  0  0  0  0  0  0  0
   -1.8677    0.3080    3.4657 C   0  0  0  0  0  0  0  0  0  0  0  0
   -2.1192   -0.7126    3.7237 H   0  0  0  0  0  0  0  0  0  0  0  0
    0.4904   -1.1581   -0.5562 C   0  0  0  0  0  0  0  0  0  0  0  0
    0.7974   -0.7472   -1.6750 O   0  0  0  0  0  0  0  0  0  0  0  0
    0.9846   -2.2939   -0.0481 N   0  0  0  0  0  0  0  0  0  0  0  0
    0.6424   -2.5919    0.8536 H   0  0  0  0  0  0  0  0  0  0  0  0
    1.9463   -3.1542   -0.7322 C   0  0  0  0  0  0  0  0  0  0  0  0
    2.8599   -2.5933   -0.9421 H   0  0  0  0  0  0  0  0  0  0  0  0
    2.1893   -4.0150   -0.1086 H   0  0  0  0  0  0  0  0  0  0  0  0
    1.5265   -3.5015   -1.6776 H   0  0  0  0  0  0  0  0  0  0  0  0
  5  6  2  0  0  0  0
  5  7  1  0  0  0  0
  2  3  1  0  0  0  0
  2  4  1  0  0  0  0
  2  5  1  0  0  0  0
  1  2  1  0  0  0  0
 22 23  2  0  0  0  0
 22 24  1  0  0  0  0
 20 21  1  0  0  0  0
 19 20  1  0  0  0  0
 17 18  1  0  0  0  0
 17 19  2  0  0  0  0
 15 16  1  0  0  0  0
 15 17  1  0  0  0  0
 14 15  1  0  0  0  0
 14 20  2  0  0  0  0
 11 12  1  0  0  0  0
 11 13  1  0  0  0  0
 11 14  1  0  0  0  0
  9 10  1  0  0  0  0
  9 11  1  0  0  0  0
  9 22  1  0  0  0  0
  7  8  1  0  0  0  0
  7  9  1  0  0  0  0
 26 27  1  0  0  0  0
 26 28  1  0  0  0  0
 26 29  1  0  0  0  0
 24 25  1  0  0  0  0
 24 26  1  0  0  0  0
M  END
$$$$
default_name
  -OEChem-01062215323D

 29 29  0     1  0  0  0  0  0999 V2000
   -3.6042   -3.5728    1.4576 H   0  0  0  0  0  0  0  0  0  0  0  0
   -3.5202   -2.6488    0.8866 C   0  0  0  0  0  0  0  0  0  0  0  0
   -4.2052   -1.9048    1.2896 H   0  0  0  0  0  0  0  0  0  0  0  0
   -3.7552   -2.8428   -0.1584 H   0  0  0  0  0  0  0  0  0  0  0  0
   -2.1052   -2.1358    0.9946 C   0  0  0  0  0  0  0  0  0  0  0  0
   -1.2852   -2.7288    1.6826 O   0  0  0  0  0  0  0  0  0  0  0  0
   -1.8202   -1.0288    0.3146 N   0  0  0  0  0  0  0  0  0  0  0  0
   -2.5542   -0.5788   -0.2104 H   0  0  0  0  0  0  0  0  0  0  0  0
   -0.5102   -0.3728    0.3086 C   0  0  1  0  0  0  0  0  0  0  0  0
   -0.6192    0.6215   -0.1270 H   0  0  0  0  0  0  0  0  0  0  0  0
   -0.0211   -0.2085    1.7594 C   0  0  0  0  0  0  0  0  0  0  0  0
    0.0137   -1.1889    2.2379 H   0  0  0  0  0  0  0  0  0  0  0  0
    0.9926    0.1962    1.7494 H   0  0  0  0  0  0  0  0  0  0  0  0
   -0.8901    0.6996    2.5903 C   0  0  0  0  0  0  0  0  0  0  0  0
   -0.9365    2.0753    2.5174 N   0  0  0  0  0  0  0  0  0  0  0  0
   -0.3402    2.6617    1.9528 H   0  0  0  0  0  0  0  0  0  0  0  0
   -1.9132    2.5021    3.3356 C   0  0  0  0  0  0  0  0  0  0  0  0
   -2.1866    3.5377    3.4972 H   0  0  0  0  0  0  0  0  0  0  0  0
   -2.5117    1.4585    3.9281 N   0  0  0  0  0  0  0  0  0  0  0  0
   -1.8677    0.3080    3.4657 C   0  0  0  0  0  0  0  0  0  0  0  0
   -2.1192   -0.7126    3.7237 H   0  0  0  0  0  0  0  0  0  0  0  0
    0.4904   -1.1581   -0.5562 C   0  0  0  0  0  0  0  0  0  0  0  0
    1.0083   -0.6282   -1.5390 O   0  0  0  0  0  0  0  0  0  0  0  0
    0.7490   -2.4234   -0.2031 N   0  0  0  0  0  0  0  0  0  0  0  0
    0.2432   -2.8032    0.5835 H   0  0  0  0  0  0  0  0  0  0  0  0
    1.6753   -3.3043   -0.9095 C   0  0  0  0  0  0  0  0  0  0  0  0
    2.6765   -2.8675   -0.9052 H   0  0  0  0  0  0  0  0  0  0  0  0
    1.7078   -4.2805   -0.4247 H   0  0  0  0  0  0  0  0  0  0  0  0
    1.3538   -3.4271   -1.9450 H   0  0  0  0  0  0  0  0  0  0  0  0
  5  6  2  0  0  0  0
  5  7  1  0  0  0  0
  2  3  1  0  0  0  0
  2  4  1  0  0  0  0
  2  5  1  0  0  0  0
  1  2  1  0  0  0  0
 22 23  2  0  0  0  0
 22 24  1  0  0  0  0
 20 21  1  0  0  0  0
 19 20  1  0  0  0  0
 17 18  1  0  0  0  0
 17 19  2  0  0  0  0
 15 16  1  0  0  0  0
 15 17  1  0  0  0  0
 14 15  1  0  0  0  0
 14 20  2  0  0  0  0
 11 12  1  0  0  0  0
 11 13  1  0  0  0  0
 11 14  1  0  0  0  0
  9 10  1  0  0  0  0
  9 11  1  0  0  0  0
  9 22  1  0  0  0  0
  7  8  1  0  0  0  0
  7  9  1  0  0  0  0
 26 27  1  0  0  0  0
 26 28  1  0  0  0  0
 26 29  1  0  0  0  0
 24 25  1  0  0  0  0
 24 26  1  0  0  0  0
M  END
$$$$
default_name
  -OEChem-01062215323D

 29 29  0     1  0  0  0  0  0999 V2000
   -3.6042   -3.5728    1.4576 H   0  0  0  0  0  0  0  0  0  0  0  0
   -3.5202   -2.6488    0.8866 C   0  0  0  0  0  0  0  0  0  0  0  0
   -4.2052   -1.9048    1.2896 H   0  0  0  0  0  0  0  0  0  0  0  0
   -3.7552   -2.8428   -0.1584 H   0  0  0  0  0  0  0  0  0  0  0  0
   -2.1052   -2.1358    0.9946 C   0  0  0  0  0  0  0  0  0  0  0  0
   -1.2852   -2.7288    1.6826 O   0  0  0  0  0  0  0  0  0  0  0  0
   -1.8202   -1.0288    0.3146 N   0  0  0  0  0  0  0  0  0  0  0  0
   -2.5542   -0.5788   -0.2104 H   0  0  0  0  0  0  0  0  0  0  0  0
   -0.5102   -0.3728    0.3086 C   0  0  1  0  0  0  0  0  0  0  0  0
   -0.6192    0.6215   -0.1270 H   0  0  0  0  0  0  0  0  0  0  0  0
   -0.0211   -0.2085    1.7594 C   0  0  0  0  0  0  0  0  0  0  0  0
    0.0137   -1.1889    2.2379 H   0  0  0  0  0  0  0  0  0  0  0  0
    0.9926    0.1962    1.7494 H   0  0  0  0  0  0  0  0  0  0  0  0
   -0.8901    0.6996    2.5903 C   0  0  0  0  0  0  0  0  0  0  0  0
   -0.9365    2.0753    2.5174 N   0  0  0  0  0  0  0  0  0  0  0  0
   -0.3402    2.6617    1.9528 H   0  0  0  0  0  0  0  0  0  0  0  0
   -1.9132    2.5021    3.3356 C   0  0  0  0  0  0  0  0  0  0  0  0
   -2.1866    3.5377    3.4972 H   0  0  0  0  0  0  0  0  0  0  0  0
   -2.5117    1.4585    3.9281 N   0  0  0  0  0  0  0  0  0  0  0  0
   -1.8677    0.3080    3.4657 C   0  0  0  0  0  0  0  0  0  0  0  0
   -2.1192   -0.7126    3.7237 H   0  0  0  0  0  0  0  0  0  0  0  0
    0.4904   -1.1581   -0.5562 C   0  0  0  0  0  0  0  0  0  0  0  0
    1.2113   -0.5669   -1.3597 O   0  0  0  0  0  0  0  0  0  0  0  0
    0.5231   -2.4880   -0.4058 N   0  0  0  0  0  0  0  0  0  0  0  0
   -0.1376   -2.9037    0.2343 H   0  0  0  0  0  0  0  0  0  0  0  0
    1.4151   -3.3801   -1.1419 C   0  0  0  0  0  0  0  0  0  0  0  0
    2.4546   -3.1119   -0.9400 H   0  0  0  0  0  0  0  0  0  0  0  0
    1.2458   -4.4136   -0.8383 H   0  0  0  0  0  0  0  0  0  0  0  0
    1.2332   -3.2851   -2.2135 H   0  0  0  0  0  0  0  0  0  0  0  0
  5  6  2  0  0  0  0
  5  7  1  0  0  0  0
  2  3  1  0  0  0  0
  2  4  1  0  0  0  0
  2  5  1  0  0  0  0
  1  2  1  0  0  0  0
 22 23  2  0  0  0  0
 22 24  1  0  0  0  0
 20 21  1  0  0  0  0
 19 20  1  0  0  0  0
 17 18  1  0  0  0  0
 17 19  2  0  0  0  0
 15 16  1  0  0  0  0
 15 17  1  0  0  0  0
 14 15  1  0  0  0  0
 14 20  2  0  0  0  0
 11 12  1  0  0  0  0
 11 13  1  0  0  0  0
 11 14  1  0  0  0  0
  9 10  1  0  0  0  0
  9 11  1  0  0  0  0
  9 22  1  0  0  0  0
  7  8  1  0  0  0  0
  7  9  1  0  0  0  0
 26 27  1  0  0  0  0
 26 28  1  0  0  0  0
 26 29  1  0  0  0  0
 24 25  1  0  0  0  0
 24 26  1  0  0  0  0
M  END
$$$$
default_name
  -OEChem-01062215323D

 29 29  0     1  0  0  0  0  0999 V2000
   -3.6042   -3.5728    1.4576 H   0  0  0  0  0  0  0  0  0  0  0  0
   -3.5202   -2.6488    0.8866 C   0  0  0  0  0  0  0  0  0  0  0  0
   -4.2052   -1.9048    1.2896 H   0  0  0  0  0  0  0  0  0  0  0  0
   -3.7552   -2.8428   -0.1584 H   0  0  0  0  0  0  0  0  0  0  0  0
   -2.1052   -2.1358    0.9946 C   0  0  0  0  0  0  0  0  0  0  0  0
   -1.2852   -2.7288    1.6826 O   0  0  0  0  0  0  0  0  0  0  0  0
   -1.8202   -1.0288    0.3146 N   0  0  0  0  0  0  0  0  0  0  0  0
   -2.5542   -0.5788   -0.2104 H   0  0  0  0  0  0  0  0  0  0  0  0
   -0.5102   -0.3728    0.3086 C   0  0  1  0  0  0  0  0  0  0  0  0
   -0.6192    0.6215   -0.1270 H   0  0  0  0  0  0  0  0  0  0  0  0
   -0.0211   -0.2085    1.7594 C   0  0  0  0  0  0  0  0  0  0  0  0
    0.0137   -1.1889    2.2379 H   0  0  0  0  0  0  0  0  0  0  0  0
    0.9926    0.1962    1.7494 H   0  0  0  0  0  0  0  0  0  0  0  0
   -0.8901    0.6996    2.5903 C   0  0  0  0  0  0  0  0  0  0  0  0
   -0.9365    2.0753    2.5174 N   0  0  0  0  0  0  0  0  0  0  0  0
   -0.3402    2.6617    1.9528 H   0  0  0  0  0  0  0  0  0  0  0  0
   -1.9132    2.5021    3.3356 C   0  0  0  0  0  0  0  0  0  0  0  0
   -2.1866    3.5377    3.4972 H   0  0  0  0  0  0  0  0  0  0  0  0
   -2.5117    1.4585    3.9281 N   0  0  0  0  0  0  0  0  0  0  0  0
   -1.8677    0.3080    3.4657 C   0  0  0  0  0  0  0  0  0  0  0  0
   -2.1192   -0.7126    3.7237 H   0  0  0  0  0  0  0  0  0  0  0  0
    0.4904   -1.1581   -0.5562 C   0  0  0  0  0  0  0  0  0  0  0  0
    1.3927   -0.5674   -1.1494 O   0  0  0  0  0  0  0  0  0  0  0  0
    0.3222   -2.4835   -0.6424 N   0  0  0  0  0  0  0  0  0  0  0  0
   -0.4738   -2.8866   -0.1703 H   0  0  0  0  0  0  0  0  0  0  0  0
    1.1835   -3.3762   -1.4134 C   0  0  0  0  0  0  0  0  0  0  0  0
    2.2093   -3.3099   -1.0441 H   0  0  0  0  0  0  0  0  0  0  0  0
    0.8349   -4.4053   -1.3214 H   0  0  0  0  0  0  0  0  0  0  0  0
    1.1728   -3.0851   -2.4649 H   0  0  0  0  0  0  0  0  0  0  0  0
  5  6  2  0  0  0  0
  5  7  1  0  0  0  0
  2  3  1  0  0  0  0
  2  4  1  0  0  0  0
  2  5  1  0  0  0  0
  1  2  1  0  0  0  0
 22 23  2  0  0  0  0
 22 24  1  0  0  0  0
 20 21  1  0  0  0  0
 19 20  1  0  0  0  0
 17 18  1  0  0  0  0
 17 19  2  0  0  0  0
 15 16  1  0  0  0  0
 15 17  1  0  0  0  0
 14 15  1  0  0  0  0
 14 20  2  0  0  0  0
 11 12  1  0  0  0  0
 11 13  1  0  0  0  0
 11 14  1  0  0  0  0
  9 10  1  0  0  0  0
  9 11  1  0  0  0  0
  9 22  1  0  0  0  0
  7  8  1  0  0  0  0
  7  9  1  0  0  0  0
 26 27  1  0  0  0  0
 26 28  1  0  0  0  0
 26 29  1  0  0  0  0
 24 25  1  0  0  0  0
 24 26  1  0  0  0  0
M  END
$$$$
default_name
  -OEChem-01062215323D

 29 29  0     1  0  0  0  0  0999 V2000
   -3.6042   -3.5728    1.4576 H   0  0  0  0  0  0  0  0  0  0  0  0
   -3.5202   -2.6488    0.8866 C   0  0  0  0  0  0  0  0  0  0  0  0
   -4.2052   -1.9048    1.2896 H   0  0  0  0  0  0  0  0  0  0  0  0
   -3.7552   -2.8428   -0.1584 H   0  0  0  0  0  0  0  0  0  0  0  0
   -2.1052   -2.1358    0.9946 C   0  0  0  0  0  0  0  0  0  0  0  0
   -1.2852   -2.7288    1.6826 O   0  0  0  0  0  0  0  0  0  0  0  0
   -1.8202   -1.0288    0.3146 N   0  0  0  0  0  0  0  0  0  0  0  0
   -2.5542   -0.5788   -0.2104 H   0  0  0  0  0  0  0  0  0  0  0  0
   -0.5102   -0.3728    0.3086 C   0  0  1  0  0  0  0  0  0  0  0  0
   -0.6192    0.6215   -0.1270 H   0  0  0  0  0  0  0  0  0  0  0  0
   -0.0211   -0.2085    1.7594 C   0  0  0  0  0  0  0  0  0  0  0  0
    0.0137   -1.1889    2.2379 H   0  0  0  0  0  0  0  0  0  0  0  0
    0.9926    0.1962    1.7494 H   0  0  0  0  0  0  0  0  0  0  0  0
   -0.8901    0.6996    2.5903 C   0  0  0  0  0  0  0  0  0  0  0  0
   -0.9365    2.0753    2.5174 N   0  0  0  0  0  0  0  0  0  0  0  0
   -0.3402    2.6617    1.9528 H   0  0  0  0  0  0  0  0  0  0  0  0
   -1.9132    2.5021    3.3356 C   0  0  0  0  0  0  0  0  0  0  0  0
   -2.1866    3.5377    3.4972 H   0  0  0  0  0  0  0  0  0  0  0  0
   -2.5117    1.4585    3.9281 N   0  0  0  0  0  0  0  0  0  0  0  0
   -1.8677    0.3080    3.4657 C   0  0  0  0  0  0  0  0  0  0  0  0
   -2.1192   -0.7126    3.7237 H   0  0  0  0  0  0  0  0  0  0  0  0
    0.4904   -1.1581   -0.5562 C   0  0  0  0  0  0  0  0  0  0  0  0
    1.5400   -0.6297   -0.9223 O   0  0  0  0  0  0  0  0  0  0  0  0
    0.1601   -2.4101   -0.8966 N   0  0  0  0  0  0  0  0  0  0  0  0
   -0.7426   -2.7531   -0.6027 H   0  0  0  0  0  0  0  0  0  0  0  0
    0.9961   -3.2931   -1.7057 C   0  0  0  0  0  0  0  0  0  0  0  0
    1.9573   -3.4479   -1.2104 H   0  0  0  0  0  0  0  0  0  0  0  0
    0.5031   -4.2561   -1.8408 H   0  0  0  0  0  0  0  0  0  0  0  0
    1.1769   -2.8409   -2.6821 H   0  0  0  0  0  0  0  0  0  0  0  0
  5  6  2  0  0  0  0
  5  7  1  0  0  0  0
  2  3  1  0  0  0  0
  2  4  1  0  0  0  0
  2  5  1  0  0  0  0
  1  2  1  0  0  0  0
 22 23  2  0  0  0  0
 22 24  1  0  0  0  0
 20 21  1  0  0  0  0
 19 20  1  0  0  0  0
 17 18  1  0  0  0  0
 17 19  2  0  0  0  0
 15 16  1  0  0  0  0
 15 17  1  0  0  0  0
 14 15  1  0  0  0  0
 14 20  2  0  0  0  0
 11 12  1  0  0  0  0
 11 13  1  0  0  0  0
 11 14  1  0  0  0  0
  9 10  1  0  0  0  0
  9 11  1  0  0  0  0
  9 22  1  0  0  0  0
  7  8  1  0  0  0  0
  7  9  1  0  0  0  0
 26 27  1  0  0  0  0
 26 28  1  0  0  0  0
 26 29  1  0  0  0  0
 24 25  1  0  0  0  0
 24 26  1  0  0  0  0
M  END
$$$$
default_name
  -OEChem-01062215323D

 29 29  0     1  0  0  0  0  0999 V2000
   -3.6042   -3.5728    1.4576 H   0  0  0  0  0  0  0  0  0  0  0  0
   -3.5202   -2.6488    0.8866 C   0  0  0  0  0  0  0  0  0  0  0  0
   -4.2052   -1.9048    1.2896 H   0  0  0  0  0  0  0  0  0  0  0  0
   -3.7552   -2.8428   -0.1584 H   0  0  0  0  0  0  0  0  0  0  0  0
   -2.1052   -2.1358    0.9946 C   0  0  0  0  0  0  0  0  0  0  0  0
   -1.2852   -2.7288    1.6826 O   0  0  0  0  0  0  0  0  0  0  0  0
   -1.8202   -1.0288    0.3146 N   0  0  0  0  0  0  0  0  0  0  0  0
   -2.5542   -0.5788   -0.2104 H   0  0  0  0  0  0  0  0  0  0  0  0
   -0.5102   -0.3728    0.3086 C   0  0  1  0  0  0  0  0  0  0  0  0
   -0.6192    0.6215   -0.1270 H   0  0  0  0  0  0  0  0  0  0  0  0
   -0.0211   -0.2085    1.7594 C   0  0  0  0  0  0  0  0  0  0  0  0
    0.0137   -1.1889    2.2379 H   0  0  0  0  0  0  0  0  0  0  0  0
    0.9926    0.1962    1.7494 H   0  0  0  0  0  0  0  0  0  0  0  0
   -0.8901    0.6996    2.5903 C   0  0  0  0  0  0  0  0  0  0  0  0
   -0.9365    2.0753    2.5174 N   0  0  0  0  0  0  0  0  0  0  0  0
   -0.3402    2.6617    1.9528 H   0  0  0  0  0  0  0  0  0  0  0  0
   -1.9132    2.5021    3.3356 C   0  0  0  0  0  0  0  0  0  0  0  0
   -2.1866    3.5377    3.4972 H   0  0  0  0  0  0  0  0  0  0  0  0
   -2.5117    1.4585    3.9281 N   0  0  0  0  0  0  0  0  0  0  0  0
   -1.8677    0.3080    3.4657 C   0  0  0  0  0  0  0  0  0  0  0  0
   -2.1192   -0.7126    3.7237 H   0  0  0  0  0  0  0  0  0  0  0  0
    0.4904   -1.1581   -0.5562 C   0  0  0  0  0  0  0  0  0  0  0  0
    1.6432   -0.7496   -0.6941 O   0  0  0  0  0  0  0  0  0  0  0  0
    0.0478   -2.2727   -1.1513 N   0  0  0  0  0  0  0  0  0  0  0  0
   -0.9257   -2.5121   -1.0333 H   0  0  0  0  0  0  0  0  0  0  0  0
    0.8659   -3.1363   -1.9987 C   0  0  0  0  0  0  0  0  0  0  0  0
    1.7158   -3.5165   -1.4275 H   0  0  0  0  0  0  0  0  0  0  0  0
    0.2728   -3.9763   -2.3613 H   0  0  0  0  0  0  0  0  0  0  0  0
    1.2450   -2.5689   -2.8502 H   0  0  0  0  0  0  0  0  0  0  0  0
  5  6  2  0  0  0  0
  5  7  1  0  0  0  0
  2  3  1  0  0  0  0
  2  4  1  0  0  0  0
  2  5  1  0  0  0  0
  1  2  1  0  0  0  0
 22 23  2  0  0  0  0
 22 24  1  0  0  0  0
 20 21  1  0  0  0  0
 19 20  1  0  0  0  0
 17 18  1  0  0  0  0
 17 19  2  0  0  0  0
 15 16  1  0  0  0  0
 15 17  1  0  0  0  0
 14 15  1  0  0  0  0
 14 20  2  0  0  0  0
 11 12  1  0  0  0  0
 11 13  1  0  0  0  0
 11 14  1  0  0  0  0
  9 10  1  0  0  0  0
  9 11  1  0  0  0  0
  9 22  1  0  0  0  0
  7  8  1  0  0  0  0
  7  9  1  0  0  0  0
 26 27  1  0  0  0  0
 26 28  1  0  0  0  0
 26 29  1  0  0  0  0
 24 25  1  0  0  0  0
 24 26  1  0  0  0  0
M  END
$$$$
default_name
  -OEChem-01062215323D

 29 29  0     1  0  0  0  0  0999 V2000
   -3.6042   -3.5728    1.4576 H   0  0  0  0  0  0  0  0  0  0  0  0
   -3.5202   -2.6488    0.8866 C   0  0  0  0  0  0  0  0  0  0  0  0
   -4.2052   -1.9048    1.2896 H   0  0  0  0  0  0  0  0  0  0  0  0
   -3.7552   -2.8428   -0.1584 H   0  0  0  0  0  0  0  0  0  0  0  0
   -2.1052   -2.1358    0.9946 C   0  0  0  0  0  0  0  0  0  0  0  0
   -1.2852   -2.7288    1.6826 O   0  0  0  0  0  0  0  0  0  0  0  0
   -1.8202   -1.0288    0.3146 N   0  0  0  0  0  0  0  0  0  0  0  0
   -2.5542   -0.5788   -0.2104 H   0  0  0  0  0  0  0  0  0  0  0  0
   -0.5102   -0.3728    0.3086 C   0  0  1  0  0  0  0  0  0  0  0  0
   -0.6192    0.6215   -0.1270 H   0  0  0  0  0  0  0  0  0  0  0  0
   -0.0211   -0.2085    1.7594 C   0  0  0  0  0  0  0  0  0  0  0  0
    0.0137   -1.1889    2.2379 H   0  0  0  0  0  0  0  0  0  0  0  0
    0.9926    0.1962    1.7494 H   0  0  0  0  0  0  0  0  0  0  0  0
   -0.8901    0.6996    2.5903 C   0  0  0  0  0  0  0  0  0  0  0  0
   -0.9365    2.0753    2.5174 N   0  0  0  0  0  0  0  0  0  0  0  0
   -0.3402    2.6617    1.9528 H   0  0  0  0  0  0  0  0  0  0  0  0
   -1.9132    2.5021    3.3356 C   0  0  0  0  0  0  0  0  0  0  0  0
   -2.1866    3.5377    3.4972 H   0  0  0  0  0  0  0  0  0  0  0  0
   -2.5117    1.4585    3.9281 N   0  0  0  0  0  0  0  0  0  0  0  0
   -1.8677    0.3080    3.4657 C   0  0  0  0  0  0  0  0  0  0  0  0
   -2.1192   -0.7126    3.7237 H   0  0  0  0  0  0  0  0  0  0  0  0
    0.4904   -1.1581   -0.5562 C   0  0  0  0  0  0  0  0  0  0  0  0
    1.6953   -0.9188   -0.4801 O   0  0  0  0  0  0  0  0  0  0  0  0
   -0.0070   -2.0809   -1.3890 N   0  0  0  0  0  0  0  0  0  0  0  0
   -1.0106   -2.1803   -1.4329 H   0  0  0  0  0  0  0  0  0  0  0  0
    0.8017   -2.9165   -2.2726 C   0  0  0  0  0  0  0  0  0  0  0  0
    1.5013   -3.5111   -1.6807 H   0  0  0  0  0  0  0  0  0  0  0  0
    0.1600   -3.5849   -2.8474 H   0  0  0  0  0  0  0  0  0  0  0  0
    1.3725   -2.2879   -2.9578 H   0  0  0  0  0  0  0  0  0  0  0  0
  5  6  2  0  0  0  0
  5  7  1  0  0  0  0
  2  3  1  0  0  0  0
  2  4  1  0  0  0  0
  2  5  1  0  0  0  0
  1  2  1  0  0  0  0
 22 23  2  0  0  0  0
 22 24  1  0  0  0  0
 20 21  1  0  0  0  0
 19 20  1  0  0  0  0
 17 18  1  0  0  0  0
 17 19  2  0  0  0  0
 15 16  1  0  0  0  0
 15 17  1  0  0  0  0
 14 15  1  0  0  0  0
 14 20  2  0  0  0  0
 11 12  1  0  0  0  0
 11 13  1  0  0  0  0
 11 14  1  0  0  0  0
  9 10  1  0  0  0  0
  9 11  1  0  0  0  0
  9 22  1  0  0  0  0
  7  8  1  0  0  0  0
  7  9  1  0  0  0  0
 26 27  1  0  0  0  0
 26 28  1  0  0  0  0
 26 29  1  0  0  0  0
 24 25  1  0  0  0  0
 24 26  1  0  0  0  0
M  END
$$$$
default_name
  -OEChem-01062215323D

 29 29  0     1  0  0  0  0  0999 V2000
   -3.6042   -3.5728    1.4576 H   0  0  0  0  0  0  0  0  0  0  0  0
   -3.5202   -2.6488    0.8866 C   0  0  0  0  0  0  0  0  0  0  0  0
   -4.2052   -1.9048    1.2896 H   0  0  0  0  0  0  0  0  0  0  0  0
   -3.7552   -2.8428   -0.1584 H   0  0  0  0  0  0  0  0  0  0  0  0
   -2.1052   -2.1358    0.9946 C   0  0  0  0  0  0  0  0  0  0  0  0
   -1.2852   -2.7288    1.6826 O   0  0  0  0  0  0  0  0  0  0  0  0
   -1.8202   -1.0288    0.3146 N   0  0  0  0  0  0  0  0  0  0  0  0
   -2.5542   -0.5788   -0.2104 H   0  0  0  0  0  0  0  0  0  0  0  0
   -0.5102   -0.3728    0.3086 C   0  0  1  0  0  0  0  0  0  0  0  0
   -0.6192    0.6215   -0.1270 H   0  0  0  0  0  0  0  0  0  0  0  0
   -0.0211   -0.2085    1.7594 C   0  0  0  0  0  0  0  0  0  0  0  0
    0.0137   -1.1889    2.2379 H   0  0  0  0  0  0  0  0  0  0  0  0
    0.9926    0.1962    1.7494 H   0  0  0  0  0  0  0  0  0  0  0  0
   -0.8901    0.6996    2.5903 C   0  0  0  0  0  0  0  0  0  0  0  0
   -0.9365    2.0753    2.5174 N   0  0  0  0  0  0  0  0  0  0  0  0
   -0.3402    2.6617    1.9528 H   0  0  0  0  0  0  0  0  0  0  0  0
   -1.9132    2.5021    3.3356 C   0  0  0  0  0  0  0  0  0  0  0  0
   -2.1866    3.5377    3.4972 H   0  0  0  0  0  0  0  0  0  0  0  0
   -2.5117    1.4585    3.9281 N   0  0  0  0  0  0  0  0  0  0  0  0
   -1.8677    0.3080    3.4657 C   0  0  0  0  0  0  0  0  0  0  0  0
   -2.1192   -0.7126    3.7237 H   0  0  0  0  0  0  0  0  0  0  0  0
    0.4904   -1.1581   -0.5562 C   0  0  0  0  0  0  0  0  0  0  0  0
    1.6927   -1.1258   -0.2951 O   0  0  0  0  0  0  0  0  0  0  0  0
   -0.0006   -1.8475   -1.5935 N   0  0  0  0  0  0  0  0  0  0  0  0
   -0.9914   -1.7801   -1.7742 H   0  0  0  0  0  0  0  0  0  0  0  0
    0.8078   -2.6488   -2.5087 C   0  0  0  0  0  0  0  0  0  0  0  0
    1.3283   -3.4320   -1.9528 H   0  0  0  0  0  0  0  0  0  0  0  0
    0.1721   -3.1086   -3.2659 H   0  0  0  0  0  0  0  0  0  0  0  0
    1.5509   -2.0169   -2.9976 H   0  0  0  0  0  0  0  0  0  0  0  0
  5  6  2  0  0  0  0
  5  7  1  0  0  0  0
  2  3  1  0  0  0  0
  2  4  1  0  0  0  0
  2  5  1  0  0  0  0
  1  2  1  0  0  0  0
 22 23  2  0  0  0  0
 22 24  1  0  0  0  0
 20 21  1  0  0  0  0
 19 20  1  0  0  0  0
 17 18  1  0  0  0  0
 17 19  2  0  0  0  0
 15 16  1  0  0  0  0
 15 17  1  0  0  0  0
 14 15  1  0  0  0  0
 14 20  2  0  0  0  0
 11 12  1  0  0  0  0
 11 13  1  0  0  0  0
 11 14  1  0  0  0  0
  9 10  1  0  0  0  0
  9 11  1  0  0  0  0
  9 22  1  0  0  0  0
  7  8  1  0  0  0  0
  7  9  1  0  0  0  0
 26 27  1  0  0  0  0
 26 28  1  0  0  0  0
 26 29  1  0  0  0  0
 24 25  1  0  0  0  0
 24 26  1  0  0  0  0
M  END
$$$$
default_name
  -OEChem-01062215323D

 29 29  0     1  0  0  0  0  0999 V2000
   -3.6042   -3.5728    1.4576 H   0  0  0  0  0  0  0  0  0  0  0  0
   -3.5202   -2.6488    0.8866 C   0  0  0  0  0  0  0  0  0  0  0  0
   -4.2052   -1.9048    1.2896 H   0  0  0  0  0  0  0  0  0  0  0  0
   -3.7552   -2.8428   -0.1584 H   0  0  0  0  0  0  0  0  0  0  0  0
   -2.1052   -2.1358    0.9946 C   0  0  0  0  0  0  0  0  0  0  0  0
   -1.2852   -2.7288    1.6826 O   0  0  0  0  0  0  0  0  0  0  0  0
   -1.8202   -1.0288    0.3146 N   0  0  0  0  0  0  0  0  0  0  0  0
   -2.5542   -0.5788   -0.2104 H   0  0  0  0  0  0  0  0  0  0  0  0
   -0.5102   -0.3728    0.3086 C   0  0  1  0  0  0  0  0  0  0  0  0
   -0.6192    0.6215   -0.1270 H   0  0  0  0  0  0  0  0  0  0  0  0
   -0.0211   -0.2085    1.7594 C   0  0  0  0  0  0  0  0  0  0  0  0
    0.0137   -1.1889    2.2379 H   0  0  0  0  0  0  0  0  0  0  0  0
    0.9926    0.1962    1.7494 H   0  0  0  0  0  0  0  0  0  0  0  0
   -0.8901    0.6996    2.5903 C   0  0  0  0  0  0  0  0  0  0  0  0
   -0.9365    2.0753    2.5174 N   0  0  0  0  0  0  0  0  0  0  0  0
   -0.3402    2.6617    1.9528 H   0  0  0  0  0  0  0  0  0  0  0  0
   -1.9132    2.5021    3.3356 C   0  0  0  0  0  0  0  0  0  0  0  0
   -2.1866    3.5377    3.4972 H   0  0  0  0  0  0  0  0  0  0  0  0
   -2.5117    1.4585    3.9281 N   0  0  0  0  0  0  0  0  0  0  0  0
   -1.8677    0.3080    3.4657 C   0  0  0  0  0  0  0  0  0  0  0  0
   -2.1192   -0.7126    3.7237 H   0  0  0  0  0  0  0  0  0  0  0  0
    0.4904   -1.1581   -0.5562 C   0  0  0  0  0  0  0  0  0  0  0  0
    1.6357   -1.3566   -0.1515 O   0  0  0  0  0  0  0  0  0  0  0  0
    0.0665   -1.5886   -1.7509 N   0  0  0  0  0  0  0  0  0  0  0  0
   -0.8697   -1.3388   -2.0340 H   0  0  0  0  0  0  0  0  0  0  0  0
    0.8839   -2.3514   -2.6908 C   0  0  0  0  0  0  0  0  0  0  0  0
    1.2086   -3.2846   -2.2251 H   0  0  0  0  0  0  0  0  0  0  0  0
    0.3085   -2.5797   -3.5884 H   0  0  0  0  0  0  0  0  0  0  0  0
    1.7678   -1.7744   -2.9668 H   0  0  0  0  0  0  0  0  0  0  0  0
  5  6  2  0  0  0  0
  5  7  1  0  0  0  0
  2  3  1  0  0  0  0
  2  4  1  0  0  0  0
  2  5  1  0  0  0  0
  1  2  1  0  0  0  0
 22 23  2  0  0  0  0
 22 24  1  0  0  0  0
 20 21  1  0  0  0  0
 19 20  1  0  0  0  0
 17 18  1  0  0  0  0
 17 19  2  0  0  0  0
 15 16  1  0  0  0  0
 15 17  1  0  0  0  0
 14 15  1  0  0  0  0
 14 20  2  0  0  0  0
 11 12  1  0  0  0  0
 11 13  1  0  0  0  0
 11 14  1  0  0  0  0
  9 10  1  0  0  0  0
  9 11  1  0  0  0  0
  9 22  1  0  0  0  0
  7  8  1  0  0  0  0
  7  9  1  0  0  0  0
 26 27  1  0  0  0  0
 26 28  1  0  0  0  0
 26 29  1  0  0  0  0
 24 25  1  0  0  0  0
 24 26  1  0  0  0  0
M  END
$$$$
default_name
  -OEChem-01062215323D

 29 29  0     1  0  0  0  0  0999 V2000
   -3.6042   -3.5728    1.4576 H   0  0  0  0  0  0  0  0  0  0  0  0
   -3.5202   -2.6488    0.8866 C   0  0  0  0  0  0  0  0  0  0  0  0
   -4.2052   -1.9048    1.2896 H   0  0  0  0  0  0  0  0  0  0  0  0
   -3.7552   -2.8428   -0.1584 H   0  0  0  0  0  0  0  0  0  0  0  0
   -2.1052   -2.1358    0.9946 C   0  0  0  0  0  0  0  0  0  0  0  0
   -1.2852   -2.7288    1.6826 O   0  0  0  0  0  0  0  0  0  0  0  0
   -1.8202   -1.0288    0.3146 N   0  0  0  0  0  0  0  0  0  0  0  0
   -2.5542   -0.5788   -0.2104 H   0  0  0  0  0  0  0  0  0  0  0  0
   -0.5102   -0.3728    0.3086 C   0  0  1  0  0  0  0  0  0  0  0  0
   -0.6192    0.6215   -0.1270 H   0  0  0  0  0  0  0  0  0  0  0  0
   -0.0211   -0.2085    1.7594 C   0  0  0  0  0  0  0  0  0  0  0  0
    0.0137   -1.1889    2.2379 H   0  0  0  0  0  0  0  0  0  0  0  0
    0.9926    0.1962    1.7494 H   0  0  0  0  0  0  0  0  0  0  0  0
   -0.8901    0.6996    2.5903 C   0  0  0  0  0  0  0  0  0  0  0  0
   -0.9365    2.0753    2.5174 N   0  0  0  0  0  0  0  0  0  0  0  0
   -0.3402    2.6617    1.9528 H   0  0  0  0  0  0  0  0  0  0  0  0
   -1.9132    2.5021    3.3356 C   0  0  0  0  0  0  0  0  0  0  0  0
   -2.1866    3.5377    3.4972 H   0  0  0  0  0  0  0  0  0  0  0  0
   -2.5117    1.4585    3.9281 N   0  0  0  0  0  0  0  0  0  0  0  0
   -1.8677    0.3080    3.4657 C   0  0  0  0  0  0  0  0  0  0  0  0
   -2.1192   -0.7126    3.7237 H   0  0  0  0  0  0  0  0  0  0  0  0
    0.4904   -1.1581   -0.5562 C   0  0  0  0  0  0  0  0  0  0  0  0
    1.5280   -1.5954   -0.0592 O   0  0  0  0  0  0  0  0  0  0  0  0
    0.1898   -1.3218   -1.8505 N   0  0  0  0  0  0  0  0  0  0  0  0
   -0.6535   -0.8866   -2.1946 H   0  0  0  0  0  0  0  0  0  0  0  0
    1.0247   -2.0445   -2.8065 C   0  0  0  0  0  0  0  0  0  0  0  0
    1.1505   -3.0790   -2.4791 H   0  0  0  0  0  0  0  0  0  0  0  0
    0.5597   -2.0345   -3.7928 H   0  0  0  0  0  0  0  0  0  0  0  0
    2.0086   -1.5769   -2.8675 H   0  0  0  0  0  0  0  0  0  0  0  0
  5  6  2  0  0  0  0
  5  7  1  0  0  0  0
  2  3  1  0  0  0  0
  2  4  1  0  0  0  0
  2  5  1  0  0  0  0
  1  2  1  0  0  0  0
 22 23  2  0  0  0  0
 22 24  1  0  0  0  0
 20 21  1  0  0  0  0
 19 20  1  0  0  0  0
 17 18  1  0  0  0  0
 17 19  2  0  0  0  0
 15 16  1  0  0  0  0
 15 17  1  0  0  0  0
 14 15  1  0  0  0  0
 14 20  2  0  0  0  0
 11 12  1  0  0  0  0
 11 13  1  0  0  0  0
 11 14  1  0  0  0  0
  9 10  1  0  0  0  0
  9 11  1  0  0  0  0
  9 22  1  0  0  0  0
  7  8  1  0  0  0  0
  7  9  1  0  0  0  0
 26 27  1  0  0  0  0
 26 28  1  0  0  0  0
 26 29  1  0  0  0  0
 24 25  1  0  0  0  0
 24 26  1  0  0  0  0
M  END
$$$$
default_name
  -OEChem-01062215323D

 29 29  0     1  0  0  0  0  0999 V2000
   -3.6042   -3.5728    1.4576 H   0  0  0  0  0  0  0  0  0  0  0  0
   -3.5202   -2.6488    0.8866 C   0  0  0  0  0  0  0  0  0  0  0  0
   -4.2052   -1.9048    1.2896 H   0  0  0  0  0  0  0  0  0  0  0  0
   -3.7552   -2.8428   -0.1584 H   0  0  0  0  0  0  0  0  0  0  0  0
   -2.1052   -2.1358    0.9946 C   0  0  0  0  0  0  0  0  0  0  0  0
   -1.2852   -2.7288    1.6826 O   0  0  0  0  0  0  0  0  0  0  0  0
   -1.8202   -1.0288    0.3146 N   0  0  0  0  0  0  0  0  0  0  0  0
   -2.5542   -0.5788   -0.2104 H   0  0  0  0  0  0  0  0  0  0  0  0
   -0.5102   -0.3728    0.3086 C   0  0  1  0  0  0  0  0  0  0  0  0
   -0.6192    0.6215   -0.1270 H   0  0  0  0  0  0  0  0  0  0  0  0
   -0.0211   -0.2085    1.7594 C   0  0  0  0  0  0  0  0  0  0  0  0
    0.0137   -1.1889    2.2379 H   0  0  0  0  0  0  0  0  0  0  0  0
    0.9926    0.1962    1.7494 H   0  0  0  0  0  0  0  0  0  0  0  0
   -0.8901    0.6996    2.5903 C   0  0  0  0  0  0  0  0  0  0  0  0
   -0.9365    2.0753    2.5174 N   0  0  0  0  0  0  0  0  0  0  0  0
   -0.3402    2.6617    1.9528 H   0  0  0  0  0  0  0  0  0  0  0  0
   -1.9132    2.5021    3.3356 C   0  0  0  0  0  0  0  0  0  0  0  0
   -2.1866    3.5377    3.4972 H   0  0  0  0  0  0  0  0  0  0  0  0
   -2.5117    1.4585    3.9281 N   0  0  0  0  0  0  0  0  0  0  0  0
   -1.8677    0.3080    3.4657 C   0  0  0  0  0  0  0  0  0  0  0  0
   -2.1192   -0.7126    3.7237 H   0  0  0  0  0  0  0  0  0  0  0  0
    0.4904   -1.1581   -0.5562 C   0  0  0  0  0  0  0  0  0  0  0  0
    1.3771   -1.8259   -0.0246 O   0  0  0  0  0  0  0  0  0  0  0  0
    0.3610   -1.0653   -1.8855 N   0  0  0  0  0  0  0  0  0  0  0  0
   -0.3576   -0.4542   -2.2449 H   0  0  0  0  0  0  0  0  0  0  0  0
    1.2206   -1.7490   -2.8481 C   0  0  0  0  0  0  0  0  0  0  0  0
    1.1578   -2.8291   -2.6975 H   0  0  0  0  0  0  0  0  0  0  0  0
    0.9088   -1.5100   -3.8652 H   0  0  0  0  0  0  0  0  0  0  0  0
    2.2568   -1.4378   -2.7065 H   0  0  0  0  0  0  0  0  0  0  0  0
  5  6  2  0  0  0  0
  5  7  1  0  0  0  0
  2  3  1  0  0  0  0
  2  4  1  0  0  0  0
  2  5  1  0  0  0  0
  1  2  1  0  0  0  0
 22 23  2  0  0  0  0
 22 24  1  0  0  0  0
 20 21  1  0  0  0  0
 19 20  1  0  0  0  0
 17 18  1  0  0  0  0
 17 19  2  0  0  0  0
 15 16  1  0  0  0  0
 15 17  1  0  0  0  0
 14 15  1  0  0  0  0
 14 20  2  0  0  0  0
 11 12  1  0  0  0  0
 11 13  1  0  0  0  0
 11 14  1  0  0  0  0
  9 10  1  0  0  0  0
  9 11  1  0  0  0  0
  9 22  1  0  0  0  0
  7  8  1  0  0  0  0
  7  9  1  0  0  0  0
 26 27  1  0  0  0  0
 26 28  1  0  0  0  0
 26 29  1  0  0  0  0
 24 25  1  0  0  0  0
 24 26  1  0  0  0  0
M  END
$$$$
default_name
  -OEChem-01062215323D

 29 29  0     1  0  0  0  0  0999 V2000
   -3.6042   -3.5728    1.4576 H   0  0  0  0  0  0  0  0  0  0  0  0
   -3.5202   -2.6488    0.8866 C   0  0  0  0  0  0  0  0  0  0  0  0
   -4.2052   -1.9048    1.2896 H   0  0  0  0  0  0  0  0  0  0  0  0
   -3.7552   -2.8428   -0.1584 H   0  0  0  0  0  0  0  0  0  0  0  0
   -2.1052   -2.1358    0.9946 C   0  0  0  0  0  0  0  0  0  0  0  0
   -1.2852   -2.7288    1.6826 O   0  0  0  0  0  0  0  0  0  0  0  0
   -1.8202   -1.0288    0.3146 N   0  0  0  0  0  0  0  0  0  0  0  0
   -2.5542   -0.5788   -0.2104 H   0  0  0  0  0  0  0  0  0  0  0  0
   -0.5102   -0.3728    0.3086 C   0  0  1  0  0  0  0  0  0  0  0  0
   -0.6192    0.6215   -0.1270 H   0  0  0  0  0  0  0  0  0  0  0  0
   -0.0211   -0.2085    1.7594 C   0  0  0  0  0  0  0  0  0  0  0  0
    0.0137   -1.1889    2.2379 H   0  0  0  0  0  0  0  0  0  0  0  0
    0.9926    0.1962    1.7494 H   0  0  0  0  0  0  0  0  0  0  0  0
   -0.8901    0.6996    2.5903 C   0  0  0  0  0  0  0  0  0  0  0  0
   -0.9365    2.0753    2.5174 N   0  0  0  0  0  0  0  0  0  0  0  0
   -0.3402    2.6617    1.9528 H   0  0  0  0  0  0  0  0  0  0  0  0
   -1.9132    2.5021    3.3356 C   0  0  0  0  0  0  0  0  0  0  0  0
   -2.1866    3.5377    3.4972 H   0  0  0  0  0  0  0  0  0  0  0  0
   -2.5117    1.4585    3.9281 N   0  0  0  0  0  0  0  0  0  0  0  0
   -1.8677    0.3080    3.4657 C   0  0  0  0  0  0  0  0  0  0  0  0
   -2.1192   -0.7126    3.7237 H   0  0  0  0  0  0  0  0  0  0  0  0
    0.4904   -1.1581   -0.5562 C   0  0  0  0  0  0  0  0  0  0  0  0
    1.1931   -2.0325   -0.0498 O   0  0  0  0  0  0  0  0  0  0  0  0
    0.5682   -0.8365   -1.8535 N   0  0  0  0  0  0  0  0  0  0  0  0
   -0.0023   -0.0711   -2.1816 H   0  0  0  0  0  0  0  0  0  0  0  0
    1.4584   -1.4852   -2.8126 C   0  0  0  0  0  0  0  0  0  0  0  0
    1.2301   -2.5521   -2.8654 H   0  0  0  0  0  0  0  0  0  0  0  0
    1.3319   -1.0419   -3.8007 H   0  0  0  0  0  0  0  0  0  0  0  0
    2.4955   -1.3668   -2.4949 H   0  0  0  0  0  0  0  0  0  0  0  0
  5  6  2  0  0  0  0
  5  7  1  0  0  0  0
  2  3  1  0  0  0  0
  2  4  1  0  0  0  0
  2  5  1  0  0  0  0
  1  2  1  0  0  0  0
 22 23  2  0  0  0  0
 22 24  1  0  0  0  0
 20 21  1  0  0  0  0
 19 20  1  0  0  0  0
 17 18  1  0  0  0  0
 17 19  2  0  0  0  0
 15 16  1  0  0  0  0
 15 17  1  0  0  0  0
 14 15  1  0  0  0  0
 14 20  2  0  0  0  0
 11 12  1  0  0  0  0
 11 13  1  0  0  0  0
 11 14  1  0  0  0  0
  9 10  1  0  0  0  0
  9 11  1  0  0  0  0
  9 22  1  0  0  0  0
  7  8  1  0  0  0  0
  7  9  1  0  0  0  0
 26 27  1  0  0  0  0
 26 28  1  0  0  0  0
 26 29  1  0  0  0  0
 24 25  1  0  0  0  0
 24 26  1  0  0  0  0
M  END
$$$$
default_name
  -OEChem-01062215323D

 29 29  0     1  0  0  0  0  0999 V2000
   -3.6042   -3.5728    1.4576 H   0  0  0  0  0  0  0  0  0  0  0  0
   -3.5202   -2.6488    0.8866 C   0  0  0  0  0  0  0  0  0  0  0  0
   -4.2052   -1.9048    1.2896 H   0  0  0  0  0  0  0  0  0  0  0  0
   -3.7552   -2.8428   -0.1584 H   0  0  0  0  0  0  0  0  0  0  0  0
   -2.1052   -2.1358    0.9946 C   0  0  0  0  0  0  0  0  0  0  0  0
   -1.2852   -2.7288    1.6826 O   0  0  0  0  0  0  0  0  0  0  0  0
   -1.8202   -1.0288    0.3146 N   0  0  0  0  0  0  0  0  0  0  0  0
   -2.5542   -0.5788   -0.2104 H   0  0  0  0  0  0  0  0  0  0  0  0
   -0.5102   -0.3728    0.3086 C   0  0  1  0  0  0  0  0  0  0  0  0
   -0.6192    0.6215   -0.1270 H   0  0  0  0  0  0  0  0  0  0  0  0
   -0.0211   -0.2085    1.7594 C   0  0  0  0  0  0  0  0  0  0  0  0
    0.0137   -1.1889    2.2379 H   0  0  0  0  0  0  0  0  0  0  0  0
    0.9926    0.1962    1.7494 H   0  0  0  0  0  0  0  0  0  0  0  0
   -0.8901    0.6996    2.5903 C   0  0  0  0  0  0  0  0  0  0  0  0
   -0.9365    2.0753    2.5174 N   0  0  0  0  0  0  0  0  0  0  0  0
   -0.3402    2.6617    1.9528 H   0  0  0  0  0  0  0  0  0  0  0  0
   -1.9132    2.5021    3.3356 C   0  0  0  0  0  0  0  0  0  0  0  0
   -2.1866    3.5377    3.4972 H   0  0  0  0  0  0  0  0  0  0  0  0
   -2.5117    1.4585    3.9281 N   0  0  0  0  0  0  0  0  0  0  0  0
   -1.8677    0.3080    3.4657 C   0  0  0  0  0  0  0  0  0  0  0  0
   -2.1192   -0.7126    3.7237 H   0  0  0  0  0  0  0  0  0  0  0  0
    0.4904   -1.1581   -0.5562 C   0  0  0  0  0  0  0  0  0  0  0  0
    0.9888   -2.2009   -0.1333 O   0  0  0  0  0  0  0  0  0  0  0  0
    0.7974   -0.6510   -1.7567 N   0  0  0  0  0  0  0  0  0  0  0  0
    0.3883    0.2366   -2.0091 H   0  0  0  0  0  0  0  0  0  0  0  0
    1.7218   -1.2709   -2.7024 C   0  0  0  0  0  0  0  0  0  0  0  0
    1.3624   -2.2667   -2.9714 H   0  0  0  0  0  0  0  0  0  0  0  0
    1.8001   -0.6622   -3.6037 H   0  0  0  0  0  0  0  0  0  0  0  0
    2.7085   -1.3685   -2.2469 H   0  0  0  0  0  0  0  0  0  0  0  0
  5  6  2  0  0  0  0
  5  7  1  0  0  0  0
  2  3  1  0  0  0  0
  2  4  1  0  0  0  0
  2  5  1  0  0  0  0
  1  2  1  0  0  0  0
 22 23  2  0  0  0  0
 22 24  1  0  0  0  0
 20 21  1  0  0  0  0
 19 20  1  0  0  0  0
 17 18  1  0  0  0  0
 17 19  2  0  0  0  0
 15 16  1  0  0  0  0
 15 17  1  0  0  0  0
 14 15  1  0  0  0  0
 14 20  2  0  0  0  0
 11 12  1  0  0  0  0
 11 13  1  0  0  0  0
 11 14  1  0  0  0  0
  9 10  1  0  0  0  0
  9 11  1  0  0  0  0
  9 22  1  0  0  0  0
  7  8  1  0  0  0  0
  7  9  1  0  0  0  0
 26 27  1  0  0  0  0
 26 28  1  0  0  0  0
 26 29  1  0  0  0  0
 24 25  1  0  0  0  0
 24 26  1  0  0  0  0
M  END
$$$$
default_name
  -OEChem-01062215323D

 29 29  0     1  0  0  0  0  0999 V2000
   -3.6042   -3.5728    1.4576 H   0  0  0  0  0  0  0  0  0  0  0  0
   -3.5202   -2.6488    0.8866 C   0  0  0  0  0  0  0  0  0  0  0  0
   -4.2052   -1.9048    1.2896 H   0  0  0  0  0  0  0  0  0  0  0  0
   -3.7552   -2.8428   -0.1584 H   0  0  0  0  0  0  0  0  0  0  0  0
   -2.1052   -2.1358    0.9946 C   0  0  0  0  0  0  0  0  0  0  0  0
   -1.2852   -2.7288    1.6826 O   0  0  0  0  0  0  0  0  0  0  0  0
   -1.8202   -1.0288    0.3146 N   0  0  0  0  0  0  0  0  0  0  0  0
   -2.5542   -0.5788   -0.2104 H   0  0  0  0  0  0  0  0  0  0  0  0
   -0.5102   -0.3728    0.3086 C   0  0  1  0  0  0  0  0  0  0  0  0
   -0.6192    0.6215   -0.1270 H   0  0  0  0  0  0  0  0  0  0  0  0
   -0.0211   -0.2085    1.7594 C   0  0  0  0  0  0  0  0  0  0  0  0
    0.0137   -1.1889    2.2379 H   0  0  0  0  0  0  0  0  0  0  0  0
    0.9926    0.1962    1.7494 H   0  0  0  0  0  0  0  0  0  0  0  0
   -0.8901    0.6996    2.5903 C   0  0  0  0  0  0  0  0  0  0  0  0
   -0.9365    2.0753    2.5174 N   0  0  0  0  0  0  0  0  0  0  0  0
   -0.3402    2.6617    1.9528 H   0  0  0  0  0  0  0  0  0  0  0  0
   -1.9132    2.5021    3.3356 C   0  0  0  0  0  0  0  0  0  0  0  0
   -2.1866    3.5377    3.4972 H   0  0  0  0  0  0  0  0  0  0  0  0
   -2.5117    1.4585    3.9281 N   0  0  0  0  0  0  0  0  0  0  0  0
   -1.8677    0.3080    3.4657 C   0  0  0  0  0  0  0  0  0  0  0  0
   -2.1192   -0.7126    3.7237 H   0  0  0  0  0  0  0  0  0  0  0  0
    0.4904   -1.1581   -0.5562 C   0  0  0  0  0  0  0  0  0  0  0  0
    0.7779   -2.3199   -0.2693 O   0  0  0  0  0  0  0  0  0  0  0  0
    1.0330   -0.5215   -1.6016 N   0  0  0  0  0  0  0  0  0  0  0  0
    0.7876    0.4479   -1.7390 H   0  0  0  0  0  0  0  0  0  0  0  0
    1.9928   -1.1208   -2.5251 C   0  0  0  0  0  0  0  0  0  0  0  0
    1.5458   -1.9925   -3.0083 H   0  0  0  0  0  0  0  0  0  0  0  0
    2.2816   -0.3968   -3.2876 H   0  0  0  0  0  0  0  0  0  0  0  0
    2.8811   -1.4429   -1.9795 H   0  0  0  0  0  0  0  0  0  0  0  0
  5  6  2  0  0  0  0
  5  7  1  0  0  0  0
  2  3  1  0  0  0  0
  2  4  1  0  0  0  0
  2  5  1  0  0  0  0
  1  2  1  0  0  0  0
 22 23  2  0  0  0  0
 22 24  1  0  0  0  0
 20 21  1  0  0  0  0
 19 20  1  0  0  0  0
 17 18  1  0  0  0  0
 17 19  2  0  0  0  0
 15 16  1  0  0  0  0
 15 17  1  0  0  0  0
 14 15  1  0  0  0  0
 14 20  2  0  0  0  0
 11 12  1  0  0  0  0
 11 13  1  0  0  0  0
 11 14  1  0  0  0  0
  9 10  1  0  0  0  0
  9 11  1  0  0  0  0
  9 22  1  0  0  0  0
  7  8  1  0  0  0  0
  7  9  1  0  0  0  0
 26 27  1  0  0  0  0
 26 28  1  0  0  0  0
 26 29  1  0  0  0  0
 24 25  1  0  0  0  0
 24 26  1  0  0  0  0
M  END
$$$$
default_name
  -OEChem-01062215323D

 29 29  0     1  0  0  0  0  0999 V2000
   -3.6042   -3.5728    1.4576 H   0  0  0  0  0  0  0  0  0  0  0  0
   -3.5202   -2.6488    0.8866 C   0  0  0  0  0  0  0  0  0  0  0  0
   -4.2052   -1.9048    1.2896 H   0  0  0  0  0  0  0  0  0  0  0  0
   -3.7552   -2.8428   -0.1584 H   0  0  0  0  0  0  0  0  0  0  0  0
   -2.1052   -2.1358    0.9946 C   0  0  0  0  0  0  0  0  0  0  0  0
   -1.2852   -2.7288    1.6826 O   0  0  0  0  0  0  0  0  0  0  0  0
   -1.8202   -1.0288    0.3146 N   0  0  0  0  0  0  0  0  0  0  0  0
   -2.5542   -0.5788   -0.2104 H   0  0  0  0  0  0  0  0  0  0  0  0
   -0.5102   -0.3728    0.3086 C   0  0  1  0  0  0  0  0  0  0  0  0
   -0.6192    0.6215   -0.1270 H   0  0  0  0  0  0  0  0  0  0  0  0
   -0.0211   -0.2085    1.7594 C   0  0  0  0  0  0  0  0  0  0  0  0
    0.0137   -1.1889    2.2379 H   0  0  0  0  0  0  0  0  0  0  0  0
    0.9926    0.1962    1.7494 H   0  0  0  0  0  0  0  0  0  0  0  0
   -0.8901    0.6996    2.5903 C   0  0  0  0  0  0  0  0  0  0  0  0
   -0.9365    2.0753    2.5174 N   0  0  0  0  0  0  0  0  0  0  0  0
   -0.3402    2.6617    1.9528 H   0  0  0  0  0  0  0  0  0  0  0  0
   -1.9132    2.5021    3.3356 C   0  0  0  0  0  0  0  0  0  0  0  0
   -2.1866    3.5377    3.4972 H   0  0  0  0  0  0  0  0  0  0  0  0
   -2.5117    1.4585    3.9281 N   0  0  0  0  0  0  0  0  0  0  0  0
   -1.8677    0.3080    3.4657 C   0  0  0  0  0  0  0  0  0  0  0  0
   -2.1192   -0.7126    3.7237 H   0  0  0  0  0  0  0  0  0  0  0  0
    0.4904   -1.1581   -0.5562 C   0  0  0  0  0  0  0  0  0  0  0  0
    0.5748   -2.3812   -0.4486 O   0  0  0  0  0  0  0  0  0  0  0  0
    1.2589   -0.4569   -1.3989 N   0  0  0  0  0  0  0  0  0  0  0  0
    1.1683    0.5485   -1.3897 H   0  0  0  0  0  0  0  0  0  0  0  0
    2.2530   -1.0451   -2.2928 C   0  0  0  0  0  0  0  0  0  0  0  0
    1.7677   -1.7480   -2.9735 H   0  0  0  0  0  0  0  0  0  0  0  0
    2.7435   -0.2636   -2.8739 H   0  0  0  0  0  0  0  0  0  0  0  0
    3.0018   -1.5849   -1.7110 H   0  0  0  0  0  0  0  0  0  0  0  0
  5  6  2  0  0  0  0
  5  7  1  0  0  0  0
  2  3  1  0  0  0  0
  2  4  1  0  0  0  0
  2  5  1  0  0  0  0
  1  2  1  0  0  0  0
 22 23  2  0  0  0  0
 22 24  1  0  0  0  0
 20 21  1  0  0  0  0
 19 20  1  0  0  0  0
 17 18  1  0  0  0  0
 17 19  2  0  0  0  0
 15 16  1  0  0  0  0
 15 17  1  0  0  0  0
 14 15  1  0  0  0  0
 14 20  2  0  0  0  0
 11 12  1  0  0  0  0
 11 13  1  0  0  0  0
 11 14  1  0  0  0  0
  9 10  1  0  0  0  0
  9 11  1  0  0  0  0
  9 22  1  0  0  0  0
  7  8  1  0  0  0  0
  7  9  1  0  0  0  0
 26 27  1  0  0  0  0
 26 28  1  0  0  0  0
 26 29  1  0  0  0  0
 24 25  1  0  0  0  0
 24 26  1  0  0  0  0
M  END
$$$$
default_name
  -OEChem-01062215323D

 29 29  0     1  0  0  0  0  0999 V2000
   -3.6042   -3.5728    1.4576 H   0  0  0  0  0  0  0  0  0  0  0  0
   -3.5202   -2.6488    0.8866 C   0  0  0  0  0  0  0  0  0  0  0  0
   -4.2052   -1.9048    1.2896 H   0  0  0  0  0  0  0  0  0  0  0  0
   -3.7552   -2.8428   -0.1584 H   0  0  0  0  0  0  0  0  0  0  0  0
   -2.1052   -2.1358    0.9946 C   0  0  0  0  0  0  0  0  0  0  0  0
   -1.2852   -2.7288    1.6826 O   0  0  0  0  0  0  0  0  0  0  0  0
   -1.8202   -1.0288    0.3146 N   0  0  0  0  0  0  0  0  0  0  0  0
   -2.5542   -0.5788   -0.2104 H   0  0  0  0  0  0  0  0  0  0  0  0
   -0.5102   -0.3728    0.3086 C   0  0  1  0  0  0  0  0  0  0  0  0
   -0.6192    0.6215   -0.1270 H   0  0  0  0  0  0  0  0  0  0  0  0
   -0.0211   -0.2085    1.7594 C   0  0  0  0  0  0  0  0  0  0  0  0
    0.0137   -1.1889    2.2379 H   0  0  0  0  0  0  0  0  0  0  0  0
    0.9926    0.1962    1.7494 H   0  0  0  0  0  0  0  0  0  0  0  0
   -0.8901    0.6996    2.5903 C   0  0  0  0  0  0  0  0  0  0  0  0
   -0.9365    2.0753    2.5174 N   0  0  0  0  0  0  0  0  0  0  0  0
   -0.3402    2.6617    1.9528 H   0  0  0  0  0  0  0  0  0  0  0  0
   -1.9132    2.5021    3.3356 C   0  0  0  0  0  0  0  0  0  0  0  0
   -2.1866    3.5377    3.4972 H   0  0  0  0  0  0  0  0  0  0  0  0
   -2.5117    1.4585    3.9281 N   0  0  0  0  0  0  0  0  0  0  0  0
   -1.8677    0.3080    3.4657 C   0  0  0  0  0  0  0  0  0  0  0  0
   -2.1192   -0.7126    3.7237 H   0  0  0  0  0  0  0  0  0  0  0  0
    0.4904   -1.1581   -0.5562 C   0  0  0  0  0  0  0  0  0  0  0  0
    0.3935   -2.3807   -0.6589 O   0  0  0  0  0  0  0  0  0  0  0  0
    1.4598   -0.4614   -1.1623 N   0  0  0  0  0  0  0  0  0  0  0  0
    1.5045    0.5314   -0.9851 H   0  0  0  0  0  0  0  0  0  0  0  0
    2.4847   -1.0489   -2.0212 C   0  0  0  0  0  0  0  0  0  0  0  0
    2.0129   -1.5501   -2.8694 H   0  0  0  0  0  0  0  0  0  0  0  0
    3.1544   -0.2719   -2.3909 H   0  0  0  0  0  0  0  0  0  0  0  0
    3.0621   -1.7848   -1.4596 H   0  0  0  0  0  0  0  0  0  0  0  0
  5  6  2  0  0  0  0
  5  7  1  0  0  0  0
  2  3  1  0  0  0  0
  2  4  1  0  0  0  0
  2  5  1  0  0  0  0
  1  2  1  0  0  0  0
 22 23  2  0  0  0  0
 22 24  1  0  0  0  0
 20 21  1  0  0  0  0
 19 20  1  0  0  0  0
 17 18  1  0  0  0  0
 17 19  2  0  0  0  0
 15 16  1  0  0  0  0
 15 17  1  0  0  0  0
 14 15  1  0  0  0  0
 14 20  2  0  0  0  0
 11 12  1  0  0  0  0
 11 13  1  0  0  0  0
 11 14  1  0  0  0  0
  9 10  1  0  0  0  0
  9 11  1  0  0  0  0
  9 22  1  0  0  0  0
  7  8  1  0  0  0  0
  7  9  1  0  0  0  0
 26 27  1  0  0  0  0
 26 28  1  0  0  0  0
 26 29  1  0  0  0  0
 24 25  1  0  0  0  0
 24 26  1  0  0  0  0
M  END
$$$$
default_name
  -OEChem-01062215323D

 29 29  0     1  0  0  0  0  0999 V2000
   -3.6042   -3.5728    1.4576 H   0  0  0  0  0  0  0  0  0  0  0  0
   -3.5202   -2.6488    0.8866 C   0  0  0  0  0  0  0  0  0  0  0  0
   -4.2052   -1.9048    1.2896 H   0  0  0  0  0  0  0  0  0  0  0  0
   -3.7552   -2.8428   -0.1584 H   0  0  0  0  0  0  0  0  0  0  0  0
   -2.1052   -2.1358    0.9946 C   0  0  0  0  0  0  0  0  0  0  0  0
   -1.2852   -2.7288    1.6826 O   0  0  0  0  0  0  0  0  0  0  0  0
   -1.8202   -1.0288    0.3146 N   0  0  0  0  0  0  0  0  0  0  0  0
   -2.5542   -0.5788   -0.2104 H   0  0  0  0  0  0  0  0  0  0  0  0
   -0.5102   -0.3728    0.3086 C   0  0  1  0  0  0  0  0  0  0  0  0
   -0.6192    0.6215   -0.1270 H   0  0  0  0  0  0  0  0  0  0  0  0
   -0.0211   -0.2085    1.7594 C   0  0  0  0  0  0  0  0  0  0  0  0
    0.0137   -1.1889    2.2379 H   0  0  0  0  0  0  0  0  0  0  0  0
    0.9926    0.1962    1.7494 H   0  0  0  0  0  0  0  0  0  0  0  0
   -0.8901    0.6996    2.5903 C   0  0  0  0  0  0  0  0  0  0  0  0
   -0.9365    2.0753    2.5174 N   0  0  0  0  0  0  0  0  0  0  0  0
   -0.3402    2.6617    1.9528 H   0  0  0  0  0  0  0  0  0  0  0  0
   -1.9132    2.5021    3.3356 C   0  0  0  0  0  0  0  0  0  0  0  0
   -2.1866    3.5377    3.4972 H   0  0  0  0  0  0  0  0  0  0  0  0
   -2.5117    1.4585    3.9281 N   0  0  0  0  0  0  0  0  0  0  0  0
   -1.8677    0.3080    3.4657 C   0  0  0  0  0  0  0  0  0  0  0  0
   -2.1192   -0.7126    3.7237 H   0  0  0  0  0  0  0  0  0  0  0  0
    0.4904   -1.1581   -0.5562 C   0  0  0  0  0  0  0  0  0  0  0  0
    0.2462   -2.3184   -0.8859 O   0  0  0  0  0  0  0  0  0  0  0  0
    1.6219   -0.5348   -0.9081 N   0  0  0  0  0  0  0  0  0  0  0  0
    1.7733    0.3978   -0.5528 H   0  0  0  0  0  0  0  0  0  0  0  0
    2.6720   -1.1321   -1.7290 C   0  0  0  0  0  0  0  0  0  0  0  0
    2.2649   -1.4121   -2.7032 H   0  0  0  0  0  0  0  0  0  0  0  0
    3.4863   -0.4211   -1.8715 H   0  0  0  0  0  0  0  0  0  0  0  0
    3.0581   -2.0291   -1.2424 H   0  0  0  0  0  0  0  0  0  0  0  0
  5  6  2  0  0  0  0
  5  7  1  0  0  0  0
  2  3  1  0  0  0  0
  2  4  1  0  0  0  0
  2  5  1  0  0  0  0
  1  2  1  0  0  0  0
 22 23  2  0  0  0  0
 22 24  1  0  0  0  0
 20 21  1  0  0  0  0
 19 20  1  0  0  0  0
 17 18  1  0  0  0  0
 17 19  2  0  0  0  0
 15 16  1  0  0  0  0
 15 17  1  0  0  0  0
 14 15  1  0  0  0  0
 14 20  2  0  0  0  0
 11 12  1  0  0  0  0
 11 13  1  0  0  0  0
 11 14  1  0  0  0  0
  9 10  1  0  0  0  0
  9 11  1  0  0  0  0
  9 22  1  0  0  0  0
  7  8  1  0  0  0  0
  7  9  1  0  0  0  0
 26 27  1  0  0  0  0
 26 28  1  0  0  0  0
 26 29  1  0  0  0  0
 24 25  1  0  0  0  0
 24 26  1  0  0  0  0
M  END
$$$$
default_name
  -OEChem-01062215323D

 29 29  0     1  0  0  0  0  0999 V2000
   -3.6042   -3.5728    1.4576 H   0  0  0  0  0  0  0  0  0  0  0  0
   -3.5202   -2.6488    0.8866 C   0  0  0  0  0  0  0  0  0  0  0  0
   -4.2052   -1.9048    1.2896 H   0  0  0  0  0  0  0  0  0  0  0  0
   -3.7552   -2.8428   -0.1584 H   0  0  0  0  0  0  0  0  0  0  0  0
   -2.1052   -2.1358    0.9946 C   0  0  0  0  0  0  0  0  0  0  0  0
   -1.2852   -2.7288    1.6826 O   0  0  0  0  0  0  0  0  0  0  0  0
   -1.8202   -1.0288    0.3146 N   0  0  0  0  0  0  0  0  0  0  0  0
   -2.5542   -0.5788   -0.2104 H   0  0  0  0  0  0  0  0  0  0  0  0
   -0.5102   -0.3728    0.3086 C   0  0  1  0  0  0  0  0  0  0  0  0
   -0.6543    0.6939    0.1305 H   0  0  0  0  0  0  0  0  0  0  0  0
    0.1459   -0.5427    1.6912 C   0  0  0  0  0  0  0  0  0  0  0  0
    0.2215   -1.6067    1.9225 H   0  0  0  0  0  0  0  0  0  0  0  0
    1.1575   -0.1340    1.6576 H   0  0  0  0  0  0  0  0  0  0  0  0
   -0.6076    0.1375    2.8047 C   0  0  0  0  0  0  0  0  0  0  0  0
   -0.6419    1.4920    3.0580 N   0  0  0  0  0  0  0  0  0  0  0  0
   -0.1064    2.2005    2.5791 H   0  0  0  0  0  0  0  0  0  0  0  0
   -1.5109    1.7054    4.0603 C   0  0  0  0  0  0  0  0  0  0  0  0
   -1.7485    2.6719    4.4877 H   0  0  0  0  0  0  0  0  0  0  0  0
   -2.0521    0.5456    4.4606 N   0  0  0  0  0  0  0  0  0  0  0  0
   -1.4829   -0.4585    3.6731 C   0  0  0  0  0  0  0  0  0  0  0  0
   -1.7179   -1.5141    3.7154 H   0  0  0  0  0  0  0  0  0  0  0  0
    0.3719   -0.9239   -0.8245 C   0  0  0  0  0  0  0  0  0  0  0  0
   -0.0531   -1.8113   -1.5639 O   0  0  0  0  0  0  0  0  0  0  0  0
    1.6031   -0.4131   -0.9503 N   0  0  0  0  0  0  0  0  0  0  0  0
    1.8975    0.2732   -0.2711 H   0  0  0  0  0  0  0  0  0  0  0  0
    2.5641   -0.8184   -1.9727 C   0  0  0  0  0  0  0  0  0  0  0  0
    2.1480   -0.6322   -2.9654 H   0  0  0  0  0  0  0  0  0  0  0  0
    3.4907   -0.2546   -1.8607 H   0  0  0  0  0  0  0  0  0  0  0  0
    2.7776   -1.8843   -1.8793 H   0  0  0  0  0  0  0  0  0  0  0  0
  5  6  2  0  0  0  0
  5  7  1  0  0  0  0
  2  3  1  0  0  0  0
  2  4  1  0  0  0  0
  2  5  1  0  0  0  0
  1  2  1  0  0  0  0
 22 23  2  0  0  0  0
 22 24  1  0  0  0  0
 20 21  1  0  0  0  0
 19 20  1  0  0  0  0
 17 18  1  0  0  0  0
 17 19  2  0  0  0  0
 15 16  1  0  0  0  0
 15 17  1  0  0  0  0
 14 15  1  0  0  0  0
 14 20  2  0  0  0  0
 11 12  1  0  0  0  0
 11 13  1  0  0  0  0
 11 14  1  0  0  0  0
  9 10  1  0  0  0  0
  9 11  1  0  0  0  0
  9 22  1  0  0  0  0
  7  8  1  0  0  0  0
  7  9  1  0  0  0  0
 26 27  1  0  0  0  0
 26 28  1  0  0  0  0
 26 29  1  0  0  0  0
 24 25  1  0  0  0  0
 24 26  1  0  0  0  0
M  END
$$$$
default_name
  -OEChem-01062215323D

 29 29  0     1  0  0  0  0  0999 V2000
   -3.6042   -3.5728    1.4576 H   0  0  0  0  0  0  0  0  0  0  0  0
   -3.5202   -2.6488    0.8866 C   0  0  0  0  0  0  0  0  0  0  0  0
   -4.2052   -1.9048    1.2896 H   0  0  0  0  0  0  0  0  0  0  0  0
   -3.7552   -2.8428   -0.1584 H   0  0  0  0  0  0  0  0  0  0  0  0
   -2.1052   -2.1358    0.9946 C   0  0  0  0  0  0  0  0  0  0  0  0
   -1.2852   -2.7288    1.6826 O   0  0  0  0  0  0  0  0  0  0  0  0
   -1.8202   -1.0288    0.3146 N   0  0  0  0  0  0  0  0  0  0  0  0
   -2.5542   -0.5788   -0.2104 H   0  0  0  0  0  0  0  0  0  0  0  0
   -0.5102   -0.3728    0.3086 C   0  0  1  0  0  0  0  0  0  0  0  0
   -0.6543    0.6939    0.1305 H   0  0  0  0  0  0  0  0  0  0  0  0
    0.1459   -0.5427    1.6912 C   0  0  0  0  0  0  0  0  0  0  0  0
    0.2215   -1.6067    1.9225 H   0  0  0  0  0  0  0  0  0  0  0  0
    1.1575   -0.1340    1.6576 H   0  0  0  0  0  0  0  0  0  0  0  0
   -0.6076    0.1375    2.8047 C   0  0  0  0  0  0  0  0  0  0  0  0
   -0.6419    1.4920    3.0580 N   0  0  0  0  0  0  0  0  0  0  0  0
   -0.1064    2.2005    2.5791 H   0  0  0  0  0  0  0  0  0  0  0  0
   -1.5109    1.7054    4.0603 C   0  0  0  0  0  0  0  0  0  0  0  0
   -1.7485    2.6719    4.4877 H   0  0  0  0  0  0  0  0  0  0  0  0
   -2.0521    0.5456    4.4606 N   0  0  0  0  0  0  0  0  0  0  0  0
   -1.4829   -0.4585    3.6731 C   0  0  0  0  0  0  0  0  0  0  0  0
   -1.7179   -1.5141    3.7154 H   0  0  0  0  0  0  0  0  0  0  0  0
    0.3719   -0.9239   -0.8245 C   0  0  0  0  0  0  0  0  0  0  0  0
   -0.1271   -1.5978   -1.7254 O   0  0  0  0  0  0  0  0  0  0  0  0
    1.6822   -0.6541   -0.7715 N   0  0  0  0  0  0  0  0  0  0  0  0
    2.0231   -0.1411    0.0283 H   0  0  0  0  0  0  0  0  0  0  0  0
    2.6564   -1.0947   -1.7664 C   0  0  0  0  0  0  0  0  0  0  0  0
    2.3904   -0.6934   -2.7469 H   0  0  0  0  0  0  0  0  0  0  0  0
    3.6534   -0.7465   -1.4948 H   0  0  0  0  0  0  0  0  0  0  0  0
    2.6593   -2.1842   -1.8256 H   0  0  0  0  0  0  0  0  0  0  0  0
  5  6  2  0  0  0  0
  5  7  1  0  0  0  0
  2  3  1  0  0  0  0
  2  4  1  0  0  0  0
  2  5  1  0  0  0  0
  1  2  1  0  0  0  0
 22 23  2  0  0  0  0
 22 24  1  0  0  0  0
 20 21  1  0  0  0  0
 19 20  1  0  0  0  0
 17 18  1  0  0  0  0
 17 19  2  0  0  0  0
 15 16  1  0  0  0  0
 15 17  1  0  0  0  0
 14 15  1  0  0  0  0
 14 20  2  0  0  0  0
 11 12  1  0  0  0  0
 11 13  1  0  0  0  0
 11 14  1  0  0  0  0
  9 10  1  0  0  0  0
  9 11  1  0  0  0  0
  9 22  1  0  0  0  0
  7  8  1  0  0  0  0
  7  9  1  0  0  0  0
 26 27  1  0  0  0  0
 26 28  1  0  0  0  0
 26 29  1  0  0  0  0
 24 25  1  0  0  0  0
 24 26  1  0  0  0  0
M  END
$$$$
default_name
  -OEChem-01062215323D

 29 29  0     1  0  0  0  0  0999 V2000
   -3.6042   -3.5728    1.4576 H   0  0  0  0  0  0  0  0  0  0  0  0
   -3.5202   -2.6488    0.8866 C   0  0  0  0  0  0  0  0  0  0  0  0
   -4.2052   -1.9048    1.2896 H   0  0  0  0  0  0  0  0  0  0  0  0
   -3.7552   -2.8428   -0.1584 H   0  0  0  0  0  0  0  0  0  0  0  0
   -2.1052   -2.1358    0.9946 C   0  0  0  0  0  0  0  0  0  0  0  0
   -1.2852   -2.7288    1.6826 O   0  0  0  0  0  0  0  0  0  0  0  0
   -1.8202   -1.0288    0.3146 N   0  0  0  0  0  0  0  0  0  0  0  0
   -2.5542   -0.5788   -0.2104 H   0  0  0  0  0  0  0  0  0  0  0  0
   -0.5102   -0.3728    0.3086 C   0  0  1  0  0  0  0  0  0  0  0  0
   -0.6543    0.6939    0.1305 H   0  0  0  0  0  0  0  0  0  0  0  0
    0.1459   -0.5427    1.6912 C   0  0  0  0  0  0  0  0  0  0  0  0
    0.2215   -1.6067    1.9225 H   0  0  0  0  0  0  0  0  0  0  0  0
    1.1575   -0.1340    1.6576 H   0  0  0  0  0  0  0  0  0  0  0  0
   -0.6076    0.1375    2.8047 C   0  0  0  0  0  0  0  0  0  0  0  0
   -0.6419    1.4920    3.0580 N   0  0  0  0  0  0  0  0  0  0  0  0
   -0.1064    2.2005    2.5791 H   0  0  0  0  0  0  0  0  0  0  0  0
   -1.5109    1.7054    4.0603 C   0  0  0  0  0  0  0  0  0  0  0  0
   -1.7485    2.6719    4.4877 H   0  0  0  0  0  0  0  0  0  0  0  0
   -2.0521    0.5456    4.4606 N   0  0  0  0  0  0  0  0  0  0  0  0
   -1.4829   -0.4585    3.6731 C   0  0  0  0  0  0  0  0  0  0  0  0
   -1.7179   -1.5141    3.7154 H   0  0  0  0  0  0  0  0  0  0  0  0
    0.3719   -0.9239   -0.8245 C   0  0  0  0  0  0  0  0  0  0  0  0
   -0.1429   -1.3535   -1.8565 O   0  0  0  0  0  0  0  0  0  0  0  0
    1.6961   -0.9285   -0.6272 N   0  0  0  0  0  0  0  0  0  0  0  0
    2.0378   -0.6096    0.2676 H   0  0  0  0  0  0  0  0  0  0  0  0
    2.6737   -1.4098   -1.5997 C   0  0  0  0  0  0  0  0  0  0  0  0
    2.5925   -0.8311   -2.5225 H   0  0  0  0  0  0  0  0  0  0  0  0
    3.6827   -1.3069   -1.1993 H   0  0  0  0  0  0  0  0  0  0  0  0
    2.4827   -2.4593   -1.8293 H   0  0  0  0  0  0  0  0  0  0  0  0
  5  6  2  0  0  0  0
  5  7  1  0  0  0  0
  2  3  1  0  0  0  0
  2  4  1  0  0  0  0
  2  5  1  0  0  0  0
  1  2  1  0  0  0  0
 22 23  2  0  0  0  0
 22 24  1  0  0  0  0
 20 21  1  0  0  0  0
 19 20  1  0  0  0  0
 17 18  1  0  0  0  0
 17 19  2  0  0  0  0
 15 16  1  0  0  0  0
 15 17  1  0  0  0  0
 14 15  1  0  0  0  0
 14 20  2  0  0  0  0
 11 12  1  0  0  0  0
 11 13  1  0  0  0  0
 11 14  1  0  0  0  0
  9 10  1  0  0  0  0
  9 11  1  0  0  0  0
  9 22  1  0  0  0  0
  7  8  1  0  0  0  0
  7  9  1  0  0  0  0
 26 27  1  0  0  0  0
 26 28  1  0  0  0  0
 26 29  1  0  0  0  0
 24 25  1  0  0  0  0
 24 26  1  0  0  0  0
M  END
$$$$
default_name
  -OEChem-01062215323D

 29 29  0     1  0  0  0  0  0999 V2000
   -3.6042   -3.5728    1.4576 H   0  0  0  0  0  0  0  0  0  0  0  0
   -3.5202   -2.6488    0.8866 C   0  0  0  0  0  0  0  0  0  0  0  0
   -4.2052   -1.9048    1.2896 H   0  0  0  0  0  0  0  0  0  0  0  0
   -3.7552   -2.8428   -0.1584 H   0  0  0  0  0  0  0  0  0  0  0  0
   -2.1052   -2.1358    0.9946 C   0  0  0  0  0  0  0  0  0  0  0  0
   -1.2852   -2.7288    1.6826 O   0  0  0  0  0  0  0  0  0  0  0  0
   -1.8202   -1.0288    0.3146 N   0  0  0  0  0  0  0  0  0  0  0  0
   -2.5542   -0.5788   -0.2104 H   0  0  0  0  0  0  0  0  0  0  0  0
   -0.5102   -0.3728    0.3086 C   0  0  1  0  0  0  0  0  0  0  0  0
   -0.6543    0.6939    0.1305 H   0  0  0  0  0  0  0  0  0  0  0  0
    0.1459   -0.5427    1.6912 C   0  0  0  0  0  0  0  0  0  0  0  0
    0.2215   -1.6067    1.9225 H   0  0  0  0  0  0  0  0  0  0  0  0
    1.1575   -0.1340    1.6576 H   0  0  0  0  0  0  0  0  0  0  0  0
   -0.6076    0.1375    2.8047 C   0  0  0  0  0  0  0  0  0  0  0  0
   -0.6419    1.4920    3.0580 N   0  0  0  0  0  0  0  0  0  0  0  0
   -0.1064    2.2005    2.5791 H   0  0  0  0  0  0  0  0  0  0  0  0
   -1.5109    1.7054    4.0603 C   0  0  0  0  0  0  0  0  0  0  0  0
   -1.7485    2.6719    4.4877 H   0  0  0  0  0  0  0  0  0  0  0  0
   -2.0521    0.5456    4.4606 N   0  0  0  0  0  0  0  0  0  0  0  0
   -1.4829   -0.4585    3.6731 C   0  0  0  0  0  0  0  0  0  0  0  0
   -1.7179   -1.5141    3.7154 H   0  0  0  0  0  0  0  0  0  0  0  0
    0.3719   -0.9239   -0.8245 C   0  0  0  0  0  0  0  0  0  0  0  0
   -0.0995   -1.0951   -1.9484 O   0  0  0  0  0  0  0  0  0  0  0  0
    1.6439   -1.2176   -0.5272 N   0  0  0  0  0  0  0  0  0  0  0  0
    1.9404   -1.1005    0.4306 H   0  0  0  0  0  0  0  0  0  0  0  0
    2.6149   -1.7423   -1.4838 C   0  0  0  0  0  0  0  0  0  0  0  0
    2.7407   -1.0360   -2.3075 H   0  0  0  0  0  0  0  0  0  0  0  0
    3.5769   -1.8976   -0.9944 H   0  0  0  0  0  0  0  0  0  0  0  0
    2.2601   -2.6908   -1.8900 H   0  0  0  0  0  0  0  0  0  0  0  0
  5  6  2  0  0  0  0
  5  7  1  0  0  0  0
  2  3  1  0  0  0  0
  2  4  1  0  0  0  0
  2  5  1  0  0  0  0
  1  2  1  0  0  0  0
 22 23  2  0  0  0  0
 22 24  1  0  0  0  0
 20 21  1  0  0  0  0
 19 20  1  0  0  0  0
 17 18  1  0  0  0  0
 17 19  2  0  0  0  0
 15 16  1  0  0  0  0
 15 17  1  0  0  0  0
 14 15  1  0  0  0  0
 14 20  2  0  0  0  0
 11 12  1  0  0  0  0
 11 13  1  0  0  0  0
 11 14  1  0  0  0  0
  9 10  1  0  0  0  0
  9 11  1  0  0  0  0
  9 22  1  0  0  0  0
  7  8  1  0  0  0  0
  7  9  1  0  0  0  0
 26 27  1  0  0  0  0
 26 28  1  0  0  0  0
 26 29  1  0  0  0  0
 24 25  1  0  0  0  0
 24 26  1  0  0  0  0
M  END
$$$$
default_name
  -OEChem-01062215323D

 29 29  0     1  0  0  0  0  0999 V2000
   -3.6042   -3.5728    1.4576 H   0  0  0  0  0  0  0  0  0  0  0  0
   -3.5202   -2.6488    0.8866 C   0  0  0  0  0  0  0  0  0  0  0  0
   -4.2052   -1.9048    1.2896 H   0  0  0  0  0  0  0  0  0  0  0  0
   -3.7552   -2.8428   -0.1584 H   0  0  0  0  0  0  0  0  0  0  0  0
   -2.1052   -2.1358    0.9946 C   0  0  0  0  0  0  0  0  0  0  0  0
   -1.2852   -2.7288    1.6826 O   0  0  0  0  0  0  0  0  0  0  0  0
   -1.8202   -1.0288    0.3146 N   0  0  0  0  0  0  0  0  0  0  0  0
   -2.5542   -0.5788   -0.2104 H   0  0  0  0  0  0  0  0  0  0  0  0
   -0.5102   -0.3728    0.3086 C   0  0  1  0  0  0  0  0  0  0  0  0
   -0.6543    0.6939    0.1305 H   0  0  0  0  0  0  0  0  0  0  0  0
    0.1459   -0.5427    1.6912 C   0  0  0  0  0  0  0  0  0  0  0  0
    0.2215   -1.6067    1.9225 H   0  0  0  0  0  0  0  0  0  0  0  0
    1.1575   -0.1340    1.6576 H   0  0  0  0  0  0  0  0  0  0  0  0
   -0.6076    0.1375    2.8047 C   0  0  0  0  0  0  0  0  0  0  0  0
   -0.6419    1.4920    3.0580 N   0  0  0  0  0  0  0  0  0  0  0  0
   -0.1064    2.2005    2.5791 H   0  0  0  0  0  0  0  0  0  0  0  0
   -1.5109    1.7054    4.0603 C   0  0  0  0  0  0  0  0  0  0  0  0
   -1.7485    2.6719    4.4877 H   0  0  0  0  0  0  0  0  0  0  0  0
   -2.0521    0.5456    4.4606 N   0  0  0  0  0  0  0  0  0  0  0  0
   -1.4829   -0.4585    3.6731 C   0  0  0  0  0  0  0  0  0  0  0  0
   -1.7179   -1.5141    3.7154 H   0  0  0  0  0  0  0  0  0  0  0  0
    0.3719   -0.9239   -0.8245 C   0  0  0  0  0  0  0  0  0  0  0  0
    0.0003   -0.8401   -1.9948 O   0  0  0  0  0  0  0  0  0  0  0  0
    1.5290   -1.5018   -0.4784 N   0  0  0  0  0  0  0  0  0  0  0  0
    1.7376   -1.5803    0.5061 H   0  0  0  0  0  0  0  0  0  0  0  0
    2.4839   -2.0694   -1.4266 C   0  0  0  0  0  0  0  0  0  0  0  0
    2.8248   -1.2941   -2.1164 H   0  0  0  0  0  0  0  0  0  0  0  0
    3.3429   -2.4785   -0.8940 H   0  0  0  0  0  0  0  0  0  0  0  0
    2.0066   -2.8630   -2.0036 H   0  0  0  0  0  0  0  0  0  0  0  0
  5  6  2  0  0  0  0
  5  7  1  0  0  0  0
  2  3  1  0  0  0  0
  2  4  1  0  0  0  0
  2  5  1  0  0  0  0
  1  2  1  0  0  0  0
 22 23  2  0  0  0  0
 22 24  1  0  0  0  0
 20 21  1  0  0  0  0
 19 20  1  0  0  0  0
 17 18  1  0  0  0  0
 17 19  2  0  0  0  0
 15 16  1  0  0  0  0
 15 17  1  0  0  0  0
 14 15  1  0  0  0  0
 14 20  2  0  0  0  0
 11 12  1  0  0  0  0
 11 13  1  0  0  0  0
 11 14  1  0  0  0  0
  9 10  1  0  0  0  0
  9 11  1  0  0  0  0
  9 22  1  0  0  0  0
  7  8  1  0  0  0  0
  7  9  1  0  0  0  0
 26 27  1  0  0  0  0
 26 28  1  0  0  0  0
 26 29  1  0  0  0  0
 24 25  1  0  0  0  0
 24 26  1  0  0  0  0
M  END
$$$$
default_name
  -OEChem-01062215323D

 29 29  0     1  0  0  0  0  0999 V2000
   -3.6042   -3.5728    1.4576 H   0  0  0  0  0  0  0  0  0  0  0  0
   -3.5202   -2.6488    0.8866 C   0  0  0  0  0  0  0  0  0  0  0  0
   -4.2052   -1.9048    1.2896 H   0  0  0  0  0  0  0  0  0  0  0  0
   -3.7552   -2.8428   -0.1584 H   0  0  0  0  0  0  0  0  0  0  0  0
   -2.1052   -2.1358    0.9946 C   0  0  0  0  0  0  0  0  0  0  0  0
   -1.2852   -2.7288    1.6826 O   0  0  0  0  0  0  0  0  0  0  0  0
   -1.8202   -1.0288    0.3146 N   0  0  0  0  0  0  0  0  0  0  0  0
   -2.5542   -0.5788   -0.2104 H   0  0  0  0  0  0  0  0  0  0  0  0
   -0.5102   -0.3728    0.3086 C   0  0  1  0  0  0  0  0  0  0  0  0
   -0.6543    0.6939    0.1305 H   0  0  0  0  0  0  0  0  0  0  0  0
    0.1459   -0.5427    1.6912 C   0  0  0  0  0  0  0  0  0  0  0  0
    0.2215   -1.6067    1.9225 H   0  0  0  0  0  0  0  0  0  0  0  0
    1.1575   -0.1340    1.6576 H   0  0  0  0  0  0  0  0  0  0  0  0
   -0.6076    0.1375    2.8047 C   0  0  0  0  0  0  0  0  0  0  0  0
   -0.6419    1.4920    3.0580 N   0  0  0  0  0  0  0  0  0  0  0  0
   -0.1064    2.2005    2.5791 H   0  0  0  0  0  0  0  0  0  0  0  0
   -1.5109    1.7054    4.0603 C   0  0  0  0  0  0  0  0  0  0  0  0
   -1.7485    2.6719    4.4877 H   0  0  0  0  0  0  0  0  0  0  0  0
   -2.0521    0.5456    4.4606 N   0  0  0  0  0  0  0  0  0  0  0  0
   -1.4829   -0.4585    3.6731 C   0  0  0  0  0  0  0  0  0  0  0  0
   -1.7179   -1.5141    3.7154 H   0  0  0  0  0  0  0  0  0  0  0  0
    0.3719   -0.9239   -0.8245 C   0  0  0  0  0  0  0  0  0  0  0  0
    0.1496   -0.6059   -1.9925 O   0  0  0  0  0  0  0  0  0  0  0  0
    1.3594   -1.7616   -0.4841 N   0  0  0  0  0  0  0  0  0  0  0  0
    1.4433   -2.0163    0.4890 H   0  0  0  0  0  0  0  0  0  0  0  0
    2.2898   -2.3689   -1.4321 C   0  0  0  0  0  0  0  0  0  0  0  0
    2.8392   -1.5878   -1.9624 H   0  0  0  0  0  0  0  0  0  0  0  0
    2.9969   -3.0099   -0.9049 H   0  0  0  0  0  0  0  0  0  0  0  0
    1.7394   -2.9641   -2.1624 H   0  0  0  0  0  0  0  0  0  0  0  0
  5  6  2  0  0  0  0
  5  7  1  0  0  0  0
  2  3  1  0  0  0  0
  2  4  1  0  0  0  0
  2  5  1  0  0  0  0
  1  2  1  0  0  0  0
 22 23  2  0  0  0  0
 22 24  1  0  0  0  0
 20 21  1  0  0  0  0
 19 20  1  0  0  0  0
 17 18  1  0  0  0  0
 17 19  2  0  0  0  0
 15 16  1  0  0  0  0
 15 17  1  0  0  0  0
 14 15  1  0  0  0  0
 14 20  2  0  0  0  0
 11 12  1  0  0  0  0
 11 13  1  0  0  0  0
 11 14  1  0  0  0  0
  9 10  1  0  0  0  0
  9 11  1  0  0  0  0
  9 22  1  0  0  0  0
  7  8  1  0  0  0  0
  7  9  1  0  0  0  0
 26 27  1  0  0  0  0
 26 28  1  0  0  0  0
 26 29  1  0  0  0  0
 24 25  1  0  0  0  0
 24 26  1  0  0  0  0
M  END
$$$$
default_name
  -OEChem-01062215323D

 29 29  0     1  0  0  0  0  0999 V2000
   -3.6042   -3.5728    1.4576 H   0  0  0  0  0  0  0  0  0  0  0  0
   -3.5202   -2.6488    0.8866 C   0  0  0  0  0  0  0  0  0  0  0  0
   -4.2052   -1.9048    1.2896 H   0  0  0  0  0  0  0  0  0  0  0  0
   -3.7552   -2.8428   -0.1584 H   0  0  0  0  0  0  0  0  0  0  0  0
   -2.1052   -2.1358    0.9946 C   0  0  0  0  0  0  0  0  0  0  0  0
   -1.2852   -2.7288    1.6826 O   0  0  0  0  0  0  0  0  0  0  0  0
   -1.8202   -1.0288    0.3146 N   0  0  0  0  0  0  0  0  0  0  0  0
   -2.5542   -0.5788   -0.2104 H   0  0  0  0  0  0  0  0  0  0  0  0
   -0.5102   -0.3728    0.3086 C   0  0  1  0  0  0  0  0  0  0  0  0
   -0.6543    0.6939    0.1305 H   0  0  0  0  0  0  0  0  0  0  0  0
    0.1459   -0.5427    1.6912 C   0  0  0  0  0  0  0  0  0  0  0  0
    0.2215   -1.6067    1.9225 H   0  0  0  0  0  0  0  0  0  0  0  0
    1.1575   -0.1340    1.6576 H   0  0  0  0  0  0  0  0  0  0  0  0
   -0.6076    0.1375    2.8047 C   0  0  0  0  0  0  0  0  0  0  0  0
   -0.6419    1.4920    3.0580 N   0  0  0  0  0  0  0  0  0  0  0  0
   -0.1064    2.2005    2.5791 H   0  0  0  0  0  0  0  0  0  0  0  0
   -1.5109    1.7054    4.0603 C   0  0  0  0  0  0  0  0  0  0  0  0
   -1.7485    2.6719    4.4877 H   0  0  0  0  0  0  0  0  0  0  0  0
   -2.0521    0.5456    4.4606 N   0  0  0  0  0  0  0  0  0  0  0  0
   -1.4829   -0.4585    3.6731 C   0  0  0  0  0  0  0  0  0  0  0  0
   -1.7179   -1.5141    3.7154 H   0  0  0  0  0  0  0  0  0  0  0  0
    0.3719   -0.9239   -0.8245 C   0  0  0  0  0  0  0  0  0  0  0  0
    0.3382   -0.4085   -1.9416 O   0  0  0  0  0  0  0  0  0  0  0  0
    1.1465   -1.9793   -0.5440 N   0  0  0  0  0  0  0  0  0  0  0  0
    1.0775   -2.3788    0.3805 H   0  0  0  0  0  0  0  0  0  0  0  0
    2.0456   -2.6203   -1.4999 C   0  0  0  0  0  0  0  0  0  0  0  0
    2.7828   -1.8971   -1.8559 H   0  0  0  0  0  0  0  0  0  0  0  0
    2.5624   -3.4556   -1.0264 H   0  0  0  0  0  0  0  0  0  0  0  0
    1.4768   -2.9872   -2.3556 H   0  0  0  0  0  0  0  0  0  0  0  0
  5  6  2  0  0  0  0
  5  7  1  0  0  0  0
  2  3  1  0  0  0  0
  2  4  1  0  0  0  0
  2  5  1  0  0  0  0
  1  2  1  0  0  0  0
 22 23  2  0  0  0  0
 22 24  1  0  0  0  0
 20 21  1  0  0  0  0
 19 20  1  0  0  0  0
 17 18  1  0  0  0  0
 17 19  2  0  0  0  0
 15 16  1  0  0  0  0
 15 17  1  0  0  0  0
 14 15  1  0  0  0  0
 14 20  2  0  0  0  0
 11 12  1  0  0  0  0
 11 13  1  0  0  0  0
 11 14  1  0  0  0  0
  9 10  1  0  0  0  0
  9 11  1  0  0  0  0
  9 22  1  0  0  0  0
  7  8  1  0  0  0  0
  7  9  1  0  0  0  0
 26 27  1  0  0  0  0
 26 28  1  0  0  0  0
 26 29  1  0  0  0  0
 24 25  1  0  0  0  0
 24 26  1  0  0  0  0
M  END
$$$$
default_name
  -OEChem-01062215323D

 29 29  0     1  0  0  0  0  0999 V2000
   -3.6042   -3.5728    1.4576 H   0  0  0  0  0  0  0  0  0  0  0  0
   -3.5202   -2.6488    0.8866 C   0  0  0  0  0  0  0  0  0  0  0  0
   -4.2052   -1.9048    1.2896 H   0  0  0  0  0  0  0  0  0  0  0  0
   -3.7552   -2.8428   -0.1584 H   0  0  0  0  0  0  0  0  0  0  0  0
   -2.1052   -2.1358    0.9946 C   0  0  0  0  0  0  0  0  0  0  0  0
   -1.2852   -2.7288    1.6826 O   0  0  0  0  0  0  0  0  0  0  0  0
   -1.8202   -1.0288    0.3146 N   0  0  0  0  0  0  0  0  0  0  0  0
   -2.5542   -0.5788   -0.2104 H   0  0  0  0  0  0  0  0  0  0  0  0
   -0.5102   -0.3728    0.3086 C   0  0  1  0  0  0  0  0  0  0  0  0
   -0.6543    0.6939    0.1305 H   0  0  0  0  0  0  0  0  0  0  0  0
    0.1459   -0.5427    1.6912 C   0  0  0  0  0  0  0  0  0  0  0  0
    0.2215   -1.6067    1.9225 H   0  0  0  0  0  0  0  0  0  0  0  0
    1.1575   -0.1340    1.6576 H   0  0  0  0  0  0  0  0  0  0  0  0
   -0.6076    0.1375    2.8047 C   0  0  0  0  0  0  0  0  0  0  0  0
   -0.6419    1.4920    3.0580 N   0  0  0  0  0  0  0  0  0  0  0  0
   -0.1064    2.2005    2.5791 H   0  0  0  0  0  0  0  0  0  0  0  0
   -1.5109    1.7054    4.0603 C   0  0  0  0  0  0  0  0  0  0  0  0
   -1.7485    2.6719    4.4877 H   0  0  0  0  0  0  0  0  0  0  0  0
   -2.0521    0.5456    4.4606 N   0  0  0  0  0  0  0  0  0  0  0  0
   -1.4829   -0.4585    3.6731 C   0  0  0  0  0  0  0  0  0  0  0  0
   -1.7179   -1.5141    3.7154 H   0  0  0  0  0  0  0  0  0  0  0  0
    0.3719   -0.9239   -0.8245 C   0  0  0  0  0  0  0  0  0  0  0  0
    0.5533   -0.2614   -1.8457 O   0  0  0  0  0  0  0  0  0  0  0  0
    0.9049   -2.1402   -0.6538 N   0  0  0  0  0  0  0  0  0  0  0  0
    0.6650   -2.6431    0.1879 H   0  0  0  0  0  0  0  0  0  0  0  0
    1.7682   -2.8066   -1.6253 C   0  0  0  0  0  0  0  0  0  0  0  0
    2.6594   -2.2009   -1.8042 H   0  0  0  0  0  0  0  0  0  0  0  0
    2.0690   -3.7853   -1.2502 H   0  0  0  0  0  0  0  0  0  0  0  0
    1.2366   -2.9308   -2.5701 H   0  0  0  0  0  0  0  0  0  0  0  0
  5  6  2  0  0  0  0
  5  7  1  0  0  0  0
  2  3  1  0  0  0  0
  2  4  1  0  0  0  0
  2  5  1  0  0  0  0
  1  2  1  0  0  0  0
 22 23  2  0  0  0  0
 22 24  1  0  0  0  0
 20 21  1  0  0  0  0
 19 20  1  0  0  0  0
 17 18  1  0  0  0  0
 17 19  2  0  0  0  0
 15 16  1  0  0  0  0
 15 17  1  0  0  0  0
 14 15  1  0  0  0  0
 14 20  2  0  0  0  0
 11 12  1  0  0  0  0
 11 13  1  0  0  0  0
 11 14  1  0  0  0  0
  9 10  1  0  0  0  0
  9 11  1  0  0  0  0
  9 22  1  0  0  0  0
  7  8  1  0  0  0  0
  7  9  1  0  0  0  0
 26 27  1  0  0  0  0
 26 28  1  0  0  0  0
 26 29  1  0  0  0  0
 24 25  1  0  0  0  0
 24 26  1  0  0  0  0
M  END
$$$$
default_name
  -OEChem-01062215323D

 29 29  0     1  0  0  0  0  0999 V2000
   -3.6042   -3.5728    1.4576 H   0  0  0  0  0  0  0  0  0  0  0  0
   -3.5202   -2.6488    0.8866 C   0  0  0  0  0  0  0  0  0  0  0  0
   -4.2052   -1.9048    1.2896 H   0  0  0  0  0  0  0  0  0  0  0  0
   -3.7552   -2.8428   -0.1584 H   0  0  0  0  0  0  0  0  0  0  0  0
   -2.1052   -2.1358    0.9946 C   0  0  0  0  0  0  0  0  0  0  0  0
   -1.2852   -2.7288    1.6826 O   0  0  0  0  0  0  0  0  0  0  0  0
   -1.8202   -1.0288    0.3146 N   0  0  0  0  0  0  0  0  0  0  0  0
   -2.5542   -0.5788   -0.2104 H   0  0  0  0  0  0  0  0  0  0  0  0
   -0.5102   -0.3728    0.3086 C   0  0  1  0  0  0  0  0  0  0  0  0
   -0.6543    0.6939    0.1305 H   0  0  0  0  0  0  0  0  0  0  0  0
    0.1459   -0.5427    1.6912 C   0  0  0  0  0  0  0  0  0  0  0  0
    0.2215   -1.6067    1.9225 H   0  0  0  0  0  0  0  0  0  0  0  0
    1.1575   -0.1340    1.6576 H   0  0  0  0  0  0  0  0  0  0  0  0
   -0.6076    0.1375    2.8047 C   0  0  0  0  0  0  0  0  0  0  0  0
   -0.6419    1.4920    3.0580 N   0  0  0  0  0  0  0  0  0  0  0  0
   -0.1064    2.2005    2.5791 H   0  0  0  0  0  0  0  0  0  0  0  0
   -1.5109    1.7054    4.0603 C   0  0  0  0  0  0  0  0  0  0  0  0
   -1.7485    2.6719    4.4877 H   0  0  0  0  0  0  0  0  0  0  0  0
   -2.0521    0.5456    4.4606 N   0  0  0  0  0  0  0  0  0  0  0  0
   -1.4829   -0.4585    3.6731 C   0  0  0  0  0  0  0  0  0  0  0  0
   -1.7179   -1.5141    3.7154 H   0  0  0  0  0  0  0  0  0  0  0  0
    0.3719   -0.9239   -0.8245 C   0  0  0  0  0  0  0  0  0  0  0  0
    0.7803   -0.1745   -1.7113 O   0  0  0  0  0  0  0  0  0  0  0  0
    0.6510   -2.2332   -0.8062 N   0  0  0  0  0  0  0  0  0  0  0  0
    0.2341   -2.7912   -0.0756 H   0  0  0  0  0  0  0  0  0  0  0  0
    1.4763   -2.9150   -1.7998 C   0  0  0  0  0  0  0  0  0  0  0  0
    2.4775   -2.4785   -1.8107 H   0  0  0  0  0  0  0  0  0  0  0  0
    1.5503   -3.9764   -1.5611 H   0  0  0  0  0  0  0  0  0  0  0  0
    1.0353   -2.7987   -2.7911 H   0  0  0  0  0  0  0  0  0  0  0  0
  5  6  2  0  0  0  0
  5  7  1  0  0  0  0
  2  3  1  0  0  0  0
  2  4  1  0  0  0  0
  2  5  1  0  0  0  0
  1  2  1  0  0  0  0
 22 23  2  0  0  0  0
 22 24  1  0  0  0  0
 20 21  1  0  0  0  0
 19 20  1  0  0  0  0
 17 18  1  0  0  0  0
 17 19  2  0  0  0  0
 15 16  1  0  0  0  0
 15 17  1  0  0  0  0
 14 15  1  0  0  0  0
 14 20  2  0  0  0  0
 11 12  1  0  0  0  0
 11 13  1  0  0  0  0
 11 14  1  0  0  0  0
  9 10  1  0  0  0  0
  9 11  1  0  0  0  0
  9 22  1  0  0  0  0
  7  8  1  0  0  0  0
  7  9  1  0  0  0  0
 26 27  1  0  0  0  0
 26 28  1  0  0  0  0
 26 29  1  0  0  0  0
 24 25  1  0  0  0  0
 24 26  1  0  0  0  0
M  END
$$$$
default_name
  -OEChem-01062215323D

 29 29  0     1  0  0  0  0  0999 V2000
   -3.6042   -3.5728    1.4576 H   0  0  0  0  0  0  0  0  0  0  0  0
   -3.5202   -2.6488    0.8866 C   0  0  0  0  0  0  0  0  0  0  0  0
   -4.2052   -1.9048    1.2896 H   0  0  0  0  0  0  0  0  0  0  0  0
   -3.7552   -2.8428   -0.1584 H   0  0  0  0  0  0  0  0  0  0  0  0
   -2.1052   -2.1358    0.9946 C   0  0  0  0  0  0  0  0  0  0  0  0
   -1.2852   -2.7288    1.6826 O   0  0  0  0  0  0  0  0  0  0  0  0
   -1.8202   -1.0288    0.3146 N   0  0  0  0  0  0  0  0  0  0  0  0
   -2.5542   -0.5788   -0.2104 H   0  0  0  0  0  0  0  0  0  0  0  0
   -0.5102   -0.3728    0.3086 C   0  0  1  0  0  0  0  0  0  0  0  0
   -0.6543    0.6939    0.1305 H   0  0  0  0  0  0  0  0  0  0  0  0
    0.1459   -0.5427    1.6912 C   0  0  0  0  0  0  0  0  0  0  0  0
    0.2215   -1.6067    1.9225 H   0  0  0  0  0  0  0  0  0  0  0  0
    1.1575   -0.1340    1.6576 H   0  0  0  0  0  0  0  0  0  0  0  0
   -0.6076    0.1375    2.8047 C   0  0  0  0  0  0  0  0  0  0  0  0
   -0.6419    1.4920    3.0580 N   0  0  0  0  0  0  0  0  0  0  0  0
   -0.1064    2.2005    2.5791 H   0  0  0  0  0  0  0  0  0  0  0  0
   -1.5109    1.7054    4.0603 C   0  0  0  0  0  0  0  0  0  0  0  0
   -1.7485    2.6719    4.4877 H   0  0  0  0  0  0  0  0  0  0  0  0
   -2.0521    0.5456    4.4606 N   0  0  0  0  0  0  0  0  0  0  0  0
   -1.4829   -0.4585    3.6731 C   0  0  0  0  0  0  0  0  0  0  0  0
   -1.7179   -1.5141    3.7154 H   0  0  0  0  0  0  0  0  0  0  0  0
    0.3719   -0.9239   -0.8245 C   0  0  0  0  0  0  0  0  0  0  0  0
    1.0036   -0.1538   -1.5475 O   0  0  0  0  0  0  0  0  0  0  0  0
    0.4022   -2.2520   -0.9908 N   0  0  0  0  0  0  0  0  0  0  0  0
   -0.1859   -2.8129   -0.3920 H   0  0  0  0  0  0  0  0  0  0  0  0
    1.1898   -2.9381   -2.0116 C   0  0  0  0  0  0  0  0  0  0  0  0
    2.2495   -2.7110   -1.8752 H   0  0  0  0  0  0  0  0  0  0  0  0
    1.0417   -4.0159   -1.9379 H   0  0  0  0  0  0  0  0  0  0  0  0
    0.8865   -2.5999   -3.0036 H   0  0  0  0  0  0  0  0  0  0  0  0
  5  6  2  0  0  0  0
  5  7  1  0  0  0  0
  2  3  1  0  0  0  0
  2  4  1  0  0  0  0
  2  5  1  0  0  0  0
  1  2  1  0  0  0  0
 22 23  2  0  0  0  0
 22 24  1  0  0  0  0
 20 21  1  0  0  0  0
 19 20  1  0  0  0  0
 17 18  1  0  0  0  0
 17 19  2  0  0  0  0
 15 16  1  0  0  0  0
 15 17  1  0  0  0  0
 14 15  1  0  0  0  0
 14 20  2  0  0  0  0
 11 12  1  0  0  0  0
 11 13  1  0  0  0  0
 11 14  1  0  0  0  0
  9 10  1  0  0  0  0
  9 11  1  0  0  0  0
  9 22  1  0  0  0  0
  7  8  1  0  0  0  0
  7  9  1  0  0  0  0
 26 27  1  0  0  0  0
 26 28  1  0  0  0  0
 26 29  1  0  0  0  0
 24 25  1  0  0  0  0
 24 26  1  0  0  0  0
M  END
$$$$
default_name
  -OEChem-01062215323D

 29 29  0     1  0  0  0  0  0999 V2000
   -3.6042   -3.5728    1.4576 H   0  0  0  0  0  0  0  0  0  0  0  0
   -3.5202   -2.6488    0.8866 C   0  0  0  0  0  0  0  0  0  0  0  0
   -4.2052   -1.9048    1.2896 H   0  0  0  0  0  0  0  0  0  0  0  0
   -3.7552   -2.8428   -0.1584 H   0  0  0  0  0  0  0  0  0  0  0  0
   -2.1052   -2.1358    0.9946 C   0  0  0  0  0  0  0  0  0  0  0  0
   -1.2852   -2.7288    1.6826 O   0  0  0  0  0  0  0  0  0  0  0  0
   -1.8202   -1.0288    0.3146 N   0  0  0  0  0  0  0  0  0  0  0  0
   -2.5542   -0.5788   -0.2104 H   0  0  0  0  0  0  0  0  0  0  0  0
   -0.5102   -0.3728    0.3086 C   0  0  1  0  0  0  0  0  0  0  0  0
   -0.6543    0.6939    0.1305 H   0  0  0  0  0  0  0  0  0  0  0  0
    0.1459   -0.5427    1.6912 C   0  0  0  0  0  0  0  0  0  0  0  0
    0.2215   -1.6067    1.9225 H   0  0  0  0  0  0  0  0  0  0  0  0
    1.1575   -0.1340    1.6576 H   0  0  0  0  0  0  0  0  0  0  0  0
   -0.6076    0.1375    2.8047 C   0  0  0  0  0  0  0  0  0  0  0  0
   -0.6419    1.4920    3.0580 N   0  0  0  0  0  0  0  0  0  0  0  0
   -0.1064    2.2005    2.5791 H   0  0  0  0  0  0  0  0  0  0  0  0
   -1.5109    1.7054    4.0603 C   0  0  0  0  0  0  0  0  0  0  0  0
   -1.7485    2.6719    4.4877 H   0  0  0  0  0  0  0  0  0  0  0  0
   -2.0521    0.5456    4.4606 N   0  0  0  0  0  0  0  0  0  0  0  0
   -1.4829   -0.4585    3.6731 C   0  0  0  0  0  0  0  0  0  0  0  0
   -1.7179   -1.5141    3.7154 H   0  0  0  0  0  0  0  0  0  0  0  0
    0.3719   -0.9239   -0.8245 C   0  0  0  0  0  0  0  0  0  0  0  0
    1.2080   -0.2007   -1.3655 O   0  0  0  0  0  0  0  0  0  0  0  0
    0.1754   -2.1954   -1.1949 N   0  0  0  0  0  0  0  0  0  0  0  0
   -0.5664   -2.7068   -0.7398 H   0  0  0  0  0  0  0  0  0  0  0  0
    0.9284   -2.8745   -2.2461 C   0  0  0  0  0  0  0  0  0  0  0  0
    1.9910   -2.8825   -1.9930 H   0  0  0  0  0  0  0  0  0  0  0  0
    0.5778   -3.9012   -2.3548 H   0  0  0  0  0  0  0  0  0  0  0  0
    0.8004   -2.3480   -3.1932 H   0  0  0  0  0  0  0  0  0  0  0  0
  5  6  2  0  0  0  0
  5  7  1  0  0  0  0
  2  3  1  0  0  0  0
  2  4  1  0  0  0  0
  2  5  1  0  0  0  0
  1  2  1  0  0  0  0
 22 23  2  0  0  0  0
 22 24  1  0  0  0  0
 20 21  1  0  0  0  0
 19 20  1  0  0  0  0
 17 18  1  0  0  0  0
 17 19  2  0  0  0  0
 15 16  1  0  0  0  0
 15 17  1  0  0  0  0
 14 15  1  0  0  0  0
 14 20  2  0  0  0  0
 11 12  1  0  0  0  0
 11 13  1  0  0  0  0
 11 14  1  0  0  0  0
  9 10  1  0  0  0  0
  9 11  1  0  0  0  0
  9 22  1  0  0  0  0
  7  8  1  0  0  0  0
  7  9  1  0  0  0  0
 26 27  1  0  0  0  0
 26 28  1  0  0  0  0
 26 29  1  0  0  0  0
 24 25  1  0  0  0  0
 24 26  1  0  0  0  0
M  END
$$$$
default_name
  -OEChem-01062215323D

 29 29  0     1  0  0  0  0  0999 V2000
   -3.6042   -3.5728    1.4576 H   0  0  0  0  0  0  0  0  0  0  0  0
   -3.5202   -2.6488    0.8866 C   0  0  0  0  0  0  0  0  0  0  0  0
   -4.2052   -1.9048    1.2896 H   0  0  0  0  0  0  0  0  0  0  0  0
   -3.7552   -2.8428   -0.1584 H   0  0  0  0  0  0  0  0  0  0  0  0
   -2.1052   -2.1358    0.9946 C   0  0  0  0  0  0  0  0  0  0  0  0
   -1.2852   -2.7288    1.6826 O   0  0  0  0  0  0  0  0  0  0  0  0
   -1.8202   -1.0288    0.3146 N   0  0  0  0  0  0  0  0  0  0  0  0
   -2.5542   -0.5788   -0.2104 H   0  0  0  0  0  0  0  0  0  0  0  0
   -0.5102   -0.3728    0.3086 C   0  0  1  0  0  0  0  0  0  0  0  0
   -0.6543    0.6939    0.1305 H   0  0  0  0  0  0  0  0  0  0  0  0
    0.1459   -0.5427    1.6912 C   0  0  0  0  0  0  0  0  0  0  0  0
    0.2215   -1.6067    1.9225 H   0  0  0  0  0  0  0  0  0  0  0  0
    1.1575   -0.1340    1.6576 H   0  0  0  0  0  0  0  0  0  0  0  0
   -0.6076    0.1375    2.8047 C   0  0  0  0  0  0  0  0  0  0  0  0
   -0.6419    1.4920    3.0580 N   0  0  0  0  0  0  0  0  0  0  0  0
   -0.1064    2.2005    2.5791 H   0  0  0  0  0  0  0  0  0  0  0  0
   -1.5109    1.7054    4.0603 C   0  0  0  0  0  0  0  0  0  0  0  0
   -1.7485    2.6719    4.4877 H   0  0  0  0  0  0  0  0  0  0  0  0
   -2.0521    0.5456    4.4606 N   0  0  0  0  0  0  0  0  0  0  0  0
   -1.4829   -0.4585    3.6731 C   0  0  0  0  0  0  0  0  0  0  0  0
   -1.7179   -1.5141    3.7154 H   0  0  0  0  0  0  0  0  0  0  0  0
    0.3719   -0.9239   -0.8245 C   0  0  0  0  0  0  0  0  0  0  0  0
    1.3797   -0.3120   -1.1777 O   0  0  0  0  0  0  0  0  0  0  0  0
   -0.0139   -2.0671   -1.4047 N   0  0  0  0  0  0  0  0  0  0  0  0
   -0.8815   -2.4802   -1.0954 H   0  0  0  0  0  0  0  0  0  0  0  0
    0.7097   -2.7283   -2.4875 C   0  0  0  0  0  0  0  0  0  0  0  0
    1.7194   -2.9814   -2.1563 H   0  0  0  0  0  0  0  0  0  0  0  0
    0.1902   -3.6401   -2.7836 H   0  0  0  0  0  0  0  0  0  0  0  0
    0.7828   -2.0601   -3.3469 H   0  0  0  0  0  0  0  0  0  0  0  0
  5  6  2  0  0  0  0
  5  7  1  0  0  0  0
  2  3  1  0  0  0  0
  2  4  1  0  0  0  0
  2  5  1  0  0  0  0
  1  2  1  0  0  0  0
 22 23  2  0  0  0  0
 22 24  1  0  0  0  0
 20 21  1  0  0  0  0
 19 20  1  0  0  0  0
 17 18  1  0  0  0  0
 17 19  2  0  0  0  0
 15 16  1  0  0  0  0
 15 17  1  0  0  0  0
 14 15  1  0  0  0  0
 14 20  2  0  0  0  0
 11 12  1  0  0  0  0
 11 13  1  0  0  0  0
 11 14  1  0  0  0  0
  9 10  1  0  0  0  0
  9 11  1  0  0  0  0
  9 22  1  0  0  0  0
  7  8  1  0  0  0  0
  7  9  1  0  0  0  0
 26 27  1  0  0  0  0
 26 28  1  0  0  0  0
 26 29  1  0  0  0  0
 24 25  1  0  0  0  0
 24 26  1  0  0  0  0
M  END
$$$$
default_name
  -OEChem-01062215323D

 29 29  0     1  0  0  0  0  0999 V2000
   -3.6042   -3.5728    1.4576 H   0  0  0  0  0  0  0  0  0  0  0  0
   -3.5202   -2.6488    0.8866 C   0  0  0  0  0  0  0  0  0  0  0  0
   -4.2052   -1.9048    1.2896 H   0  0  0  0  0  0  0  0  0  0  0  0
   -3.7552   -2.8428   -0.1584 H   0  0  0  0  0  0  0  0  0  0  0  0
   -2.1052   -2.1358    0.9946 C   0  0  0  0  0  0  0  0  0  0  0  0
   -1.2852   -2.7288    1.6826 O   0  0  0  0  0  0  0  0  0  0  0  0
   -1.8202   -1.0288    0.3146 N   0  0  0  0  0  0  0  0  0  0  0  0
   -2.5542   -0.5788   -0.2104 H   0  0  0  0  0  0  0  0  0  0  0  0
   -0.5102   -0.3728    0.3086 C   0  0  1  0  0  0  0  0  0  0  0  0
   -0.6543    0.6939    0.1305 H   0  0  0  0  0  0  0  0  0  0  0  0
    0.1459   -0.5427    1.6912 C   0  0  0  0  0  0  0  0  0  0  0  0
    0.2215   -1.6067    1.9225 H   0  0  0  0  0  0  0  0  0  0  0  0
    1.1575   -0.1340    1.6576 H   0  0  0  0  0  0  0  0  0  0  0  0
   -0.6076    0.1375    2.8047 C   0  0  0  0  0  0  0  0  0  0  0  0
   -0.6419    1.4920    3.0580 N   0  0  0  0  0  0  0  0  0  0  0  0
   -0.1064    2.2005    2.5791 H   0  0  0  0  0  0  0  0  0  0  0  0
   -1.5109    1.7054    4.0603 C   0  0  0  0  0  0  0  0  0  0  0  0
   -1.7485    2.6719    4.4877 H   0  0  0  0  0  0  0  0  0  0  0  0
   -2.0521    0.5456    4.4606 N   0  0  0  0  0  0  0  0  0  0  0  0
   -1.4829   -0.4585    3.6731 C   0  0  0  0  0  0  0  0  0  0  0  0
   -1.7179   -1.5141    3.7154 H   0  0  0  0  0  0  0  0  0  0  0  0
    0.3719   -0.9239   -0.8245 C   0  0  0  0  0  0  0  0  0  0  0  0
    1.5069   -0.4801   -0.9969 O   0  0  0  0  0  0  0  0  0  0  0  0
   -0.1529   -1.8760   -1.6059 N   0  0  0  0  0  0  0  0  0  0  0  0
   -1.1096   -2.1485   -1.4344 H   0  0  0  0  0  0  0  0  0  0  0  0
    0.5488   -2.5096   -2.7191 C   0  0  0  0  0  0  0  0  0  0  0  0
    1.4534   -3.0010   -2.3539 H   0  0  0  0  0  0  0  0  0  0  0  0
   -0.0946   -3.2503   -3.1949 H   0  0  0  0  0  0  0  0  0  0  0  0
    0.8350   -1.7558   -3.4543 H   0  0  0  0  0  0  0  0  0  0  0  0
  5  6  2  0  0  0  0
  5  7  1  0  0  0  0
  2  3  1  0  0  0  0
  2  4  1  0  0  0  0
  2  5  1  0  0  0  0
  1  2  1  0  0  0  0
 22 23  2  0  0  0  0
 22 24  1  0  0  0  0
 20 21  1  0  0  0  0
 19 20  1  0  0  0  0
 17 18  1  0  0  0  0
 17 19  2  0  0  0  0
 15 16  1  0  0  0  0
 15 17  1  0  0  0  0
 14 15  1  0  0  0  0
 14 20  2  0  0  0  0
 11 12  1  0  0  0  0
 11 13  1  0  0  0  0
 11 14  1  0  0  0  0
  9 10  1  0  0  0  0
  9 11  1  0  0  0  0
  9 22  1  0  0  0  0
  7  8  1  0  0  0  0
  7  9  1  0  0  0  0
 26 27  1  0  0  0  0
 26 28  1  0  0  0  0
 26 29  1  0  0  0  0
 24 25  1  0  0  0  0
 24 26  1  0  0  0  0
M  END
$$$$
default_name
  -OEChem-01062215323D

 29 29  0     1  0  0  0  0  0999 V2000
   -3.6042   -3.5728    1.4576 H   0  0  0  0  0  0  0  0  0  0  0  0
   -3.5202   -2.6488    0.8866 C   0  0  0  0  0  0  0  0  0  0  0  0
   -4.2052   -1.9048    1.2896 H   0  0  0  0  0  0  0  0  0  0  0  0
   -3.7552   -2.8428   -0.1584 H   0  0  0  0  0  0  0  0  0  0  0  0
   -2.1052   -2.1358    0.9946 C   0  0  0  0  0  0  0  0  0  0  0  0
   -1.2852   -2.7288    1.6826 O   0  0  0  0  0  0  0  0  0  0  0  0
   -1.8202   -1.0288    0.3146 N   0  0  0  0  0  0  0  0  0  0  0  0
   -2.5542   -0.5788   -0.2104 H   0  0  0  0  0  0  0  0  0  0  0  0
   -0.5102   -0.3728    0.3086 C   0  0  1  0  0  0  0  0  0  0  0  0
   -0.6543    0.6939    0.1305 H   0  0  0  0  0  0  0  0  0  0  0  0
    0.1459   -0.5427    1.6912 C   0  0  0  0  0  0  0  0  0  0  0  0
    0.2215   -1.6067    1.9225 H   0  0  0  0  0  0  0  0  0  0  0  0
    1.1575   -0.1340    1.6576 H   0  0  0  0  0  0  0  0  0  0  0  0
   -0.6076    0.1375    2.8047 C   0  0  0  0  0  0  0  0  0  0  0  0
   -0.6419    1.4920    3.0580 N   0  0  0  0  0  0  0  0  0  0  0  0
   -0.1064    2.2005    2.5791 H   0  0  0  0  0  0  0  0  0  0  0  0
   -1.5109    1.7054    4.0603 C   0  0  0  0  0  0  0  0  0  0  0  0
   -1.7485    2.6719    4.4877 H   0  0  0  0  0  0  0  0  0  0  0  0
   -2.0521    0.5456    4.4606 N   0  0  0  0  0  0  0  0  0  0  0  0
   -1.4829   -0.4585    3.6731 C   0  0  0  0  0  0  0  0  0  0  0  0
   -1.7179   -1.5141    3.7154 H   0  0  0  0  0  0  0  0  0  0  0  0
    0.3719   -0.9239   -0.8245 C   0  0  0  0  0  0  0  0  0  0  0  0
    1.5809   -0.6936   -0.8354 O   0  0  0  0  0  0  0  0  0  0  0  0
   -0.2320   -1.6350   -1.7847 N   0  0  0  0  0  0  0  0  0  0  0  0
   -1.2353   -1.7342   -1.7337 H   0  0  0  0  0  0  0  0  0  0  0  0
    0.4565   -2.2332   -2.9254 C   0  0  0  0  0  0  0  0  0  0  0  0
    1.2111   -2.9398   -2.5724 H   0  0  0  0  0  0  0  0  0  0  0  0
   -0.2572   -2.7584   -3.5608 H   0  0  0  0  0  0  0  0  0  0  0  0
    0.9534   -1.4559   -3.5080 H   0  0  0  0  0  0  0  0  0  0  0  0
  5  6  2  0  0  0  0
  5  7  1  0  0  0  0
  2  3  1  0  0  0  0
  2  4  1  0  0  0  0
  2  5  1  0  0  0  0
  1  2  1  0  0  0  0
 22 23  2  0  0  0  0
 22 24  1  0  0  0  0
 20 21  1  0  0  0  0
 19 20  1  0  0  0  0
 17 18  1  0  0  0  0
 17 19  2  0  0  0  0
 15 16  1  0  0  0  0
 15 17  1  0  0  0  0
 14 15  1  0  0  0  0
 14 20  2  0  0  0  0
 11 12  1  0  0  0  0
 11 13  1  0  0  0  0
 11 14  1  0  0  0  0
  9 10  1  0  0  0  0
  9 11  1  0  0  0  0
  9 22  1  0  0  0  0
  7  8  1  0  0  0  0
  7  9  1  0  0  0  0
 26 27  1  0  0  0  0
 26 28  1  0  0  0  0
 26 29  1  0  0  0  0
 24 25  1  0  0  0  0
 24 26  1  0  0  0  0
M  END
$$$$
default_name
  -OEChem-01062215323D

 29 29  0     1  0  0  0  0  0999 V2000
   -3.6042   -3.5728    1.4576 H   0  0  0  0  0  0  0  0  0  0  0  0
   -3.5202   -2.6488    0.8866 C   0  0  0  0  0  0  0  0  0  0  0  0
   -4.2052   -1.9048    1.2896 H   0  0  0  0  0  0  0  0  0  0  0  0
   -3.7552   -2.8428   -0.1584 H   0  0  0  0  0  0  0  0  0  0  0  0
   -2.1052   -2.1358    0.9946 C   0  0  0  0  0  0  0  0  0  0  0  0
   -1.2852   -2.7288    1.6826 O   0  0  0  0  0  0  0  0  0  0  0  0
   -1.8202   -1.0288    0.3146 N   0  0  0  0  0  0  0  0  0  0  0  0
   -2.5542   -0.5788   -0.2104 H   0  0  0  0  0  0  0  0  0  0  0  0
   -0.5102   -0.3728    0.3086 C   0  0  1  0  0  0  0  0  0  0  0  0
   -0.6543    0.6939    0.1305 H   0  0  0  0  0  0  0  0  0  0  0  0
    0.1459   -0.5427    1.6912 C   0  0  0  0  0  0  0  0  0  0  0  0
    0.2215   -1.6067    1.9225 H   0  0  0  0  0  0  0  0  0  0  0  0
    1.1575   -0.1340    1.6576 H   0  0  0  0  0  0  0  0  0  0  0  0
   -0.6076    0.1375    2.8047 C   0  0  0  0  0  0  0  0  0  0  0  0
   -0.6419    1.4920    3.0580 N   0  0  0  0  0  0  0  0  0  0  0  0
   -0.1064    2.2005    2.5791 H   0  0  0  0  0  0  0  0  0  0  0  0
   -1.5109    1.7054    4.0603 C   0  0  0  0  0  0  0  0  0  0  0  0
   -1.7485    2.6719    4.4877 H   0  0  0  0  0  0  0  0  0  0  0  0
   -2.0521    0.5456    4.4606 N   0  0  0  0  0  0  0  0  0  0  0  0
   -1.4829   -0.4585    3.6731 C   0  0  0  0  0  0  0  0  0  0  0  0
   -1.7179   -1.5141    3.7154 H   0  0  0  0  0  0  0  0  0  0  0  0
    0.3719   -0.9239   -0.8245 C   0  0  0  0  0  0  0  0  0  0  0  0
    1.5967   -0.9379   -0.7043 O   0  0  0  0  0  0  0  0  0  0  0  0
   -0.2460   -1.3606   -1.9290 N   0  0  0  0  0  0  0  0  0  0  0  0
   -1.2500   -1.2657   -1.9730 H   0  0  0  0  0  0  0  0  0  0  0  0
    0.4392   -1.9181   -3.0922 C   0  0  0  0  0  0  0  0  0  0  0  0
    1.0089   -2.8020   -2.7968 H   0  0  0  0  0  0  0  0  0  0  0  0
   -0.2866   -2.1980   -3.8563 H   0  0  0  0  0  0  0  0  0  0  0  0
    1.1299   -1.1808   -3.5044 H   0  0  0  0  0  0  0  0  0  0  0  0
  5  6  2  0  0  0  0
  5  7  1  0  0  0  0
  2  3  1  0  0  0  0
  2  4  1  0  0  0  0
  2  5  1  0  0  0  0
  1  2  1  0  0  0  0
 22 23  2  0  0  0  0
 22 24  1  0  0  0  0
 20 21  1  0  0  0  0
 19 20  1  0  0  0  0
 17 18  1  0  0  0  0
 17 19  2  0  0  0  0
 15 16  1  0  0  0  0
 15 17  1  0  0  0  0
 14 15  1  0  0  0  0
 14 20  2  0  0  0  0
 11 12  1  0  0  0  0
 11 13  1  0  0  0  0
 11 14  1  0  0  0  0
  9 10  1  0  0  0  0
  9 11  1  0  0  0  0
  9 22  1  0  0  0  0
  7  8  1  0  0  0  0
  7  9  1  0  0  0  0
 26 27  1  0  0  0  0
 26 28  1  0  0  0  0
 26 29  1  0  0  0  0
 24 25  1  0  0  0  0
 24 26  1  0  0  0  0
M  END
$$$$
default_name
  -OEChem-01062215323D

 29 29  0     1  0  0  0  0  0999 V2000
   -3.6042   -3.5728    1.4576 H   0  0  0  0  0  0  0  0  0  0  0  0
   -3.5202   -2.6488    0.8866 C   0  0  0  0  0  0  0  0  0  0  0  0
   -4.2052   -1.9048    1.2896 H   0  0  0  0  0  0  0  0  0  0  0  0
   -3.7552   -2.8428   -0.1584 H   0  0  0  0  0  0  0  0  0  0  0  0
   -2.1052   -2.1358    0.9946 C   0  0  0  0  0  0  0  0  0  0  0  0
   -1.2852   -2.7288    1.6826 O   0  0  0  0  0  0  0  0  0  0  0  0
   -1.8202   -1.0288    0.3146 N   0  0  0  0  0  0  0  0  0  0  0  0
   -2.5542   -0.5788   -0.2104 H   0  0  0  0  0  0  0  0  0  0  0  0
   -0.5102   -0.3728    0.3086 C   0  0  1  0  0  0  0  0  0  0  0  0
   -0.6543    0.6939    0.1305 H   0  0  0  0  0  0  0  0  0  0  0  0
    0.1459   -0.5427    1.6912 C   0  0  0  0  0  0  0  0  0  0  0  0
    0.2215   -1.6067    1.9225 H   0  0  0  0  0  0  0  0  0  0  0  0
    1.1575   -0.1340    1.6576 H   0  0  0  0  0  0  0  0  0  0  0  0
   -0.6076    0.1375    2.8047 C   0  0  0  0  0  0  0  0  0  0  0  0
   -0.6419    1.4920    3.0580 N   0  0  0  0  0  0  0  0  0  0  0  0
   -0.1064    2.2005    2.5791 H   0  0  0  0  0  0  0  0  0  0  0  0
   -1.5109    1.7054    4.0603 C   0  0  0  0  0  0  0  0  0  0  0  0
   -1.7485    2.6719    4.4877 H   0  0  0  0  0  0  0  0  0  0  0  0
   -2.0521    0.5456    4.4606 N   0  0  0  0  0  0  0  0  0  0  0  0
   -1.4829   -0.4585    3.6731 C   0  0  0  0  0  0  0  0  0  0  0  0
   -1.7179   -1.5141    3.7154 H   0  0  0  0  0  0  0  0  0  0  0  0
    0.3719   -0.9239   -0.8245 C   0  0  0  0  0  0  0  0  0  0  0  0
    1.5533   -1.1963   -0.6124 O   0  0  0  0  0  0  0  0  0  0  0  0
   -0.1937   -1.0715   -2.0290 N   0  0  0  0  0  0  0  0  0  0  0  0
   -1.1526   -0.7748   -2.1360 H   0  0  0  0  0  0  0  0  0  0  0  0
    0.4980   -1.5856   -3.2081 C   0  0  0  0  0  0  0  0  0  0  0  0
    0.8608   -2.5971   -3.0118 H   0  0  0  0  0  0  0  0  0  0  0  0
   -0.1807   -1.6072   -4.0612 H   0  0  0  0  0  0  0  0  0  0  0  0
    1.3525   -0.9493   -3.4437 H   0  0  0  0  0  0  0  0  0  0  0  0
  5  6  2  0  0  0  0
  5  7  1  0  0  0  0
  2  3  1  0  0  0  0
  2  4  1  0  0  0  0
  2  5  1  0  0  0  0
  1  2  1  0  0  0  0
 22 23  2  0  0  0  0
 22 24  1  0  0  0  0
 20 21  1  0  0  0  0
 19 20  1  0  0  0  0
 17 18  1  0  0  0  0
 17 19  2  0  0  0  0
 15 16  1  0  0  0  0
 15 17  1  0  0  0  0
 14 15  1  0  0  0  0
 14 20  2  0  0  0  0
 11 12  1  0  0  0  0
 11 13  1  0  0  0  0
 11 14  1  0  0  0  0
  9 10  1  0  0  0  0
  9 11  1  0  0  0  0
  9 22  1  0  0  0  0
  7  8  1  0  0  0  0
  7  9  1  0  0  0  0
 26 27  1  0  0  0  0
 26 28  1  0  0  0  0
 26 29  1  0  0  0  0
 24 25  1  0  0  0  0
 24 26  1  0  0  0  0
M  END
$$$$
default_name
  -OEChem-01062215323D

 29 29  0     1  0  0  0  0  0999 V2000
   -3.6042   -3.5728    1.4576 H   0  0  0  0  0  0  0  0  0  0  0  0
   -3.5202   -2.6488    0.8866 C   0  0  0  0  0  0  0  0  0  0  0  0
   -4.2052   -1.9048    1.2896 H   0  0  0  0  0  0  0  0  0  0  0  0
   -3.7552   -2.8428   -0.1584 H   0  0  0  0  0  0  0  0  0  0  0  0
   -2.1052   -2.1358    0.9946 C   0  0  0  0  0  0  0  0  0  0  0  0
   -1.2852   -2.7288    1.6826 O   0  0  0  0  0  0  0  0  0  0  0  0
   -1.8202   -1.0288    0.3146 N   0  0  0  0  0  0  0  0  0  0  0  0
   -2.5542   -0.5788   -0.2104 H   0  0  0  0  0  0  0  0  0  0  0  0
   -0.5102   -0.3728    0.3086 C   0  0  1  0  0  0  0  0  0  0  0  0
   -0.6543    0.6939    0.1305 H   0  0  0  0  0  0  0  0  0  0  0  0
    0.1459   -0.5427    1.6912 C   0  0  0  0  0  0  0  0  0  0  0  0
    0.2215   -1.6067    1.9225 H   0  0  0  0  0  0  0  0  0  0  0  0
    1.1575   -0.1340    1.6576 H   0  0  0  0  0  0  0  0  0  0  0  0
   -0.6076    0.1375    2.8047 C   0  0  0  0  0  0  0  0  0  0  0  0
   -0.6419    1.4920    3.0580 N   0  0  0  0  0  0  0  0  0  0  0  0
   -0.1064    2.2005    2.5791 H   0  0  0  0  0  0  0  0  0  0  0  0
   -1.5109    1.7054    4.0603 C   0  0  0  0  0  0  0  0  0  0  0  0
   -1.7485    2.6719    4.4877 H   0  0  0  0  0  0  0  0  0  0  0  0
   -2.0521    0.5456    4.4606 N   0  0  0  0  0  0  0  0  0  0  0  0
   -1.4829   -0.4585    3.6731 C   0  0  0  0  0  0  0  0  0  0  0  0
   -1.7179   -1.5141    3.7154 H   0  0  0  0  0  0  0  0  0  0  0  0
    0.3719   -0.9239   -0.8245 C   0  0  0  0  0  0  0  0  0  0  0  0
    1.4535   -1.4513   -0.5660 O   0  0  0  0  0  0  0  0  0  0  0  0
   -0.0788   -0.7874   -2.0777 N   0  0  0  0  0  0  0  0  0  0  0  0
   -0.9498   -0.2950   -2.2115 H   0  0  0  0  0  0  0  0  0  0  0  0
    0.6290   -1.2585   -3.2652 C   0  0  0  0  0  0  0  0  0  0  0  0
    0.7766   -2.3390   -3.2028 H   0  0  0  0  0  0  0  0  0  0  0  0
    0.0532   -1.0264   -4.1616 H   0  0  0  0  0  0  0  0  0  0  0  0
    1.6060   -0.7771   -3.3301 H   0  0  0  0  0  0  0  0  0  0  0  0
  5  6  2  0  0  0  0
  5  7  1  0  0  0  0
  2  3  1  0  0  0  0
  2  4  1  0  0  0  0
  2  5  1  0  0  0  0
  1  2  1  0  0  0  0
 22 23  2  0  0  0  0
 22 24  1  0  0  0  0
 20 21  1  0  0  0  0
 19 20  1  0  0  0  0
 17 18  1  0  0  0  0
 17 19  2  0  0  0  0
 15 16  1  0  0  0  0
 15 17  1  0  0  0  0
 14 15  1  0  0  0  0
 14 20  2  0  0  0  0
 11 12  1  0  0  0  0
 11 13  1  0  0  0  0
 11 14  1  0  0  0  0
  9 10  1  0  0  0  0
  9 11  1  0  0  0  0
  9 22  1  0  0  0  0
  7  8  1  0  0  0  0
  7  9  1  0  0  0  0
 26 27  1  0  0  0  0
 26 28  1  0  0  0  0
 26 29  1  0  0  0  0
 24 25  1  0  0  0  0
 24 26  1  0  0  0  0
M  END
$$$$
default_name
  -OEChem-01062215323D

 29 29  0     1  0  0  0  0  0999 V2000
   -3.6042   -3.5728    1.4576 H   0  0  0  0  0  0  0  0  0  0  0  0
   -3.5202   -2.6488    0.8866 C   0  0  0  0  0  0  0  0  0  0  0  0
   -4.2052   -1.9048    1.2896 H   0  0  0  0  0  0  0  0  0  0  0  0
   -3.7552   -2.8428   -0.1584 H   0  0  0  0  0  0  0  0  0  0  0  0
   -2.1052   -2.1358    0.9946 C   0  0  0  0  0  0  0  0  0  0  0  0
   -1.2852   -2.7288    1.6826 O   0  0  0  0  0  0  0  0  0  0  0  0
   -1.8202   -1.0288    0.3146 N   0  0  0  0  0  0  0  0  0  0  0  0
   -2.5542   -0.5788   -0.2104 H   0  0  0  0  0  0  0  0  0  0  0  0
   -0.5102   -0.3728    0.3086 C   0  0  1  0  0  0  0  0  0  0  0  0
   -0.6543    0.6939    0.1305 H   0  0  0  0  0  0  0  0  0  0  0  0
    0.1459   -0.5427    1.6912 C   0  0  0  0  0  0  0  0  0  0  0  0
    0.2215   -1.6067    1.9225 H   0  0  0  0  0  0  0  0  0  0  0  0
    1.1575   -0.1340    1.6576 H   0  0  0  0  0  0  0  0  0  0  0  0
   -0.6076    0.1375    2.8047 C   0  0  0  0  0  0  0  0  0  0  0  0
   -0.6419    1.4920    3.0580 N   0  0  0  0  0  0  0  0  0  0  0  0
   -0.1064    2.2005    2.5791 H   0  0  0  0  0  0  0  0  0  0  0  0
   -1.5109    1.7054    4.0603 C   0  0  0  0  0  0  0  0  0  0  0  0
   -1.7485    2.6719    4.4877 H   0  0  0  0  0  0  0  0  0  0  0  0
   -2.0521    0.5456    4.4606 N   0  0  0  0  0  0  0  0  0  0  0  0
   -1.4829   -0.4585    3.6731 C   0  0  0  0  0  0  0  0  0  0  0  0
   -1.7179   -1.5141    3.7154 H   0  0  0  0  0  0  0  0  0  0  0  0
    0.3719   -0.9239   -0.8245 C   0  0  0  0  0  0  0  0  0  0  0  0
    1.3042   -1.6855   -0.5684 O   0  0  0  0  0  0  0  0  0  0  0  0
    0.0908   -0.5275   -2.0720 N   0  0  0  0  0  0  0  0  0  0  0  0
   -0.6555    0.1411   -2.1944 H   0  0  0  0  0  0  0  0  0  0  0  0
    0.8232   -0.9591   -3.2597 C   0  0  0  0  0  0  0  0  0  0  0  0
    0.7623   -2.0453   -3.3569 H   0  0  0  0  0  0  0  0  0  0  0  0
    0.3992   -0.4950   -4.1507 H   0  0  0  0  0  0  0  0  0  0  0  0
    1.8732   -0.6760   -3.1712 H   0  0  0  0  0  0  0  0  0  0  0  0
  5  6  2  0  0  0  0
  5  7  1  0  0  0  0
  2  3  1  0  0  0  0
  2  4  1  0  0  0  0
  2  5  1  0  0  0  0
  1  2  1  0  0  0  0
 22 23  2  0  0  0  0
 22 24  1  0  0  0  0
 20 21  1  0  0  0  0
 19 20  1  0  0  0  0
 17 18  1  0  0  0  0
 17 19  2  0  0  0  0
 15 16  1  0  0  0  0
 15 17  1  0  0  0  0
 14 15  1  0  0  0  0
 14 20  2  0  0  0  0
 11 12  1  0  0  0  0
 11 13  1  0  0  0  0
 11 14  1  0  0  0  0
  9 10  1  0  0  0  0
  9 11  1  0  0  0  0
  9 22  1  0  0  0  0
  7  8  1  0  0  0  0
  7  9  1  0  0  0  0
 26 27  1  0  0  0  0
 26 28  1  0  0  0  0
 26 29  1  0  0  0  0
 24 25  1  0  0  0  0
 24 26  1  0  0  0  0
M  END
$$$$
default_name
  -OEChem-01062215323D

 29 29  0     1  0  0  0  0  0999 V2000
   -3.6042   -3.5728    1.4576 H   0  0  0  0  0  0  0  0  0  0  0  0
   -3.5202   -2.6488    0.8866 C   0  0  0  0  0  0  0  0  0  0  0  0
   -4.2052   -1.9048    1.2896 H   0  0  0  0  0  0  0  0  0  0  0  0
   -3.7552   -2.8428   -0.1584 H   0  0  0  0  0  0  0  0  0  0  0  0
   -2.1052   -2.1358    0.9946 C   0  0  0  0  0  0  0  0  0  0  0  0
   -1.2852   -2.7288    1.6826 O   0  0  0  0  0  0  0  0  0  0  0  0
   -1.8202   -1.0288    0.3146 N   0  0  0  0  0  0  0  0  0  0  0  0
   -2.5542   -0.5788   -0.2104 H   0  0  0  0  0  0  0  0  0  0  0  0
   -0.5102   -0.3728    0.3086 C   0  0  1  0  0  0  0  0  0  0  0  0
   -0.6543    0.6939    0.1305 H   0  0  0  0  0  0  0  0  0  0  0  0
    0.1459   -0.5427    1.6912 C   0  0  0  0  0  0  0  0  0  0  0  0
    0.2215   -1.6067    1.9225 H   0  0  0  0  0  0  0  0  0  0  0  0
    1.1575   -0.1340    1.6576 H   0  0  0  0  0  0  0  0  0  0  0  0
   -0.6076    0.1375    2.8047 C   0  0  0  0  0  0  0  0  0  0  0  0
   -0.6419    1.4920    3.0580 N   0  0  0  0  0  0  0  0  0  0  0  0
   -0.1064    2.2005    2.5791 H   0  0  0  0  0  0  0  0  0  0  0  0
   -1.5109    1.7054    4.0603 C   0  0  0  0  0  0  0  0  0  0  0  0
   -1.7485    2.6719    4.4877 H   0  0  0  0  0  0  0  0  0  0  0  0
   -2.0521    0.5456    4.4606 N   0  0  0  0  0  0  0  0  0  0  0  0
   -1.4829   -0.4585    3.6731 C   0  0  0  0  0  0  0  0  0  0  0  0
   -1.7179   -1.5141    3.7154 H   0  0  0  0  0  0  0  0  0  0  0  0
    0.3719   -0.9239   -0.8245 C   0  0  0  0  0  0  0  0  0  0  0  0
    1.1156   -1.8829   -0.6192 O   0  0  0  0  0  0  0  0  0  0  0  0
    0.3037   -0.3098   -2.0122 N   0  0  0  0  0  0  0  0  0  0  0  0
   -0.2896    0.5035   -2.0859 H   0  0  0  0  0  0  0  0  0  0  0  0
    1.0673   -0.7076   -3.1920 C   0  0  0  0  0  0  0  0  0  0  0  0
    0.8187   -1.7361   -3.4634 H   0  0  0  0  0  0  0  0  0  0  0  0
    0.8337   -0.0493   -4.0292 H   0  0  0  0  0  0  0  0  0  0  0  0
    2.1358   -0.6529   -2.9780 H   0  0  0  0  0  0  0  0  0  0  0  0
  5  6  2  0  0  0  0
  5  7  1  0  0  0  0
  2  3  1  0  0  0  0
  2  4  1  0  0  0  0
  2  5  1  0  0  0  0
  1  2  1  0  0  0  0
 22 23  2  0  0  0  0
 22 24  1  0  0  0  0
 20 21  1  0  0  0  0
 19 20  1  0  0  0  0
 17 18  1  0  0  0  0
 17 19  2  0  0  0  0
 15 16  1  0  0  0  0
 15 17  1  0  0  0  0
 14 15  1  0  0  0  0
 14 20  2  0  0  0  0
 11 12  1  0  0  0  0
 11 13  1  0  0  0  0
 11 14  1  0  0  0  0
  9 10  1  0  0  0  0
  9 11  1  0  0  0  0
  9 22  1  0  0  0  0
  7  8  1  0  0  0  0
  7  9  1  0  0  0  0
 26 27  1  0  0  0  0
 26 28  1  0  0  0  0
 26 29  1  0  0  0  0
 24 25  1  0  0  0  0
 24 26  1  0  0  0  0
M  END
$$$$
default_name
  -OEChem-01062215323D

 29 29  0     1  0  0  0  0  0999 V2000
   -3.6042   -3.5728    1.4576 H   0  0  0  0  0  0  0  0  0  0  0  0
   -3.5202   -2.6488    0.8866 C   0  0  0  0  0  0  0  0  0  0  0  0
   -4.2052   -1.9048    1.2896 H   0  0  0  0  0  0  0  0  0  0  0  0
   -3.7552   -2.8428   -0.1584 H   0  0  0  0  0  0  0  0  0  0  0  0
   -2.1052   -2.1358    0.9946 C   0  0  0  0  0  0  0  0  0  0  0  0
   -1.2852   -2.7288    1.6826 O   0  0  0  0  0  0  0  0  0  0  0  0
   -1.8202   -1.0288    0.3146 N   0  0  0  0  0  0  0  0  0  0  0  0
   -2.5542   -0.5788   -0.2104 H   0  0  0  0  0  0  0  0  0  0  0  0
   -0.5102   -0.3728    0.3086 C   0  0  1  0  0  0  0  0  0  0  0  0
   -0.6543    0.6939    0.1305 H   0  0  0  0  0  0  0  0  0  0  0  0
    0.1459   -0.5427    1.6912 C   0  0  0  0  0  0  0  0  0  0  0  0
    0.2215   -1.6067    1.9225 H   0  0  0  0  0  0  0  0  0  0  0  0
    1.1575   -0.1340    1.6576 H   0  0  0  0  0  0  0  0  0  0  0  0
   -0.6076    0.1375    2.8047 C   0  0  0  0  0  0  0  0  0  0  0  0
   -0.6419    1.4920    3.0580 N   0  0  0  0  0  0  0  0  0  0  0  0
   -0.1064    2.2005    2.5791 H   0  0  0  0  0  0  0  0  0  0  0  0
   -1.5109    1.7054    4.0603 C   0  0  0  0  0  0  0  0  0  0  0  0
   -1.7485    2.6719    4.4877 H   0  0  0  0  0  0  0  0  0  0  0  0
   -2.0521    0.5456    4.4606 N   0  0  0  0  0  0  0  0  0  0  0  0
   -1.4829   -0.4585    3.6731 C   0  0  0  0  0  0  0  0  0  0  0  0
   -1.7179   -1.5141    3.7154 H   0  0  0  0  0  0  0  0  0  0  0  0
    0.3719   -0.9239   -0.8245 C   0  0  0  0  0  0  0  0  0  0  0  0
    0.9005   -2.0300   -0.7151 O   0  0  0  0  0  0  0  0  0  0  0  0
    0.5453   -0.1489   -1.9024 N   0  0  0  0  0  0  0  0  0  0  0  0
    0.1228    0.7678   -1.8934 H   0  0  0  0  0  0  0  0  0  0  0  0
    1.3448   -0.5213   -3.0665 C   0  0  0  0  0  0  0  0  0  0  0  0
    0.9421   -1.4323   -3.5151 H   0  0  0  0  0  0  0  0  0  0  0  0
    1.3272    0.2804   -3.8054 H   0  0  0  0  0  0  0  0  0  0  0  0
    2.3760   -0.7093   -2.7636 H   0  0  0  0  0  0  0  0  0  0  0  0
  5  6  2  0  0  0  0
  5  7  1  0  0  0  0
  2  3  1  0  0  0  0
  2  4  1  0  0  0  0
  2  5  1  0  0  0  0
  1  2  1  0  0  0  0
 22 23  2  0  0  0  0
 22 24  1  0  0  0  0
 20 21  1  0  0  0  0
 19 20  1  0  0  0  0
 17 18  1  0  0  0  0
 17 19  2  0  0  0  0
 15 16  1  0  0  0  0
 15 17  1  0  0  0  0
 14 15  1  0  0  0  0
 14 20  2  0  0  0  0
 11 12  1  0  0  0  0
 11 13  1  0  0  0  0
 11 14  1  0  0  0  0
  9 10  1  0  0  0  0
  9 11  1  0  0  0  0
  9 22  1  0  0  0  0
  7  8  1  0  0  0  0
  7  9  1  0  0  0  0
 26 27  1  0  0  0  0
 26 28  1  0  0  0  0
 26 29  1  0  0  0  0
 24 25  1  0  0  0  0
 24 26  1  0  0  0  0
M  END
$$$$
default_name
  -OEChem-01062215323D

 29 29  0     1  0  0  0  0  0999 V2000
   -3.6042   -3.5728    1.4576 H   0  0  0  0  0  0  0  0  0  0  0  0
   -3.5202   -2.6488    0.8866 C   0  0  0  0  0  0  0  0  0  0  0  0
   -4.2052   -1.9048    1.2896 H   0  0  0  0  0  0  0  0  0  0  0  0
   -3.7552   -2.8428   -0.1584 H   0  0  0  0  0  0  0  0  0  0  0  0
   -2.1052   -2.1358    0.9946 C   0  0  0  0  0  0  0  0  0  0  0  0
   -1.2852   -2.7288    1.6826 O   0  0  0  0  0  0  0  0  0  0  0  0
   -1.8202   -1.0288    0.3146 N   0  0  0  0  0  0  0  0  0  0  0  0
   -2.5542   -0.5788   -0.2104 H   0  0  0  0  0  0  0  0  0  0  0  0
   -0.5102   -0.3728    0.3086 C   0  0  1  0  0  0  0  0  0  0  0  0
   -0.6543    0.6939    0.1305 H   0  0  0  0  0  0  0  0  0  0  0  0
    0.1459   -0.5427    1.6912 C   0  0  0  0  0  0  0  0  0  0  0  0
    0.2215   -1.6067    1.9225 H   0  0  0  0  0  0  0  0  0  0  0  0
    1.1575   -0.1340    1.6576 H   0  0  0  0  0  0  0  0  0  0  0  0
   -0.6076    0.1375    2.8047 C   0  0  0  0  0  0  0  0  0  0  0  0
   -0.6419    1.4920    3.0580 N   0  0  0  0  0  0  0  0  0  0  0  0
   -0.1064    2.2005    2.5791 H   0  0  0  0  0  0  0  0  0  0  0  0
   -1.5109    1.7054    4.0603 C   0  0  0  0  0  0  0  0  0  0  0  0
   -1.7485    2.6719    4.4877 H   0  0  0  0  0  0  0  0  0  0  0  0
   -2.0521    0.5456    4.4606 N   0  0  0  0  0  0  0  0  0  0  0  0
   -1.4829   -0.4585    3.6731 C   0  0  0  0  0  0  0  0  0  0  0  0
   -1.7179   -1.5141    3.7154 H   0  0  0  0  0  0  0  0  0  0  0  0
    0.3719   -0.9239   -0.8245 C   0  0  0  0  0  0  0  0  0  0  0  0
    0.6736   -2.1169   -0.8495 O   0  0  0  0  0  0  0  0  0  0  0  0
    0.7992   -0.0559   -1.7500 N   0  0  0  0  0  0  0  0  0  0  0  0
    0.5537    0.9159   -1.6299 H   0  0  0  0  0  0  0  0  0  0  0  0
    1.6367   -0.4129   -2.8920 C   0  0  0  0  0  0  0  0  0  0  0  0
    1.1239   -1.1547   -3.5086 H   0  0  0  0  0  0  0  0  0  0  0  0
    1.8459    0.4715   -3.4945 H   0  0  0  0  0  0  0  0  0  0  0  0
    2.5773   -0.8414   -2.5426 H   0  0  0  0  0  0  0  0  0  0  0  0
  5  6  2  0  0  0  0
  5  7  1  0  0  0  0
  2  3  1  0  0  0  0
  2  4  1  0  0  0  0
  2  5  1  0  0  0  0
  1  2  1  0  0  0  0
 22 23  2  0  0  0  0
 22 24  1  0  0  0  0
 20 21  1  0  0  0  0
 19 20  1  0  0  0  0
 17 18  1  0  0  0  0
 17 19  2  0  0  0  0
 15 16  1  0  0  0  0
 15 17  1  0  0  0  0
 14 15  1  0  0  0  0
 14 20  2  0  0  0  0
 11 12  1  0  0  0  0
 11 13  1  0  0  0  0
 11 14  1  0  0  0  0
  9 10  1  0  0  0  0
  9 11  1  0  0  0  0
  9 22  1  0  0  0  0
  7  8  1  0  0  0  0
  7  9  1  0  0  0  0
 26 27  1  0  0  0  0
 26 28  1  0  0  0  0
 26 29  1  0  0  0  0
 24 25  1  0  0  0  0
 24 26  1  0  0  0  0
M  END
$$$$
default_name
  -OEChem-01062215323D

 29 29  0     1  0  0  0  0  0999 V2000
   -3.6042   -3.5728    1.4576 H   0  0  0  0  0  0  0  0  0  0  0  0
   -3.5202   -2.6488    0.8866 C   0  0  0  0  0  0  0  0  0  0  0  0
   -4.2052   -1.9048    1.2896 H   0  0  0  0  0  0  0  0  0  0  0  0
   -3.7552   -2.8428   -0.1584 H   0  0  0  0  0  0  0  0  0  0  0  0
   -2.1052   -2.1358    0.9946 C   0  0  0  0  0  0  0  0  0  0  0  0
   -1.2852   -2.7288    1.6826 O   0  0  0  0  0  0  0  0  0  0  0  0
   -1.8202   -1.0288    0.3146 N   0  0  0  0  0  0  0  0  0  0  0  0
   -2.5542   -0.5788   -0.2104 H   0  0  0  0  0  0  0  0  0  0  0  0
   -0.5102   -0.3728    0.3086 C   0  0  1  0  0  0  0  0  0  0  0  0
   -0.6543    0.6939    0.1305 H   0  0  0  0  0  0  0  0  0  0  0  0
    0.1459   -0.5427    1.6912 C   0  0  0  0  0  0  0  0  0  0  0  0
    0.2215   -1.6067    1.9225 H   0  0  0  0  0  0  0  0  0  0  0  0
    1.1575   -0.1340    1.6576 H   0  0  0  0  0  0  0  0  0  0  0  0
   -0.6076    0.1375    2.8047 C   0  0  0  0  0  0  0  0  0  0  0  0
   -0.6419    1.4920    3.0580 N   0  0  0  0  0  0  0  0  0  0  0  0
   -0.1064    2.2005    2.5791 H   0  0  0  0  0  0  0  0  0  0  0  0
   -1.5109    1.7054    4.0603 C   0  0  0  0  0  0  0  0  0  0  0  0
   -1.7485    2.6719    4.4877 H   0  0  0  0  0  0  0  0  0  0  0  0
   -2.0521    0.5456    4.4606 N   0  0  0  0  0  0  0  0  0  0  0  0
   -1.4829   -0.4585    3.6731 C   0  0  0  0  0  0  0  0  0  0  0  0
   -1.7179   -1.5141    3.7154 H   0  0  0  0  0  0  0  0  0  0  0  0
    0.3719   -0.9239   -0.8245 C   0  0  0  0  0  0  0  0  0  0  0  0
    0.4502   -2.1376   -1.0133 O   0  0  0  0  0  0  0  0  0  0  0  0
    1.0480   -0.0371   -1.5654 N   0  0  0  0  0  0  0  0  0  0  0  0
    0.9737    0.9376   -1.3134 H   0  0  0  0  0  0  0  0  0  0  0  0
    1.9231   -0.3898   -2.6803 C   0  0  0  0  0  0  0  0  0  0  0  0
    1.3519   -0.9222   -3.4441 H   0  0  0  0  0  0  0  0  0  0  0  0
    2.3545    0.5110   -3.1177 H   0  0  0  0  0  0  0  0  0  0  0  0
    2.7261   -1.0402   -2.3300 H   0  0  0  0  0  0  0  0  0  0  0  0
  5  6  2  0  0  0  0
  5  7  1  0  0  0  0
  2  3  1  0  0  0  0
  2  4  1  0  0  0  0
  2  5  1  0  0  0  0
  1  2  1  0  0  0  0
 22 23  2  0  0  0  0
 22 24  1  0  0  0  0
 20 21  1  0  0  0  0
 19 20  1  0  0  0  0
 17 18  1  0  0  0  0
 17 19  2  0  0  0  0
 15 16  1  0  0  0  0
 15 17  1  0  0  0  0
 14 15  1  0  0  0  0
 14 20  2  0  0  0  0
 11 12  1  0  0  0  0
 11 13  1  0  0  0  0
 11 14  1  0  0  0  0
  9 10  1  0  0  0  0
  9 11  1  0  0  0  0
  9 22  1  0  0  0  0
  7  8  1  0  0  0  0
  7  9  1  0  0  0  0
 26 27  1  0  0  0  0
 26 28  1  0  0  0  0
 26 29  1  0  0  0  0
 24 25  1  0  0  0  0
 24 26  1  0  0  0  0
M  END
$$$$
default_name
  -OEChem-01062215323D

 29 29  0     1  0  0  0  0  0999 V2000
   -3.6042   -3.5728    1.4576 H   0  0  0  0  0  0  0  0  0  0  0  0
   -3.5202   -2.6488    0.8866 C   0  0  0  0  0  0  0  0  0  0  0  0
   -4.2052   -1.9048    1.2896 H   0  0  0  0  0  0  0  0  0  0  0  0
   -3.7552   -2.8428   -0.1584 H   0  0  0  0  0  0  0  0  0  0  0  0
   -2.1052   -2.1358    0.9946 C   0  0  0  0  0  0  0  0  0  0  0  0
   -1.2852   -2.7288    1.6826 O   0  0  0  0  0  0  0  0  0  0  0  0
   -1.8202   -1.0288    0.3146 N   0  0  0  0  0  0  0  0  0  0  0  0
   -2.5542   -0.5788   -0.2104 H   0  0  0  0  0  0  0  0  0  0  0  0
   -0.5102   -0.3728    0.3086 C   0  0  1  0  0  0  0  0  0  0  0  0
   -0.6543    0.6939    0.1305 H   0  0  0  0  0  0  0  0  0  0  0  0
    0.1459   -0.5427    1.6912 C   0  0  0  0  0  0  0  0  0  0  0  0
    0.2215   -1.6067    1.9225 H   0  0  0  0  0  0  0  0  0  0  0  0
    1.1575   -0.1340    1.6576 H   0  0  0  0  0  0  0  0  0  0  0  0
   -0.6076    0.1375    2.8047 C   0  0  0  0  0  0  0  0  0  0  0  0
   -0.6419    1.4920    3.0580 N   0  0  0  0  0  0  0  0  0  0  0  0
   -0.1064    2.2005    2.5791 H   0  0  0  0  0  0  0  0  0  0  0  0
   -1.5109    1.7054    4.0603 C   0  0  0  0  0  0  0  0  0  0  0  0
   -1.7485    2.6719    4.4877 H   0  0  0  0  0  0  0  0  0  0  0  0
   -2.0521    0.5456    4.4606 N   0  0  0  0  0  0  0  0  0  0  0  0
   -1.4829   -0.4585    3.6731 C   0  0  0  0  0  0  0  0  0  0  0  0
   -1.7179   -1.5141    3.7154 H   0  0  0  0  0  0  0  0  0  0  0  0
    0.3719   -0.9239   -0.8245 C   0  0  0  0  0  0  0  0  0  0  0  0
    0.2458   -2.0907   -1.1953 O   0  0  0  0  0  0  0  0  0  0  0  0
    1.2748   -0.0937   -1.3613 N   0  0  0  0  0  0  0  0  0  0  0  0
    1.3543    0.8315   -0.9656 H   0  0  0  0  0  0  0  0  0  0  0  0
    2.1846   -0.4535   -2.4457 C   0  0  0  0  0  0  0  0  0  0  0  0
    1.6105   -0.7506   -3.3263 H   0  0  0  0  0  0  0  0  0  0  0  0
    2.8184    0.3963   -2.7008 H   0  0  0  0  0  0  0  0  0  0  0  0
    2.8123   -1.2921   -2.1404 H   0  0  0  0  0  0  0  0  0  0  0  0
  5  6  2  0  0  0  0
  5  7  1  0  0  0  0
  2  3  1  0  0  0  0
  2  4  1  0  0  0  0
  2  5  1  0  0  0  0
  1  2  1  0  0  0  0
 22 23  2  0  0  0  0
 22 24  1  0  0  0  0
 20 21  1  0  0  0  0
 19 20  1  0  0  0  0
 17 18  1  0  0  0  0
 17 19  2  0  0  0  0
 15 16  1  0  0  0  0
 15 17  1  0  0  0  0
 14 15  1  0  0  0  0
 14 20  2  0  0  0  0
 11 12  1  0  0  0  0
 11 13  1  0  0  0  0
 11 14  1  0  0  0  0
  9 10  1  0  0  0  0
  9 11  1  0  0  0  0
  9 22  1  0  0  0  0
  7  8  1  0  0  0  0
  7  9  1  0  0  0  0
 26 27  1  0  0  0  0
 26 28  1  0  0  0  0
 26 29  1  0  0  0  0
 24 25  1  0  0  0  0
 24 26  1  0  0  0  0
M  END
$$$$
default_name
  -OEChem-01062215323D

 29 29  0     1  0  0  0  0  0999 V2000
   -3.6042   -3.5728    1.4576 H   0  0  0  0  0  0  0  0  0  0  0  0
   -3.5202   -2.6488    0.8866 C   0  0  0  0  0  0  0  0  0  0  0  0
   -4.2052   -1.9048    1.2896 H   0  0  0  0  0  0  0  0  0  0  0  0
   -3.7552   -2.8428   -0.1584 H   0  0  0  0  0  0  0  0  0  0  0  0
   -2.1052   -2.1358    0.9946 C   0  0  0  0  0  0  0  0  0  0  0  0
   -1.2852   -2.7288    1.6826 O   0  0  0  0  0  0  0  0  0  0  0  0
   -1.8202   -1.0288    0.3146 N   0  0  0  0  0  0  0  0  0  0  0  0
   -2.5542   -0.5788   -0.2104 H   0  0  0  0  0  0  0  0  0  0  0  0
   -0.5102   -0.3728    0.3086 C   0  0  1  0  0  0  0  0  0  0  0  0
   -0.6543    0.6939    0.1305 H   0  0  0  0  0  0  0  0  0  0  0  0
    0.1459   -0.5427    1.6912 C   0  0  0  0  0  0  0  0  0  0  0  0
    0.2215   -1.6067    1.9225 H   0  0  0  0  0  0  0  0  0  0  0  0
    1.1575   -0.1340    1.6576 H   0  0  0  0  0  0  0  0  0  0  0  0
   -0.6076    0.1375    2.8047 C   0  0  0  0  0  0  0  0  0  0  0  0
   -0.6419    1.4920    3.0580 N   0  0  0  0  0  0  0  0  0  0  0  0
   -0.1064    2.2005    2.5791 H   0  0  0  0  0  0  0  0  0  0  0  0
   -1.5109    1.7054    4.0603 C   0  0  0  0  0  0  0  0  0  0  0  0
   -1.7485    2.6719    4.4877 H   0  0  0  0  0  0  0  0  0  0  0  0
   -2.0521    0.5456    4.4606 N   0  0  0  0  0  0  0  0  0  0  0  0
   -1.4829   -0.4585    3.6731 C   0  0  0  0  0  0  0  0  0  0  0  0
   -1.7179   -1.5141    3.7154 H   0  0  0  0  0  0  0  0  0  0  0  0
    0.3719   -0.9239   -0.8245 C   0  0  0  0  0  0  0  0  0  0  0  0
    0.0741   -1.9794   -1.3831 O   0  0  0  0  0  0  0  0  0  0  0  0
    1.4641   -0.2220   -1.1515 N   0  0  0  0  0  0  0  0  0  0  0  0
    1.6693    0.6049   -0.6101 H   0  0  0  0  0  0  0  0  0  0  0  0
    2.4032   -0.5997   -2.2044 C   0  0  0  0  0  0  0  0  0  0  0  0
    1.8820   -0.6517   -3.1630 H   0  0  0  0  0  0  0  0  0  0  0  0
    3.2059    0.1352   -2.2720 H   0  0  0  0  0  0  0  0  0  0  0  0
    2.8298   -1.5801   -1.9867 H   0  0  0  0  0  0  0  0  0  0  0  0
  5  6  2  0  0  0  0
  5  7  1  0  0  0  0
  2  3  1  0  0  0  0
  2  4  1  0  0  0  0
  2  5  1  0  0  0  0
  1  2  1  0  0  0  0
 22 23  2  0  0  0  0
 22 24  1  0  0  0  0
 20 21  1  0  0  0  0
 19 20  1  0  0  0  0
 17 18  1  0  0  0  0
 17 19  2  0  0  0  0
 15 16  1  0  0  0  0
 15 17  1  0  0  0  0
 14 15  1  0  0  0  0
 14 20  2  0  0  0  0
 11 12  1  0  0  0  0
 11 13  1  0  0  0  0
 11 14  1  0  0  0  0
  9 10  1  0  0  0  0
  9 11  1  0  0  0  0
  9 22  1  0  0  0  0
  7  8  1  0  0  0  0
  7  9  1  0  0  0  0
 26 27  1  0  0  0  0
 26 28  1  0  0  0  0
 26 29  1  0  0  0  0
 24 25  1  0  0  0  0
 24 26  1  0  0  0  0
M  END
$$$$
default_name
  -OEChem-01062215323D

 29 29  0     1  0  0  0  0  0999 V2000
   -3.6042   -3.5728    1.4576 H   0  0  0  0  0  0  0  0  0  0  0  0
   -3.5202   -2.6488    0.8866 C   0  0  0  0  0  0  0  0  0  0  0  0
   -4.2052   -1.9048    1.2896 H   0  0  0  0  0  0  0  0  0  0  0  0
   -3.7552   -2.8428   -0.1584 H   0  0  0  0  0  0  0  0  0  0  0  0
   -2.1052   -2.1358    0.9946 C   0  0  0  0  0  0  0  0  0  0  0  0
   -1.2852   -2.7288    1.6826 O   0  0  0  0  0  0  0  0  0  0  0  0
   -1.8202   -1.0288    0.3146 N   0  0  0  0  0  0  0  0  0  0  0  0
   -2.5542   -0.5788   -0.2104 H   0  0  0  0  0  0  0  0  0  0  0  0
   -0.5102   -0.3728    0.3086 C   0  0  1  0  0  0  0  0  0  0  0  0
   -0.6583    0.7043    0.4001 H   0  0  0  0  0  0  0  0  0  0  0  0
    0.2990   -0.8499    1.5287 C   0  0  0  0  0  0  0  0  0  0  0  0
    0.3852   -1.9375    1.4972 H   0  0  0  0  0  0  0  0  0  0  0  0
    1.3058   -0.4318    1.4734 H   0  0  0  0  0  0  0  0  0  0  0  0
   -0.3105   -0.4555    2.8490 C   0  0  0  0  0  0  0  0  0  0  0  0
   -0.2953    0.8031    3.4110 N   0  0  0  0  0  0  0  0  0  0  0  0
    0.1915    1.6099    3.0502 H   0  0  0  0  0  0  0  0  0  0  0  0
   -1.0392    0.7677    4.5294 C   0  0  0  0  0  0  0  0  0  0  0  0
   -1.2115    1.6060    5.1934 H   0  0  0  0  0  0  0  0  0  0  0  0
   -1.5475   -0.4599    4.7105 N   0  0  0  0  0  0  0  0  0  0  0  0
   -1.0880   -1.2472    3.6514 C   0  0  0  0  0  0  0  0  0  0  0  0
   -1.3320   -2.2869    3.4753 H   0  0  0  0  0  0  0  0  0  0  0  0
    0.2266   -0.6355   -1.0157 C   0  0  0  0  0  0  0  0  0  0  0  0
   -0.2941   -1.3329   -1.8860 O   0  0  0  0  0  0  0  0  0  0  0  0
    1.4423   -0.0940   -1.1619 N   0  0  0  0  0  0  0  0  0  0  0  0
    1.8234    0.4201   -0.3812 H   0  0  0  0  0  0  0  0  0  0  0  0
    2.2725   -0.2395   -2.3547 C   0  0  0  0  0  0  0  0  0  0  0  0
    1.7471    0.1662   -3.2222 H   0  0  0  0  0  0  0  0  0  0  0  0
    3.2140    0.2947   -2.2236 H   0  0  0  0  0  0  0  0  0  0  0  0
    2.4797   -1.2953   -2.5359 H   0  0  0  0  0  0  0  0  0  0  0  0
  5  6  2  0  0  0  0
  5  7  1  0  0  0  0
  2  3  1  0  0  0  0
  2  4  1  0  0  0  0
  2  5  1  0  0  0  0
  1  2  1  0  0  0  0
 22 23  2  0  0  0  0
 22 24  1  0  0  0  0
 20 21  1  0  0  0  0
 19 20  1  0  0  0  0
 17 18  1  0  0  0  0
 17 19  2  0  0  0  0
 15 16  1  0  0  0  0
 15 17  1  0  0  0  0
 14 15  1  0  0  0  0
 14 20  2  0  0  0  0
 11 12  1  0  0  0  0
 11 13  1  0  0  0  0
 11 14  1  0  0  0  0
  9 10  1  0  0  0  0
  9 11  1  0  0  0  0
  9 22  1  0  0  0  0
  7  8  1  0  0  0  0
  7  9  1  0  0  0  0
 26 27  1  0  0  0  0
 26 28  1  0  0  0  0
 26 29  1  0  0  0  0
 24 25  1  0  0  0  0
 24 26  1  0  0  0  0
M  END
$$$$
default_name
  -OEChem-01062215323D

 29 29  0     1  0  0  0  0  0999 V2000
   -3.6042   -3.5728    1.4576 H   0  0  0  0  0  0  0  0  0  0  0  0
   -3.5202   -2.6488    0.8866 C   0  0  0  0  0  0  0  0  0  0  0  0
   -4.2052   -1.9048    1.2896 H   0  0  0  0  0  0  0  0  0  0  0  0
   -3.7552   -2.8428   -0.1584 H   0  0  0  0  0  0  0  0  0  0  0  0
   -2.1052   -2.1358    0.9946 C   0  0  0  0  0  0  0  0  0  0  0  0
   -1.2852   -2.7288    1.6826 O   0  0  0  0  0  0  0  0  0  0  0  0
   -1.8202   -1.0288    0.3146 N   0  0  0  0  0  0  0  0  0  0  0  0
   -2.5542   -0.5788   -0.2104 H   0  0  0  0  0  0  0  0  0  0  0  0
   -0.5102   -0.3728    0.3086 C   0  0  1  0  0  0  0  0  0  0  0  0
   -0.6583    0.7043    0.4001 H   0  0  0  0  0  0  0  0  0  0  0  0
    0.2990   -0.8499    1.5287 C   0  0  0  0  0  0  0  0  0  0  0  0
    0.3852   -1.9375    1.4972 H   0  0  0  0  0  0  0  0  0  0  0  0
    1.3058   -0.4318    1.4734 H   0  0  0  0  0  0  0  0  0  0  0  0
   -0.3105   -0.4555    2.8490 C   0  0  0  0  0  0  0  0  0  0  0  0
   -0.2953    0.8031    3.4110 N   0  0  0  0  0  0  0  0  0  0  0  0
    0.1915    1.6099    3.0502 H   0  0  0  0  0  0  0  0  0  0  0  0
   -1.0392    0.7677    4.5294 C   0  0  0  0  0  0  0  0  0  0  0  0
   -1.2115    1.6060    5.1934 H   0  0  0  0  0  0  0  0  0  0  0  0
   -1.5475   -0.4599    4.7105 N   0  0  0  0  0  0  0  0  0  0  0  0
   -1.0880   -1.2472    3.6514 C   0  0  0  0  0  0  0  0  0  0  0  0
   -1.3320   -2.2869    3.4753 H   0  0  0  0  0  0  0  0  0  0  0  0
    0.2266   -0.6355   -1.0157 C   0  0  0  0  0  0  0  0  0  0  0  0
   -0.3832   -1.0888   -1.9840 O   0  0  0  0  0  0  0  0  0  0  0  0
    1.5381   -0.3688   -1.0541 N   0  0  0  0  0  0  0  0  0  0  0  0
    1.9768   -0.0506   -0.2025 H   0  0  0  0  0  0  0  0  0  0  0  0
    2.3840   -0.5549   -2.2301 C   0  0  0  0  0  0  0  0  0  0  0  0
    2.0121    0.0591   -3.0535 H   0  0  0  0  0  0  0  0  0  0  0  0
    3.4106   -0.2664   -2.0029 H   0  0  0  0  0  0  0  0  0  0  0  0
    2.3639   -1.6010   -2.5397 H   0  0  0  0  0  0  0  0  0  0  0  0
  5  6  2  0  0  0  0
  5  7  1  0  0  0  0
  2  3  1  0  0  0  0
  2  4  1  0  0  0  0
  2  5  1  0  0  0  0
  1  2  1  0  0  0  0
 22 23  2  0  0  0  0
 22 24  1  0  0  0  0
 20 21  1  0  0  0  0
 19 20  1  0  0  0  0
 17 18  1  0  0  0  0
 17 19  2  0  0  0  0
 15 16  1  0  0  0  0
 15 17  1  0  0  0  0
 14 15  1  0  0  0  0
 14 20  2  0  0  0  0
 11 12  1  0  0  0  0
 11 13  1  0  0  0  0
 11 14  1  0  0  0  0
  9 10  1  0  0  0  0
  9 11  1  0  0  0  0
  9 22  1  0  0  0  0
  7  8  1  0  0  0  0
  7  9  1  0  0  0  0
 26 27  1  0  0  0  0
 26 28  1  0  0  0  0
 26 29  1  0  0  0  0
 24 25  1  0  0  0  0
 24 26  1  0  0  0  0
M  END
$$$$
default_name
  -OEChem-01062215323D

 29 29  0     1  0  0  0  0  0999 V2000
   -3.6042   -3.5728    1.4576 H   0  0  0  0  0  0  0  0  0  0  0  0
   -3.5202   -2.6488    0.8866 C   0  0  0  0  0  0  0  0  0  0  0  0
   -4.2052   -1.9048    1.2896 H   0  0  0  0  0  0  0  0  0  0  0  0
   -3.7552   -2.8428   -0.1584 H   0  0  0  0  0  0  0  0  0  0  0  0
   -2.1052   -2.1358    0.9946 C   0  0  0  0  0  0  0  0  0  0  0  0
   -1.2852   -2.7288    1.6826 O   0  0  0  0  0  0  0  0  0  0  0  0
   -1.8202   -1.0288    0.3146 N   0  0  0  0  0  0  0  0  0  0  0  0
   -2.5542   -0.5788   -0.2104 H   0  0  0  0  0  0  0  0  0  0  0  0
   -0.5102   -0.3728    0.3086 C   0  0  1  0  0  0  0  0  0  0  0  0
   -0.6583    0.7043    0.4001 H   0  0  0  0  0  0  0  0  0  0  0  0
    0.2990   -0.8499    1.5287 C   0  0  0  0  0  0  0  0  0  0  0  0
    0.3852   -1.9375    1.4972 H   0  0  0  0  0  0  0  0  0  0  0  0
    1.3058   -0.4318    1.4734 H   0  0  0  0  0  0  0  0  0  0  0  0
   -0.3105   -0.4555    2.8490 C   0  0  0  0  0  0  0  0  0  0  0  0
   -0.2953    0.8031    3.4110 N   0  0  0  0  0  0  0  0  0  0  0  0
    0.1915    1.6099    3.0502 H   0  0  0  0  0  0  0  0  0  0  0  0
   -1.0392    0.7677    4.5294 C   0  0  0  0  0  0  0  0  0  0  0  0
   -1.2115    1.6060    5.1934 H   0  0  0  0  0  0  0  0  0  0  0  0
   -1.5475   -0.4599    4.7105 N   0  0  0  0  0  0  0  0  0  0  0  0
   -1.0880   -1.2472    3.6514 C   0  0  0  0  0  0  0  0  0  0  0  0
   -1.3320   -2.2869    3.4753 H   0  0  0  0  0  0  0  0  0  0  0  0
    0.2266   -0.6355   -1.0157 C   0  0  0  0  0  0  0  0  0  0  0  0
   -0.4105   -0.8210   -2.0523 O   0  0  0  0  0  0  0  0  0  0  0  0
    1.5646   -0.6690   -0.9798 N   0  0  0  0  0  0  0  0  0  0  0  0
    2.0122   -0.5616   -0.0814 H   0  0  0  0  0  0  0  0  0  0  0  0
    2.4158   -0.8998   -2.1440 C   0  0  0  0  0  0  0  0  0  0  0  0
    2.2368   -0.1242   -2.8921 H   0  0  0  0  0  0  0  0  0  0  0  0
    3.4658   -0.8796   -1.8505 H   0  0  0  0  0  0  0  0  0  0  0  0
    2.1841   -1.8699   -2.5864 H   0  0  0  0  0  0  0  0  0  0  0  0
  5  6  2  0  0  0  0
  5  7  1  0  0  0  0
  2  3  1  0  0  0  0
  2  4  1  0  0  0  0
  2  5  1  0  0  0  0
  1  2  1  0  0  0  0
 22 23  2  0  0  0  0
 22 24  1  0  0  0  0
 20 21  1  0  0  0  0
 19 20  1  0  0  0  0
 17 18  1  0  0  0  0
 17 19  2  0  0  0  0
 15 16  1  0  0  0  0
 15 17  1  0  0  0  0
 14 15  1  0  0  0  0
 14 20  2  0  0  0  0
 11 12  1  0  0  0  0
 11 13  1  0  0  0  0
 11 14  1  0  0  0  0
  9 10  1  0  0  0  0
  9 11  1  0  0  0  0
  9 22  1  0  0  0  0
  7  8  1  0  0  0  0
  7  9  1  0  0  0  0
 26 27  1  0  0  0  0
 26 28  1  0  0  0  0
 26 29  1  0  0  0  0
 24 25  1  0  0  0  0
 24 26  1  0  0  0  0
M  END
$$$$
default_name
  -OEChem-01062215323D

 29 29  0     1  0  0  0  0  0999 V2000
   -3.6042   -3.5728    1.4576 H   0  0  0  0  0  0  0  0  0  0  0  0
   -3.5202   -2.6488    0.8866 C   0  0  0  0  0  0  0  0  0  0  0  0
   -4.2052   -1.9048    1.2896 H   0  0  0  0  0  0  0  0  0  0  0  0
   -3.7552   -2.8428   -0.1584 H   0  0  0  0  0  0  0  0  0  0  0  0
   -2.1052   -2.1358    0.9946 C   0  0  0  0  0  0  0  0  0  0  0  0
   -1.2852   -2.7288    1.6826 O   0  0  0  0  0  0  0  0  0  0  0  0
   -1.8202   -1.0288    0.3146 N   0  0  0  0  0  0  0  0  0  0  0  0
   -2.5542   -0.5788   -0.2104 H   0  0  0  0  0  0  0  0  0  0  0  0
   -0.5102   -0.3728    0.3086 C   0  0  1  0  0  0  0  0  0  0  0  0
   -0.6583    0.7043    0.4001 H   0  0  0  0  0  0  0  0  0  0  0  0
    0.2990   -0.8499    1.5287 C   0  0  0  0  0  0  0  0  0  0  0  0
    0.3852   -1.9375    1.4972 H   0  0  0  0  0  0  0  0  0  0  0  0
    1.3058   -0.4318    1.4734 H   0  0  0  0  0  0  0  0  0  0  0  0
   -0.3105   -0.4555    2.8490 C   0  0  0  0  0  0  0  0  0  0  0  0
   -0.2953    0.8031    3.4110 N   0  0  0  0  0  0  0  0  0  0  0  0
    0.1915    1.6099    3.0502 H   0  0  0  0  0  0  0  0  0  0  0  0
   -1.0392    0.7677    4.5294 C   0  0  0  0  0  0  0  0  0  0  0  0
   -1.2115    1.6060    5.1934 H   0  0  0  0  0  0  0  0  0  0  0  0
   -1.5475   -0.4599    4.7105 N   0  0  0  0  0  0  0  0  0  0  0  0
   -1.0880   -1.2472    3.6514 C   0  0  0  0  0  0  0  0  0  0  0  0
   -1.3320   -2.2869    3.4753 H   0  0  0  0  0  0  0  0  0  0  0  0
    0.2266   -0.6355   -1.0157 C   0  0  0  0  0  0  0  0  0  0  0  0
   -0.3742   -0.5478   -2.0863 O   0  0  0  0  0  0  0  0  0  0  0  0
    1.5200   -0.9740   -0.9441 N   0  0  0  0  0  0  0  0  0  0  0  0
    1.9271   -1.0781   -0.0263 H   0  0  0  0  0  0  0  0  0  0  0  0
    2.3659   -1.2508   -2.1021 C   0  0  0  0  0  0  0  0  0  0  0  0
    2.4059   -0.3715   -2.7490 H   0  0  0  0  0  0  0  0  0  0  0  0
    3.3757   -1.5031   -1.7770 H   0  0  0  0  0  0  0  0  0  0  0  0
    1.9526   -2.0839   -2.6727 H   0  0  0  0  0  0  0  0  0  0  0  0
  5  6  2  0  0  0  0
  5  7  1  0  0  0  0
  2  3  1  0  0  0  0
  2  4  1  0  0  0  0
  2  5  1  0  0  0  0
  1  2  1  0  0  0  0
 22 23  2  0  0  0  0
 22 24  1  0  0  0  0
 20 21  1  0  0  0  0
 19 20  1  0  0  0  0
 17 18  1  0  0  0  0
 17 19  2  0  0  0  0
 15 16  1  0  0  0  0
 15 17  1  0  0  0  0
 14 15  1  0  0  0  0
 14 20  2  0  0  0  0
 11 12  1  0  0  0  0
 11 13  1  0  0  0  0
 11 14  1  0  0  0  0
  9 10  1  0  0  0  0
  9 11  1  0  0  0  0
  9 22  1  0  0  0  0
  7  8  1  0  0  0  0
  7  9  1  0  0  0  0
 26 27  1  0  0  0  0
 26 28  1  0  0  0  0
 26 29  1  0  0  0  0
 24 25  1  0  0  0  0
 24 26  1  0  0  0  0
M  END
$$$$
default_name
  -OEChem-01062215323D

 29 29  0     1  0  0  0  0  0999 V2000
   -3.6042   -3.5728    1.4576 H   0  0  0  0  0  0  0  0  0  0  0  0
   -3.5202   -2.6488    0.8866 C   0  0  0  0  0  0  0  0  0  0  0  0
   -4.2052   -1.9048    1.2896 H   0  0  0  0  0  0  0  0  0  0  0  0
   -3.7552   -2.8428   -0.1584 H   0  0  0  0  0  0  0  0  0  0  0  0
   -2.1052   -2.1358    0.9946 C   0  0  0  0  0  0  0  0  0  0  0  0
   -1.2852   -2.7288    1.6826 O   0  0  0  0  0  0  0  0  0  0  0  0
   -1.8202   -1.0288    0.3146 N   0  0  0  0  0  0  0  0  0  0  0  0
   -2.5542   -0.5788   -0.2104 H   0  0  0  0  0  0  0  0  0  0  0  0
   -0.5102   -0.3728    0.3086 C   0  0  1  0  0  0  0  0  0  0  0  0
   -0.6583    0.7043    0.4001 H   0  0  0  0  0  0  0  0  0  0  0  0
    0.2990   -0.8499    1.5287 C   0  0  0  0  0  0  0  0  0  0  0  0
    0.3852   -1.9375    1.4972 H   0  0  0  0  0  0  0  0  0  0  0  0
    1.3058   -0.4318    1.4734 H   0  0  0  0  0  0  0  0  0  0  0  0
   -0.3105   -0.4555    2.8490 C   0  0  0  0  0  0  0  0  0  0  0  0
   -0.2953    0.8031    3.4110 N   0  0  0  0  0  0  0  0  0  0  0  0
    0.1915    1.6099    3.0502 H   0  0  0  0  0  0  0  0  0  0  0  0
   -1.0392    0.7677    4.5294 C   0  0  0  0  0  0  0  0  0  0  0  0
   -1.2115    1.6060    5.1934 H   0  0  0  0  0  0  0  0  0  0  0  0
   -1.5475   -0.4599    4.7105 N   0  0  0  0  0  0  0  0  0  0  0  0
   -1.0880   -1.2472    3.6514 C   0  0  0  0  0  0  0  0  0  0  0  0
   -1.3320   -2.2869    3.4753 H   0  0  0  0  0  0  0  0  0  0  0  0
    0.2266   -0.6355   -1.0157 C   0  0  0  0  0  0  0  0  0  0  0  0
   -0.2767   -0.2877   -2.0837 O   0  0  0  0  0  0  0  0  0  0  0  0
    1.4074   -1.2632   -0.9494 N   0  0  0  0  0  0  0  0  0  0  0  0
    1.7274   -1.5649   -0.0408 H   0  0  0  0  0  0  0  0  0  0  0  0
    2.2377   -1.5838   -2.1074 C   0  0  0  0  0  0  0  0  0  0  0  0
    2.5078   -0.6657   -2.6339 H   0  0  0  0  0  0  0  0  0  0  0  0
    3.1464   -2.0943   -1.7872 H   0  0  0  0  0  0  0  0  0  0  0  0
    1.6851   -2.2283   -2.7929 H   0  0  0  0  0  0  0  0  0  0  0  0
  5  6  2  0  0  0  0
  5  7  1  0  0  0  0
  2  3  1  0  0  0  0
  2  4  1  0  0  0  0
  2  5  1  0  0  0  0
  1  2  1  0  0  0  0
 22 23  2  0  0  0  0
 22 24  1  0  0  0  0
 20 21  1  0  0  0  0
 19 20  1  0  0  0  0
 17 18  1  0  0  0  0
 17 19  2  0  0  0  0
 15 16  1  0  0  0  0
 15 17  1  0  0  0  0
 14 15  1  0  0  0  0
 14 20  2  0  0  0  0
 11 12  1  0  0  0  0
 11 13  1  0  0  0  0
 11 14  1  0  0  0  0
  9 10  1  0  0  0  0
  9 11  1  0  0  0  0
  9 22  1  0  0  0  0
  7  8  1  0  0  0  0
  7  9  1  0  0  0  0
 26 27  1  0  0  0  0
 26 28  1  0  0  0  0
 26 29  1  0  0  0  0
 24 25  1  0  0  0  0
 24 26  1  0  0  0  0
M  END
$$$$
default_name
  -OEChem-01062215323D

 29 29  0     1  0  0  0  0  0999 V2000
   -3.6042   -3.5728    1.4576 H   0  0  0  0  0  0  0  0  0  0  0  0
   -3.5202   -2.6488    0.8866 C   0  0  0  0  0  0  0  0  0  0  0  0
   -4.2052   -1.9048    1.2896 H   0  0  0  0  0  0  0  0  0  0  0  0
   -3.7552   -2.8428   -0.1584 H   0  0  0  0  0  0  0  0  0  0  0  0
   -2.1052   -2.1358    0.9946 C   0  0  0  0  0  0  0  0  0  0  0  0
   -1.2852   -2.7288    1.6826 O   0  0  0  0  0  0  0  0  0  0  0  0
   -1.8202   -1.0288    0.3146 N   0  0  0  0  0  0  0  0  0  0  0  0
   -2.5542   -0.5788   -0.2104 H   0  0  0  0  0  0  0  0  0  0  0  0
   -0.5102   -0.3728    0.3086 C   0  0  1  0  0  0  0  0  0  0  0  0
   -0.6583    0.7043    0.4001 H   0  0  0  0  0  0  0  0  0  0  0  0
    0.2990   -0.8499    1.5287 C   0  0  0  0  0  0  0  0  0  0  0  0
    0.3852   -1.9375    1.4972 H   0  0  0  0  0  0  0  0  0  0  0  0
    1.3058   -0.4318    1.4734 H   0  0  0  0  0  0  0  0  0  0  0  0
   -0.3105   -0.4555    2.8490 C   0  0  0  0  0  0  0  0  0  0  0  0
   -0.2953    0.8031    3.4110 N   0  0  0  0  0  0  0  0  0  0  0  0
    0.1915    1.6099    3.0502 H   0  0  0  0  0  0  0  0  0  0  0  0
   -1.0392    0.7677    4.5294 C   0  0  0  0  0  0  0  0  0  0  0  0
   -1.2115    1.6060    5.1934 H   0  0  0  0  0  0  0  0  0  0  0  0
   -1.5475   -0.4599    4.7105 N   0  0  0  0  0  0  0  0  0  0  0  0
   -1.0880   -1.2472    3.6514 C   0  0  0  0  0  0  0  0  0  0  0  0
   -1.3320   -2.2869    3.4753 H   0  0  0  0  0  0  0  0  0  0  0  0
    0.2266   -0.6355   -1.0157 C   0  0  0  0  0  0  0  0  0  0  0  0
   -0.1247   -0.0586   -2.0446 O   0  0  0  0  0  0  0  0  0  0  0  0
    1.2344   -1.5167   -0.9953 N   0  0  0  0  0  0  0  0  0  0  0  0
    1.4267   -1.9887   -0.1240 H   0  0  0  0  0  0  0  0  0  0  0  0
    2.0398   -1.8763   -2.1594 C   0  0  0  0  0  0  0  0  0  0  0  0
    2.5355   -0.9869   -2.5547 H   0  0  0  0  0  0  0  0  0  0  0  0
    2.7937   -2.6131   -1.8805 H   0  0  0  0  0  0  0  0  0  0  0  0
    1.3999   -2.2932   -2.9388 H   0  0  0  0  0  0  0  0  0  0  0  0
  5  6  2  0  0  0  0
  5  7  1  0  0  0  0
  2  3  1  0  0  0  0
  2  4  1  0  0  0  0
  2  5  1  0  0  0  0
  1  2  1  0  0  0  0
 22 23  2  0  0  0  0
 22 24  1  0  0  0  0
 20 21  1  0  0  0  0
 19 20  1  0  0  0  0
 17 18  1  0  0  0  0
 17 19  2  0  0  0  0
 15 16  1  0  0  0  0
 15 17  1  0  0  0  0
 14 15  1  0  0  0  0
 14 20  2  0  0  0  0
 11 12  1  0  0  0  0
 11 13  1  0  0  0  0
 11 14  1  0  0  0  0
  9 10  1  0  0  0  0
  9 11  1  0  0  0  0
  9 22  1  0  0  0  0
  7  8  1  0  0  0  0
  7  9  1  0  0  0  0
 26 27  1  0  0  0  0
 26 28  1  0  0  0  0
 26 29  1  0  0  0  0
 24 25  1  0  0  0  0
 24 26  1  0  0  0  0
M  END
$$$$
default_name
  -OEChem-01062215323D

 29 29  0     1  0  0  0  0  0999 V2000
   -3.6042   -3.5728    1.4576 H   0  0  0  0  0  0  0  0  0  0  0  0
   -3.5202   -2.6488    0.8866 C   0  0  0  0  0  0  0  0  0  0  0  0
   -4.2052   -1.9048    1.2896 H   0  0  0  0  0  0  0  0  0  0  0  0
   -3.7552   -2.8428   -0.1584 H   0  0  0  0  0  0  0  0  0  0  0  0
   -2.1052   -2.1358    0.9946 C   0  0  0  0  0  0  0  0  0  0  0  0
   -1.2852   -2.7288    1.6826 O   0  0  0  0  0  0  0  0  0  0  0  0
   -1.8202   -1.0288    0.3146 N   0  0  0  0  0  0  0  0  0  0  0  0
   -2.5542   -0.5788   -0.2104 H   0  0  0  0  0  0  0  0  0  0  0  0
   -0.5102   -0.3728    0.3086 C   0  0  1  0  0  0  0  0  0  0  0  0
   -0.6583    0.7043    0.4001 H   0  0  0  0  0  0  0  0  0  0  0  0
    0.2990   -0.8499    1.5287 C   0  0  0  0  0  0  0  0  0  0  0  0
    0.3852   -1.9375    1.4972 H   0  0  0  0  0  0  0  0  0  0  0  0
    1.3058   -0.4318    1.4734 H   0  0  0  0  0  0  0  0  0  0  0  0
   -0.3105   -0.4555    2.8490 C   0  0  0  0  0  0  0  0  0  0  0  0
   -0.2953    0.8031    3.4110 N   0  0  0  0  0  0  0  0  0  0  0  0
    0.1915    1.6099    3.0502 H   0  0  0  0  0  0  0  0  0  0  0  0
   -1.0392    0.7677    4.5294 C   0  0  0  0  0  0  0  0  0  0  0  0
   -1.2115    1.6060    5.1934 H   0  0  0  0  0  0  0  0  0  0  0  0
   -1.5475   -0.4599    4.7105 N   0  0  0  0  0  0  0  0  0  0  0  0
   -1.0880   -1.2472    3.6514 C   0  0  0  0  0  0  0  0  0  0  0  0
   -1.3320   -2.2869    3.4753 H   0  0  0  0  0  0  0  0  0  0  0  0
    0.2266   -0.6355   -1.0157 C   0  0  0  0  0  0  0  0  0  0  0  0
    0.0714    0.1240   -1.9717 O   0  0  0  0  0  0  0  0  0  0  0  0
    1.0128   -1.7174   -1.0788 N   0  0  0  0  0  0  0  0  0  0  0  0
    1.0454   -2.3208   -0.2703 H   0  0  0  0  0  0  0  0  0  0  0  0
    1.7858   -2.1083   -2.2548 C   0  0  0  0  0  0  0  0  0  0  0  0
    2.4873   -1.3131   -2.5169 H   0  0  0  0  0  0  0  0  0  0  0  0
    2.3416   -3.0240   -2.0506 H   0  0  0  0  0  0  0  0  0  0  0  0
    1.1164   -2.2743   -3.1003 H   0  0  0  0  0  0  0  0  0  0  0  0
  5  6  2  0  0  0  0
  5  7  1  0  0  0  0
  2  3  1  0  0  0  0
  2  4  1  0  0  0  0
  2  5  1  0  0  0  0
  1  2  1  0  0  0  0
 22 23  2  0  0  0  0
 22 24  1  0  0  0  0
 20 21  1  0  0  0  0
 19 20  1  0  0  0  0
 17 18  1  0  0  0  0
 17 19  2  0  0  0  0
 15 16  1  0  0  0  0
 15 17  1  0  0  0  0
 14 15  1  0  0  0  0
 14 20  2  0  0  0  0
 11 12  1  0  0  0  0
 11 13  1  0  0  0  0
 11 14  1  0  0  0  0
  9 10  1  0  0  0  0
  9 11  1  0  0  0  0
  9 22  1  0  0  0  0
  7  8  1  0  0  0  0
  7  9  1  0  0  0  0
 26 27  1  0  0  0  0
 26 28  1  0  0  0  0
 26 29  1  0  0  0  0
 24 25  1  0  0  0  0
 24 26  1  0  0  0  0
M  END
$$$$
default_name
  -OEChem-01062215323D

 29 29  0     1  0  0  0  0  0999 V2000
   -3.6042   -3.5728    1.4576 H   0  0  0  0  0  0  0  0  0  0  0  0
   -3.5202   -2.6488    0.8866 C   0  0  0  0  0  0  0  0  0  0  0  0
   -4.2052   -1.9048    1.2896 H   0  0  0  0  0  0  0  0  0  0  0  0
   -3.7552   -2.8428   -0.1584 H   0  0  0  0  0  0  0  0  0  0  0  0
   -2.1052   -2.1358    0.9946 C   0  0  0  0  0  0  0  0  0  0  0  0
   -1.2852   -2.7288    1.6826 O   0  0  0  0  0  0  0  0  0  0  0  0
   -1.8202   -1.0288    0.3146 N   0  0  0  0  0  0  0  0  0  0  0  0
   -2.5542   -0.5788   -0.2104 H   0  0  0  0  0  0  0  0  0  0  0  0
   -0.5102   -0.3728    0.3086 C   0  0  1  0  0  0  0  0  0  0  0  0
   -0.6583    0.7043    0.4001 H   0  0  0  0  0  0  0  0  0  0  0  0
    0.2990   -0.8499    1.5287 C   0  0  0  0  0  0  0  0  0  0  0  0
    0.3852   -1.9375    1.4972 H   0  0  0  0  0  0  0  0  0  0  0  0
    1.3058   -0.4318    1.4734 H   0  0  0  0  0  0  0  0  0  0  0  0
   -0.3105   -0.4555    2.8490 C   0  0  0  0  0  0  0  0  0  0  0  0
   -0.2953    0.8031    3.4110 N   0  0  0  0  0  0  0  0  0  0  0  0
    0.1915    1.6099    3.0502 H   0  0  0  0  0  0  0  0  0  0  0  0
   -1.0392    0.7677    4.5294 C   0  0  0  0  0  0  0  0  0  0  0  0
   -1.2115    1.6060    5.1934 H   0  0  0  0  0  0  0  0  0  0  0  0
   -1.5475   -0.4599    4.7105 N   0  0  0  0  0  0  0  0  0  0  0  0
   -1.0880   -1.2472    3.6514 C   0  0  0  0  0  0  0  0  0  0  0  0
   -1.3320   -2.2869    3.4753 H   0  0  0  0  0  0  0  0  0  0  0  0
    0.2266   -0.6355   -1.0157 C   0  0  0  0  0  0  0  0  0  0  0  0
    0.2983    0.2477   -1.8699 O   0  0  0  0  0  0  0  0  0  0  0  0
    0.7578   -1.8515   -1.1941 N   0  0  0  0  0  0  0  0  0  0  0  0
    0.6096   -2.5385   -0.4696 H   0  0  0  0  0  0  0  0  0  0  0  0
    1.4930   -2.2640   -2.3868 C   0  0  0  0  0  0  0  0  0  0  0  0
    2.3663   -1.6221   -2.5229 H   0  0  0  0  0  0  0  0  0  0  0  0
    1.8207   -3.2990   -2.2858 H   0  0  0  0  0  0  0  0  0  0  0  0
    0.8539   -2.1728   -3.2665 H   0  0  0  0  0  0  0  0  0  0  0  0
  5  6  2  0  0  0  0
  5  7  1  0  0  0  0
  2  3  1  0  0  0  0
  2  4  1  0  0  0  0
  2  5  1  0  0  0  0
  1  2  1  0  0  0  0
 22 23  2  0  0  0  0
 22 24  1  0  0  0  0
 20 21  1  0  0  0  0
 19 20  1  0  0  0  0
 17 18  1  0  0  0  0
 17 19  2  0  0  0  0
 15 16  1  0  0  0  0
 15 17  1  0  0  0  0
 14 15  1  0  0  0  0
 14 20  2  0  0  0  0
 11 12  1  0  0  0  0
 11 13  1  0  0  0  0
 11 14  1  0  0  0  0
  9 10  1  0  0  0  0
  9 11  1  0  0  0  0
  9 22  1  0  0  0  0
  7  8  1  0  0  0  0
  7  9  1  0  0  0  0
 26 27  1  0  0  0  0
 26 28  1  0  0  0  0
 26 29  1  0  0  0  0
 24 25  1  0  0  0  0
 24 26  1  0  0  0  0
M  END
$$$$
default_name
  -OEChem-01062215323D

 29 29  0     1  0  0  0  0  0999 V2000
   -3.6042   -3.5728    1.4576 H   0  0  0  0  0  0  0  0  0  0  0  0
   -3.5202   -2.6488    0.8866 C   0  0  0  0  0  0  0  0  0  0  0  0
   -4.2052   -1.9048    1.2896 H   0  0  0  0  0  0  0  0  0  0  0  0
   -3.7552   -2.8428   -0.1584 H   0  0  0  0  0  0  0  0  0  0  0  0
   -2.1052   -2.1358    0.9946 C   0  0  0  0  0  0  0  0  0  0  0  0
   -1.2852   -2.7288    1.6826 O   0  0  0  0  0  0  0  0  0  0  0  0
   -1.8202   -1.0288    0.3146 N   0  0  0  0  0  0  0  0  0  0  0  0
   -2.5542   -0.5788   -0.2104 H   0  0  0  0  0  0  0  0  0  0  0  0
   -0.5102   -0.3728    0.3086 C   0  0  1  0  0  0  0  0  0  0  0  0
   -0.6583    0.7043    0.4001 H   0  0  0  0  0  0  0  0  0  0  0  0
    0.2990   -0.8499    1.5287 C   0  0  0  0  0  0  0  0  0  0  0  0
    0.3852   -1.9375    1.4972 H   0  0  0  0  0  0  0  0  0  0  0  0
    1.3058   -0.4318    1.4734 H   0  0  0  0  0  0  0  0  0  0  0  0
   -0.3105   -0.4555    2.8490 C   0  0  0  0  0  0  0  0  0  0  0  0
   -0.2953    0.8031    3.4110 N   0  0  0  0  0  0  0  0  0  0  0  0
    0.1915    1.6099    3.0502 H   0  0  0  0  0  0  0  0  0  0  0  0
   -1.0392    0.7677    4.5294 C   0  0  0  0  0  0  0  0  0  0  0  0
   -1.2115    1.6060    5.1934 H   0  0  0  0  0  0  0  0  0  0  0  0
   -1.5475   -0.4599    4.7105 N   0  0  0  0  0  0  0  0  0  0  0  0
   -1.0880   -1.2472    3.6514 C   0  0  0  0  0  0  0  0  0  0  0  0
   -1.3320   -2.2869    3.4753 H   0  0  0  0  0  0  0  0  0  0  0  0
    0.2266   -0.6355   -1.0157 C   0  0  0  0  0  0  0  0  0  0  0  0
    0.5405    0.3039   -1.7463 O   0  0  0  0  0  0  0  0  0  0  0  0
    0.4867   -1.9099   -1.3334 N   0  0  0  0  0  0  0  0  0  0  0  0
    0.1490   -2.6270   -0.7083 H   0  0  0  0  0  0  0  0  0  0  0  0
    1.1812   -2.3327   -2.5466 C   0  0  0  0  0  0  0  0  0  0  0  0
    2.1808   -1.8929   -2.5723 H   0  0  0  0  0  0  0  0  0  0  0  0
    1.2668   -3.4195   -2.5702 H   0  0  0  0  0  0  0  0  0  0  0  0
    0.6303   -1.9957   -3.4260 H   0  0  0  0  0  0  0  0  0  0  0  0
  5  6  2  0  0  0  0
  5  7  1  0  0  0  0
  2  3  1  0  0  0  0
  2  4  1  0  0  0  0
  2  5  1  0  0  0  0
  1  2  1  0  0  0  0
 22 23  2  0  0  0  0
 22 24  1  0  0  0  0
 20 21  1  0  0  0  0
 19 20  1  0  0  0  0
 17 18  1  0  0  0  0
 17 19  2  0  0  0  0
 15 16  1  0  0  0  0
 15 17  1  0  0  0  0
 14 15  1  0  0  0  0
 14 20  2  0  0  0  0
 11 12  1  0  0  0  0
 11 13  1  0  0  0  0
 11 14  1  0  0  0  0
  9 10  1  0  0  0  0
  9 11  1  0  0  0  0
  9 22  1  0  0  0  0
  7  8  1  0  0  0  0
  7  9  1  0  0  0  0
 26 27  1  0  0  0  0
 26 28  1  0  0  0  0
 26 29  1  0  0  0  0
 24 25  1  0  0  0  0
 24 26  1  0  0  0  0
M  END
$$$$
default_name
  -OEChem-01062215323D

 29 29  0     1  0  0  0  0  0999 V2000
   -3.6042   -3.5728    1.4576 H   0  0  0  0  0  0  0  0  0  0  0  0
   -3.5202   -2.6488    0.8866 C   0  0  0  0  0  0  0  0  0  0  0  0
   -4.2052   -1.9048    1.2896 H   0  0  0  0  0  0  0  0  0  0  0  0
   -3.7552   -2.8428   -0.1584 H   0  0  0  0  0  0  0  0  0  0  0  0
   -2.1052   -2.1358    0.9946 C   0  0  0  0  0  0  0  0  0  0  0  0
   -1.2852   -2.7288    1.6826 O   0  0  0  0  0  0  0  0  0  0  0  0
   -1.8202   -1.0288    0.3146 N   0  0  0  0  0  0  0  0  0  0  0  0
   -2.5542   -0.5788   -0.2104 H   0  0  0  0  0  0  0  0  0  0  0  0
   -0.5102   -0.3728    0.3086 C   0  0  1  0  0  0  0  0  0  0  0  0
   -0.6583    0.7043    0.4001 H   0  0  0  0  0  0  0  0  0  0  0  0
    0.2990   -0.8499    1.5287 C   0  0  0  0  0  0  0  0  0  0  0  0
    0.3852   -1.9375    1.4972 H   0  0  0  0  0  0  0  0  0  0  0  0
    1.3058   -0.4318    1.4734 H   0  0  0  0  0  0  0  0  0  0  0  0
   -0.3105   -0.4555    2.8490 C   0  0  0  0  0  0  0  0  0  0  0  0
   -0.2953    0.8031    3.4110 N   0  0  0  0  0  0  0  0  0  0  0  0
    0.1915    1.6099    3.0502 H   0  0  0  0  0  0  0  0  0  0  0  0
   -1.0392    0.7677    4.5294 C   0  0  0  0  0  0  0  0  0  0  0  0
   -1.2115    1.6060    5.1934 H   0  0  0  0  0  0  0  0  0  0  0  0
   -1.5475   -0.4599    4.7105 N   0  0  0  0  0  0  0  0  0  0  0  0
   -1.0880   -1.2472    3.6514 C   0  0  0  0  0  0  0  0  0  0  0  0
   -1.3320   -2.2869    3.4753 H   0  0  0  0  0  0  0  0  0  0  0  0
    0.2266   -0.6355   -1.0157 C   0  0  0  0  0  0  0  0  0  0  0  0
    0.7816    0.2889   -1.6092 O   0  0  0  0  0  0  0  0  0  0  0  0
    0.2179   -1.8886   -1.4871 N   0  0  0  0  0  0  0  0  0  0  0  0
   -0.3051   -2.5802   -0.9703 H   0  0  0  0  0  0  0  0  0  0  0  0
    0.8719   -2.3098   -2.7233 C   0  0  0  0  0  0  0  0  0  0  0  0
    1.9435   -2.1071   -2.6619 H   0  0  0  0  0  0  0  0  0  0  0  0
    0.7174   -3.3771   -2.8842 H   0  0  0  0  0  0  0  0  0  0  0  0
    0.4608   -1.7550   -3.5681 H   0  0  0  0  0  0  0  0  0  0  0  0
  5  6  2  0  0  0  0
  5  7  1  0  0  0  0
  2  3  1  0  0  0  0
  2  4  1  0  0  0  0
  2  5  1  0  0  0  0
  1  2  1  0  0  0  0
 22 23  2  0  0  0  0
 22 24  1  0  0  0  0
 20 21  1  0  0  0  0
 19 20  1  0  0  0  0
 17 18  1  0  0  0  0
 17 19  2  0  0  0  0
 15 16  1  0  0  0  0
 15 17  1  0  0  0  0
 14 15  1  0  0  0  0
 14 20  2  0  0  0  0
 11 12  1  0  0  0  0
 11 13  1  0  0  0  0
 11 14  1  0  0  0  0
  9 10  1  0  0  0  0
  9 11  1  0  0  0  0
  9 22  1  0  0  0  0
  7  8  1  0  0  0  0
  7  9  1  0  0  0  0
 26 27  1  0  0  0  0
 26 28  1  0  0  0  0
 26 29  1  0  0  0  0
 24 25  1  0  0  0  0
 24 26  1  0  0  0  0
M  END
$$$$
default_name
  -OEChem-01062215323D

 29 29  0     1  0  0  0  0  0999 V2000
   -3.6042   -3.5728    1.4576 H   0  0  0  0  0  0  0  0  0  0  0  0
   -3.5202   -2.6488    0.8866 C   0  0  0  0  0  0  0  0  0  0  0  0
   -4.2052   -1.9048    1.2896 H   0  0  0  0  0  0  0  0  0  0  0  0
   -3.7552   -2.8428   -0.1584 H   0  0  0  0  0  0  0  0  0  0  0  0
   -2.1052   -2.1358    0.9946 C   0  0  0  0  0  0  0  0  0  0  0  0
   -1.2852   -2.7288    1.6826 O   0  0  0  0  0  0  0  0  0  0  0  0
   -1.8202   -1.0288    0.3146 N   0  0  0  0  0  0  0  0  0  0  0  0
   -2.5542   -0.5788   -0.2104 H   0  0  0  0  0  0  0  0  0  0  0  0
   -0.5102   -0.3728    0.3086 C   0  0  1  0  0  0  0  0  0  0  0  0
   -0.6583    0.7043    0.4001 H   0  0  0  0  0  0  0  0  0  0  0  0
    0.2990   -0.8499    1.5287 C   0  0  0  0  0  0  0  0  0  0  0  0
    0.3852   -1.9375    1.4972 H   0  0  0  0  0  0  0  0  0  0  0  0
    1.3058   -0.4318    1.4734 H   0  0  0  0  0  0  0  0  0  0  0  0
   -0.3105   -0.4555    2.8490 C   0  0  0  0  0  0  0  0  0  0  0  0
   -0.2953    0.8031    3.4110 N   0  0  0  0  0  0  0  0  0  0  0  0
    0.1915    1.6099    3.0502 H   0  0  0  0  0  0  0  0  0  0  0  0
   -1.0392    0.7677    4.5294 C   0  0  0  0  0  0  0  0  0  0  0  0
   -1.2115    1.6060    5.1934 H   0  0  0  0  0  0  0  0  0  0  0  0
   -1.5475   -0.4599    4.7105 N   0  0  0  0  0  0  0  0  0  0  0  0
   -1.0880   -1.2472    3.6514 C   0  0  0  0  0  0  0  0  0  0  0  0
   -1.3320   -2.2869    3.4753 H   0  0  0  0  0  0  0  0  0  0  0  0
    0.2266   -0.6355   -1.0157 C   0  0  0  0  0  0  0  0  0  0  0  0
    1.0050    0.2038   -1.4680 O   0  0  0  0  0  0  0  0  0  0  0  0
   -0.0301   -1.7891   -1.6449 N   0  0  0  0  0  0  0  0  0  0  0  0
   -0.7217   -2.4013   -1.2376 H   0  0  0  0  0  0  0  0  0  0  0  0
    0.5860   -2.1968   -2.9048 C   0  0  0  0  0  0  0  0  0  0  0  0
    1.6705   -2.2499   -2.7854 H   0  0  0  0  0  0  0  0  0  0  0  0
    0.2101   -3.1748   -3.2066 H   0  0  0  0  0  0  0  0  0  0  0  0
    0.3570   -1.4671   -3.6829 H   0  0  0  0  0  0  0  0  0  0  0  0
  5  6  2  0  0  0  0
  5  7  1  0  0  0  0
  2  3  1  0  0  0  0
  2  4  1  0  0  0  0
  2  5  1  0  0  0  0
  1  2  1  0  0  0  0
 22 23  2  0  0  0  0
 22 24  1  0  0  0  0
 20 21  1  0  0  0  0
 19 20  1  0  0  0  0
 17 18  1  0  0  0  0
 17 19  2  0  0  0  0
 15 16  1  0  0  0  0
 15 17  1  0  0  0  0
 14 15  1  0  0  0  0
 14 20  2  0  0  0  0
 11 12  1  0  0  0  0
 11 13  1  0  0  0  0
 11 14  1  0  0  0  0
  9 10  1  0  0  0  0
  9 11  1  0  0  0  0
  9 22  1  0  0  0  0
  7  8  1  0  0  0  0
  7  9  1  0  0  0  0
 26 27  1  0  0  0  0
 26 28  1  0  0  0  0
 26 29  1  0  0  0  0
 24 25  1  0  0  0  0
 24 26  1  0  0  0  0
M  END
$$$$
default_name
  -OEChem-01062215323D

 29 29  0     1  0  0  0  0  0999 V2000
   -3.6042   -3.5728    1.4576 H   0  0  0  0  0  0  0  0  0  0  0  0
   -3.5202   -2.6488    0.8866 C   0  0  0  0  0  0  0  0  0  0  0  0
   -4.2052   -1.9048    1.2896 H   0  0  0  0  0  0  0  0  0  0  0  0
   -3.7552   -2.8428   -0.1584 H   0  0  0  0  0  0  0  0  0  0  0  0
   -2.1052   -2.1358    0.9946 C   0  0  0  0  0  0  0  0  0  0  0  0
   -1.2852   -2.7288    1.6826 O   0  0  0  0  0  0  0  0  0  0  0  0
   -1.8202   -1.0288    0.3146 N   0  0  0  0  0  0  0  0  0  0  0  0
   -2.5542   -0.5788   -0.2104 H   0  0  0  0  0  0  0  0  0  0  0  0
   -0.5102   -0.3728    0.3086 C   0  0  1  0  0  0  0  0  0  0  0  0
   -0.6583    0.7043    0.4001 H   0  0  0  0  0  0  0  0  0  0  0  0
    0.2990   -0.8499    1.5287 C   0  0  0  0  0  0  0  0  0  0  0  0
    0.3852   -1.9375    1.4972 H   0  0  0  0  0  0  0  0  0  0  0  0
    1.3058   -0.4318    1.4734 H   0  0  0  0  0  0  0  0  0  0  0  0
   -0.3105   -0.4555    2.8490 C   0  0  0  0  0  0  0  0  0  0  0  0
   -0.2953    0.8031    3.4110 N   0  0  0  0  0  0  0  0  0  0  0  0
    0.1915    1.6099    3.0502 H   0  0  0  0  0  0  0  0  0  0  0  0
   -1.0392    0.7677    4.5294 C   0  0  0  0  0  0  0  0  0  0  0  0
   -1.2115    1.6060    5.1934 H   0  0  0  0  0  0  0  0  0  0  0  0
   -1.5475   -0.4599    4.7105 N   0  0  0  0  0  0  0  0  0  0  0  0
   -1.0880   -1.2472    3.6514 C   0  0  0  0  0  0  0  0  0  0  0  0
   -1.3320   -2.2869    3.4753 H   0  0  0  0  0  0  0  0  0  0  0  0
    0.2266   -0.6355   -1.0157 C   0  0  0  0  0  0  0  0  0  0  0  0
    1.1956    0.0542   -1.3323 O   0  0  0  0  0  0  0  0  0  0  0  0
   -0.2406   -1.6181   -1.7959 N   0  0  0  0  0  0  0  0  0  0  0  0
   -1.0725   -2.1025   -1.4920 H   0  0  0  0  0  0  0  0  0  0  0  0
    0.3431   -2.0015   -3.0787 C   0  0  0  0  0  0  0  0  0  0  0  0
    1.3805   -2.3117   -2.9346 H   0  0  0  0  0  0  0  0  0  0  0  0
   -0.2206   -2.8264   -3.5154 H   0  0  0  0  0  0  0  0  0  0  0  0
    0.3260   -1.1517   -3.7628 H   0  0  0  0  0  0  0  0  0  0  0  0
  5  6  2  0  0  0  0
  5  7  1  0  0  0  0
  2  3  1  0  0  0  0
  2  4  1  0  0  0  0
  2  5  1  0  0  0  0
  1  2  1  0  0  0  0
 22 23  2  0  0  0  0
 22 24  1  0  0  0  0
 20 21  1  0  0  0  0
 19 20  1  0  0  0  0
 17 18  1  0  0  0  0
 17 19  2  0  0  0  0
 15 16  1  0  0  0  0
 15 17  1  0  0  0  0
 14 15  1  0  0  0  0
 14 20  2  0  0  0  0
 11 12  1  0  0  0  0
 11 13  1  0  0  0  0
 11 14  1  0  0  0  0
  9 10  1  0  0  0  0
  9 11  1  0  0  0  0
  9 22  1  0  0  0  0
  7  8  1  0  0  0  0
  7  9  1  0  0  0  0
 26 27  1  0  0  0  0
 26 28  1  0  0  0  0
 26 29  1  0  0  0  0
 24 25  1  0  0  0  0
 24 26  1  0  0  0  0
M  END
$$$$
default_name
  -OEChem-01062215323D

 29 29  0     1  0  0  0  0  0999 V2000
   -3.6042   -3.5728    1.4576 H   0  0  0  0  0  0  0  0  0  0  0  0
   -3.5202   -2.6488    0.8866 C   0  0  0  0  0  0  0  0  0  0  0  0
   -4.2052   -1.9048    1.2896 H   0  0  0  0  0  0  0  0  0  0  0  0
   -3.7552   -2.8428   -0.1584 H   0  0  0  0  0  0  0  0  0  0  0  0
   -2.1052   -2.1358    0.9946 C   0  0  0  0  0  0  0  0  0  0  0  0
   -1.2852   -2.7288    1.6826 O   0  0  0  0  0  0  0  0  0  0  0  0
   -1.8202   -1.0288    0.3146 N   0  0  0  0  0  0  0  0  0  0  0  0
   -2.5542   -0.5788   -0.2104 H   0  0  0  0  0  0  0  0  0  0  0  0
   -0.5102   -0.3728    0.3086 C   0  0  1  0  0  0  0  0  0  0  0  0
   -0.6583    0.7043    0.4001 H   0  0  0  0  0  0  0  0  0  0  0  0
    0.2990   -0.8499    1.5287 C   0  0  0  0  0  0  0  0  0  0  0  0
    0.3852   -1.9375    1.4972 H   0  0  0  0  0  0  0  0  0  0  0  0
    1.3058   -0.4318    1.4734 H   0  0  0  0  0  0  0  0  0  0  0  0
   -0.3105   -0.4555    2.8490 C   0  0  0  0  0  0  0  0  0  0  0  0
   -0.2953    0.8031    3.4110 N   0  0  0  0  0  0  0  0  0  0  0  0
    0.1915    1.6099    3.0502 H   0  0  0  0  0  0  0  0  0  0  0  0
   -1.0392    0.7677    4.5294 C   0  0  0  0  0  0  0  0  0  0  0  0
   -1.2115    1.6060    5.1934 H   0  0  0  0  0  0  0  0  0  0  0  0
   -1.5475   -0.4599    4.7105 N   0  0  0  0  0  0  0  0  0  0  0  0
   -1.0880   -1.2472    3.6514 C   0  0  0  0  0  0  0  0  0  0  0  0
   -1.3320   -2.2869    3.4753 H   0  0  0  0  0  0  0  0  0  0  0  0
    0.2266   -0.6355   -1.0157 C   0  0  0  0  0  0  0  0  0  0  0  0
    1.3404   -0.1496   -1.2113 O   0  0  0  0  0  0  0  0  0  0  0  0
   -0.3991   -1.3874   -1.9299 N   0  0  0  0  0  0  0  0  0  0  0  0
   -1.3334   -1.7042   -1.7163 H   0  0  0  0  0  0  0  0  0  0  0  0
    0.1597   -1.7371   -3.2332 C   0  0  0  0  0  0  0  0  0  0  0  0
    1.0932   -2.2883   -3.0991 H   0  0  0  0  0  0  0  0  0  0  0  0
   -0.5453   -2.3556   -3.7895 H   0  0  0  0  0  0  0  0  0  0  0  0
    0.3699   -0.8302   -3.8022 H   0  0  0  0  0  0  0  0  0  0  0  0
  5  6  2  0  0  0  0
  5  7  1  0  0  0  0
  2  3  1  0  0  0  0
  2  4  1  0  0  0  0
  2  5  1  0  0  0  0
  1  2  1  0  0  0  0
 22 23  2  0  0  0  0
 22 24  1  0  0  0  0
 20 21  1  0  0  0  0
 19 20  1  0  0  0  0
 17 18  1  0  0  0  0
 17 19  2  0  0  0  0
 15 16  1  0  0  0  0
 15 17  1  0  0  0  0
 14 15  1  0  0  0  0
 14 20  2  0  0  0  0
 11 12  1  0  0  0  0
 11 13  1  0  0  0  0
 11 14  1  0  0  0  0
  9 10  1  0  0  0  0
  9 11  1  0  0  0  0
  9 22  1  0  0  0  0
  7  8  1  0  0  0  0
  7  9  1  0  0  0  0
 26 27  1  0  0  0  0
 26 28  1  0  0  0  0
 26 29  1  0  0  0  0
 24 25  1  0  0  0  0
 24 26  1  0  0  0  0
M  END
$$$$
default_name
  -OEChem-01062215323D

 29 29  0     1  0  0  0  0  0999 V2000
   -3.6042   -3.5728    1.4576 H   0  0  0  0  0  0  0  0  0  0  0  0
   -3.5202   -2.6488    0.8866 C   0  0  0  0  0  0  0  0  0  0  0  0
   -4.2052   -1.9048    1.2896 H   0  0  0  0  0  0  0  0  0  0  0  0
   -3.7552   -2.8428   -0.1584 H   0  0  0  0  0  0  0  0  0  0  0  0
   -2.1052   -2.1358    0.9946 C   0  0  0  0  0  0  0  0  0  0  0  0
   -1.2852   -2.7288    1.6826 O   0  0  0  0  0  0  0  0  0  0  0  0
   -1.8202   -1.0288    0.3146 N   0  0  0  0  0  0  0  0  0  0  0  0
   -2.5542   -0.5788   -0.2104 H   0  0  0  0  0  0  0  0  0  0  0  0
   -0.5102   -0.3728    0.3086 C   0  0  1  0  0  0  0  0  0  0  0  0
   -0.6583    0.7043    0.4001 H   0  0  0  0  0  0  0  0  0  0  0  0
    0.2990   -0.8499    1.5287 C   0  0  0  0  0  0  0  0  0  0  0  0
    0.3852   -1.9375    1.4972 H   0  0  0  0  0  0  0  0  0  0  0  0
    1.3058   -0.4318    1.4734 H   0  0  0  0  0  0  0  0  0  0  0  0
   -0.3105   -0.4555    2.8490 C   0  0  0  0  0  0  0  0  0  0  0  0
   -0.2953    0.8031    3.4110 N   0  0  0  0  0  0  0  0  0  0  0  0
    0.1915    1.6099    3.0502 H   0  0  0  0  0  0  0  0  0  0  0  0
   -1.0392    0.7677    4.5294 C   0  0  0  0  0  0  0  0  0  0  0  0
   -1.2115    1.6060    5.1934 H   0  0  0  0  0  0  0  0  0  0  0  0
   -1.5475   -0.4599    4.7105 N   0  0  0  0  0  0  0  0  0  0  0  0
   -1.0880   -1.2472    3.6514 C   0  0  0  0  0  0  0  0  0  0  0  0
   -1.3320   -2.2869    3.4753 H   0  0  0  0  0  0  0  0  0  0  0  0
    0.2266   -0.6355   -1.0157 C   0  0  0  0  0  0  0  0  0  0  0  0
    1.4295   -0.3937   -1.1133 O   0  0  0  0  0  0  0  0  0  0  0  0
   -0.4948   -1.1126   -2.0377 N   0  0  0  0  0  0  0  0  0  0  0  0
   -1.4868   -1.2335   -1.8950 H   0  0  0  0  0  0  0  0  0  0  0  0
    0.0482   -1.4218   -3.3578 C   0  0  0  0  0  0  0  0  0  0  0  0
    0.8281   -2.1813   -3.2678 H   0  0  0  0  0  0  0  0  0  0  0  0
   -0.7419   -1.7945   -4.0102 H   0  0  0  0  0  0  0  0  0  0  0  0
    0.4857   -0.5245   -3.7984 H   0  0  0  0  0  0  0  0  0  0  0  0
  5  6  2  0  0  0  0
  5  7  1  0  0  0  0
  2  3  1  0  0  0  0
  2  4  1  0  0  0  0
  2  5  1  0  0  0  0
  1  2  1  0  0  0  0
 22 23  2  0  0  0  0
 22 24  1  0  0  0  0
 20 21  1  0  0  0  0
 19 20  1  0  0  0  0
 17 18  1  0  0  0  0
 17 19  2  0  0  0  0
 15 16  1  0  0  0  0
 15 17  1  0  0  0  0
 14 15  1  0  0  0  0
 14 20  2  0  0  0  0
 11 12  1  0  0  0  0
 11 13  1  0  0  0  0
 11 14  1  0  0  0  0
  9 10  1  0  0  0  0
  9 11  1  0  0  0  0
  9 22  1  0  0  0  0
  7  8  1  0  0  0  0
  7  9  1  0  0  0  0
 26 27  1  0  0  0  0
 26 28  1  0  0  0  0
 26 29  1  0  0  0  0
 24 25  1  0  0  0  0
 24 26  1  0  0  0  0
M  END
$$$$
default_name
  -OEChem-01062215323D

 29 29  0     1  0  0  0  0  0999 V2000
   -3.6042   -3.5728    1.4576 H   0  0  0  0  0  0  0  0  0  0  0  0
   -3.5202   -2.6488    0.8866 C   0  0  0  0  0  0  0  0  0  0  0  0
   -4.2052   -1.9048    1.2896 H   0  0  0  0  0  0  0  0  0  0  0  0
   -3.7552   -2.8428   -0.1584 H   0  0  0  0  0  0  0  0  0  0  0  0
   -2.1052   -2.1358    0.9946 C   0  0  0  0  0  0  0  0  0  0  0  0
   -1.2852   -2.7288    1.6826 O   0  0  0  0  0  0  0  0  0  0  0  0
   -1.8202   -1.0288    0.3146 N   0  0  0  0  0  0  0  0  0  0  0  0
   -2.5542   -0.5788   -0.2104 H   0  0  0  0  0  0  0  0  0  0  0  0
   -0.5102   -0.3728    0.3086 C   0  0  1  0  0  0  0  0  0  0  0  0
   -0.6583    0.7043    0.4001 H   0  0  0  0  0  0  0  0  0  0  0  0
    0.2990   -0.8499    1.5287 C   0  0  0  0  0  0  0  0  0  0  0  0
    0.3852   -1.9375    1.4972 H   0  0  0  0  0  0  0  0  0  0  0  0
    1.3058   -0.4318    1.4734 H   0  0  0  0  0  0  0  0  0  0  0  0
   -0.3105   -0.4555    2.8490 C   0  0  0  0  0  0  0  0  0  0  0  0
   -0.2953    0.8031    3.4110 N   0  0  0  0  0  0  0  0  0  0  0  0
    0.1915    1.6099    3.0502 H   0  0  0  0  0  0  0  0  0  0  0  0
   -1.0392    0.7677    4.5294 C   0  0  0  0  0  0  0  0  0  0  0  0
   -1.2115    1.6060    5.1934 H   0  0  0  0  0  0  0  0  0  0  0  0
   -1.5475   -0.4599    4.7105 N   0  0  0  0  0  0  0  0  0  0  0  0
   -1.0880   -1.2472    3.6514 C   0  0  0  0  0  0  0  0  0  0  0  0
   -1.3320   -2.2869    3.4753 H   0  0  0  0  0  0  0  0  0  0  0  0
    0.2266   -0.6355   -1.0157 C   0  0  0  0  0  0  0  0  0  0  0  0
    1.4568   -0.6615   -1.0450 O   0  0  0  0  0  0  0  0  0  0  0  0
   -0.5213   -0.8124   -2.1120 N   0  0  0  0  0  0  0  0  0  0  0  0
   -1.5222   -0.7225   -2.0161 H   0  0  0  0  0  0  0  0  0  0  0  0
    0.0163   -1.0768   -3.4440 C   0  0  0  0  0  0  0  0  0  0  0  0
    0.6034   -1.9979   -3.4292 H   0  0  0  0  0  0  0  0  0  0  0  0
   -0.7971   -1.1814   -4.1626 H   0  0  0  0  0  0  0  0  0  0  0  0
    0.6654   -0.2555   -3.7517 H   0  0  0  0  0  0  0  0  0  0  0  0
  5  6  2  0  0  0  0
  5  7  1  0  0  0  0
  2  3  1  0  0  0  0
  2  4  1  0  0  0  0
  2  5  1  0  0  0  0
  1  2  1  0  0  0  0
 22 23  2  0  0  0  0
 22 24  1  0  0  0  0
 20 21  1  0  0  0  0
 19 20  1  0  0  0  0
 17 18  1  0  0  0  0
 17 19  2  0  0  0  0
 15 16  1  0  0  0  0
 15 17  1  0  0  0  0
 14 15  1  0  0  0  0
 14 20  2  0  0  0  0
 11 12  1  0  0  0  0
 11 13  1  0  0  0  0
 11 14  1  0  0  0  0
  9 10  1  0  0  0  0
  9 11  1  0  0  0  0
  9 22  1  0  0  0  0
  7  8  1  0  0  0  0
  7  9  1  0  0  0  0
 26 27  1  0  0  0  0
 26 28  1  0  0  0  0
 26 29  1  0  0  0  0
 24 25  1  0  0  0  0
 24 26  1  0  0  0  0
M  END
$$$$
default_name
  -OEChem-01062215323D

 29 29  0     1  0  0  0  0  0999 V2000
   -3.6042   -3.5728    1.4576 H   0  0  0  0  0  0  0  0  0  0  0  0
   -3.5202   -2.6488    0.8866 C   0  0  0  0  0  0  0  0  0  0  0  0
   -4.2052   -1.9048    1.2896 H   0  0  0  0  0  0  0  0  0  0  0  0
   -3.7552   -2.8428   -0.1584 H   0  0  0  0  0  0  0  0  0  0  0  0
   -2.1052   -2.1358    0.9946 C   0  0  0  0  0  0  0  0  0  0  0  0
   -1.2852   -2.7288    1.6826 O   0  0  0  0  0  0  0  0  0  0  0  0
   -1.8202   -1.0288    0.3146 N   0  0  0  0  0  0  0  0  0  0  0  0
   -2.5542   -0.5788   -0.2104 H   0  0  0  0  0  0  0  0  0  0  0  0
   -0.5102   -0.3728    0.3086 C   0  0  1  0  0  0  0  0  0  0  0  0
   -0.6583    0.7043    0.4001 H   0  0  0  0  0  0  0  0  0  0  0  0
    0.2990   -0.8499    1.5287 C   0  0  0  0  0  0  0  0  0  0  0  0
    0.3852   -1.9375    1.4972 H   0  0  0  0  0  0  0  0  0  0  0  0
    1.3058   -0.4318    1.4734 H   0  0  0  0  0  0  0  0  0  0  0  0
   -0.3105   -0.4555    2.8490 C   0  0  0  0  0  0  0  0  0  0  0  0
   -0.2953    0.8031    3.4110 N   0  0  0  0  0  0  0  0  0  0  0  0
    0.1915    1.6099    3.0502 H   0  0  0  0  0  0  0  0  0  0  0  0
   -1.0392    0.7677    4.5294 C   0  0  0  0  0  0  0  0  0  0  0  0
   -1.2115    1.6060    5.1934 H   0  0  0  0  0  0  0  0  0  0  0  0
   -1.5475   -0.4599    4.7105 N   0  0  0  0  0  0  0  0  0  0  0  0
   -1.0880   -1.2472    3.6514 C   0  0  0  0  0  0  0  0  0  0  0  0
   -1.3320   -2.2869    3.4753 H   0  0  0  0  0  0  0  0  0  0  0  0
    0.2266   -0.6355   -1.0157 C   0  0  0  0  0  0  0  0  0  0  0  0
    1.4205   -0.9347   -1.0110 O   0  0  0  0  0  0  0  0  0  0  0  0
   -0.4767   -0.5074   -2.1477 N   0  0  0  0  0  0  0  0  0  0  0  0
   -1.4371   -0.2060   -2.0712 H   0  0  0  0  0  0  0  0  0  0  0  0
    0.0662   -0.7259   -3.4858 C   0  0  0  0  0  0  0  0  0  0  0  0
    0.4343   -1.7507   -3.5724 H   0  0  0  0  0  0  0  0  0  0  0  0
   -0.7070   -0.5579   -4.2361 H   0  0  0  0  0  0  0  0  0  0  0  0
    0.8969   -0.0416   -3.6654 H   0  0  0  0  0  0  0  0  0  0  0  0
  5  6  2  0  0  0  0
  5  7  1  0  0  0  0
  2  3  1  0  0  0  0
  2  4  1  0  0  0  0
  2  5  1  0  0  0  0
  1  2  1  0  0  0  0
 22 23  2  0  0  0  0
 22 24  1  0  0  0  0
 20 21  1  0  0  0  0
 19 20  1  0  0  0  0
 17 18  1  0  0  0  0
 17 19  2  0  0  0  0
 15 16  1  0  0  0  0
 15 17  1  0  0  0  0
 14 15  1  0  0  0  0
 14 20  2  0  0  0  0
 11 12  1  0  0  0  0
 11 13  1  0  0  0  0
 11 14  1  0  0  0  0
  9 10  1  0  0  0  0
  9 11  1  0  0  0  0
  9 22  1  0  0  0  0
  7  8  1  0  0  0  0
  7  9  1  0  0  0  0
 26 27  1  0  0  0  0
 26 28  1  0  0  0  0
 26 29  1  0  0  0  0
 24 25  1  0  0  0  0
 24 26  1  0  0  0  0
M  END
$$$$
default_name
  -OEChem-01062215323D

 29 29  0     1  0  0  0  0  0999 V2000
   -3.6042   -3.5728    1.4576 H   0  0  0  0  0  0  0  0  0  0  0  0
   -3.5202   -2.6488    0.8866 C   0  0  0  0  0  0  0  0  0  0  0  0
   -4.2052   -1.9048    1.2896 H   0  0  0  0  0  0  0  0  0  0  0  0
   -3.7552   -2.8428   -0.1584 H   0  0  0  0  0  0  0  0  0  0  0  0
   -2.1052   -2.1358    0.9946 C   0  0  0  0  0  0  0  0  0  0  0  0
   -1.2852   -2.7288    1.6826 O   0  0  0  0  0  0  0  0  0  0  0  0
   -1.8202   -1.0288    0.3146 N   0  0  0  0  0  0  0  0  0  0  0  0
   -2.5542   -0.5788   -0.2104 H   0  0  0  0  0  0  0  0  0  0  0  0
   -0.5102   -0.3728    0.3086 C   0  0  1  0  0  0  0  0  0  0  0  0
   -0.6583    0.7043    0.4001 H   0  0  0  0  0  0  0  0  0  0  0  0
    0.2990   -0.8499    1.5287 C   0  0  0  0  0  0  0  0  0  0  0  0
    0.3852   -1.9375    1.4972 H   0  0  0  0  0  0  0  0  0  0  0  0
    1.3058   -0.4318    1.4734 H   0  0  0  0  0  0  0  0  0  0  0  0
   -0.3105   -0.4555    2.8490 C   0  0  0  0  0  0  0  0  0  0  0  0
   -0.2953    0.8031    3.4110 N   0  0  0  0  0  0  0  0  0  0  0  0
    0.1915    1.6099    3.0502 H   0  0  0  0  0  0  0  0  0  0  0  0
   -1.0392    0.7677    4.5294 C   0  0  0  0  0  0  0  0  0  0  0  0
   -1.2115    1.6060    5.1934 H   0  0  0  0  0  0  0  0  0  0  0  0
   -1.5475   -0.4599    4.7105 N   0  0  0  0  0  0  0  0  0  0  0  0
   -1.0880   -1.2472    3.6514 C   0  0  0  0  0  0  0  0  0  0  0  0
   -1.3320   -2.2869    3.4753 H   0  0  0  0  0  0  0  0  0  0  0  0
    0.2266   -0.6355   -1.0157 C   0  0  0  0  0  0  0  0  0  0  0  0
    1.3230   -1.1948   -1.0136 O   0  0  0  0  0  0  0  0  0  0  0  0
   -0.3641   -0.2182   -2.1424 N   0  0  0  0  0  0  0  0  0  0  0  0
   -1.2374    0.2808   -2.0567 H   0  0  0  0  0  0  0  0  0  0  0  0
    0.1945   -0.3928   -3.4806 C   0  0  0  0  0  0  0  0  0  0  0  0
    0.3324   -1.4564   -3.6874 H   0  0  0  0  0  0  0  0  0  0  0  0
   -0.4777    0.0333   -4.2259 H   0  0  0  0  0  0  0  0  0  0  0  0
    1.1644    0.1028   -3.5452 H   0  0  0  0  0  0  0  0  0  0  0  0
  5  6  2  0  0  0  0
  5  7  1  0  0  0  0
  2  3  1  0  0  0  0
  2  4  1  0  0  0  0
  2  5  1  0  0  0  0
  1  2  1  0  0  0  0
 22 23  2  0  0  0  0
 22 24  1  0  0  0  0
 20 21  1  0  0  0  0
 19 20  1  0  0  0  0
 17 18  1  0  0  0  0
 17 19  2  0  0  0  0
 15 16  1  0  0  0  0
 15 17  1  0  0  0  0
 14 15  1  0  0  0  0
 14 20  2  0  0  0  0
 11 12  1  0  0  0  0
 11 13  1  0  0  0  0
 11 14  1  0  0  0  0
  9 10  1  0  0  0  0
  9 11  1  0  0  0  0
  9 22  1  0  0  0  0
  7  8  1  0  0  0  0
  7  9  1  0  0  0  0
 26 27  1  0  0  0  0
 26 28  1  0  0  0  0
 26 29  1  0  0  0  0
 24 25  1  0  0  0  0
 24 26  1  0  0  0  0
M  END
$$$$
default_name
  -OEChem-01062215323D

 29 29  0     1  0  0  0  0  0999 V2000
   -3.6042   -3.5728    1.4576 H   0  0  0  0  0  0  0  0  0  0  0  0
   -3.5202   -2.6488    0.8866 C   0  0  0  0  0  0  0  0  0  0  0  0
   -4.2052   -1.9048    1.2896 H   0  0  0  0  0  0  0  0  0  0  0  0
   -3.7552   -2.8428   -0.1584 H   0  0  0  0  0  0  0  0  0  0  0  0
   -2.1052   -2.1358    0.9946 C   0  0  0  0  0  0  0  0  0  0  0  0
   -1.2852   -2.7288    1.6826 O   0  0  0  0  0  0  0  0  0  0  0  0
   -1.8202   -1.0288    0.3146 N   0  0  0  0  0  0  0  0  0  0  0  0
   -2.5542   -0.5788   -0.2104 H   0  0  0  0  0  0  0  0  0  0  0  0
   -0.5102   -0.3728    0.3086 C   0  0  1  0  0  0  0  0  0  0  0  0
   -0.6583    0.7043    0.4001 H   0  0  0  0  0  0  0  0  0  0  0  0
    0.2990   -0.8499    1.5287 C   0  0  0  0  0  0  0  0  0  0  0  0
    0.3852   -1.9375    1.4972 H   0  0  0  0  0  0  0  0  0  0  0  0
    1.3058   -0.4318    1.4734 H   0  0  0  0  0  0  0  0  0  0  0  0
   -0.3105   -0.4555    2.8490 C   0  0  0  0  0  0  0  0  0  0  0  0
   -0.2953    0.8031    3.4110 N   0  0  0  0  0  0  0  0  0  0  0  0
    0.1915    1.6099    3.0502 H   0  0  0  0  0  0  0  0  0  0  0  0
   -1.0392    0.7677    4.5294 C   0  0  0  0  0  0  0  0  0  0  0  0
   -1.2115    1.6060    5.1934 H   0  0  0  0  0  0  0  0  0  0  0  0
   -1.5475   -0.4599    4.7105 N   0  0  0  0  0  0  0  0  0  0  0  0
   -1.0880   -1.2472    3.6514 C   0  0  0  0  0  0  0  0  0  0  0  0
   -1.3320   -2.2869    3.4753 H   0  0  0  0  0  0  0  0  0  0  0  0
    0.2266   -0.6355   -1.0157 C   0  0  0  0  0  0  0  0  0  0  0  0
    1.1710   -1.4239   -1.0527 O   0  0  0  0  0  0  0  0  0  0  0  0
   -0.1911    0.0353   -2.0965 N   0  0  0  0  0  0  0  0  0  0  0  0
   -0.9367    0.7046   -1.9734 H   0  0  0  0  0  0  0  0  0  0  0  0
    0.3924   -0.1003   -3.4285 C   0  0  0  0  0  0  0  0  0  0  0  0
    0.3047   -1.1353   -3.7666 H   0  0  0  0  0  0  0  0  0  0  0  0
   -0.1250    0.5521   -4.1326 H   0  0  0  0  0  0  0  0  0  0  0  0
    1.4496    0.1677   -3.3993 H   0  0  0  0  0  0  0  0  0  0  0  0
  5  6  2  0  0  0  0
  5  7  1  0  0  0  0
  2  3  1  0  0  0  0
  2  4  1  0  0  0  0
  2  5  1  0  0  0  0
  1  2  1  0  0  0  0
 22 23  2  0  0  0  0
 22 24  1  0  0  0  0
 20 21  1  0  0  0  0
 19 20  1  0  0  0  0
 17 18  1  0  0  0  0
 17 19  2  0  0  0  0
 15 16  1  0  0  0  0
 15 17  1  0  0  0  0
 14 15  1  0  0  0  0
 14 20  2  0  0  0  0
 11 12  1  0  0  0  0
 11 13  1  0  0  0  0
 11 14  1  0  0  0  0
  9 10  1  0  0  0  0
  9 11  1  0  0  0  0
  9 22  1  0  0  0  0
  7  8  1  0  0  0  0
  7  9  1  0  0  0  0
 26 27  1  0  0  0  0
 26 28  1  0  0  0  0
 26 29  1  0  0  0  0
 24 25  1  0  0  0  0
 24 26  1  0  0  0  0
M  END
$$$$
default_name
  -OEChem-01062215323D

 29 29  0     1  0  0  0  0  0999 V2000
   -3.6042   -3.5728    1.4576 H   0  0  0  0  0  0  0  0  0  0  0  0
   -3.5202   -2.6488    0.8866 C   0  0  0  0  0  0  0  0  0  0  0  0
   -4.2052   -1.9048    1.2896 H   0  0  0  0  0  0  0  0  0  0  0  0
   -3.7552   -2.8428   -0.1584 H   0  0  0  0  0  0  0  0  0  0  0  0
   -2.1052   -2.1358    0.9946 C   0  0  0  0  0  0  0  0  0  0  0  0
   -1.2852   -2.7288    1.6826 O   0  0  0  0  0  0  0  0  0  0  0  0
   -1.8202   -1.0288    0.3146 N   0  0  0  0  0  0  0  0  0  0  0  0
   -2.5542   -0.5788   -0.2104 H   0  0  0  0  0  0  0  0  0  0  0  0
   -0.5102   -0.3728    0.3086 C   0  0  1  0  0  0  0  0  0  0  0  0
   -0.6583    0.7043    0.4001 H   0  0  0  0  0  0  0  0  0  0  0  0
    0.2990   -0.8499    1.5287 C   0  0  0  0  0  0  0  0  0  0  0  0
    0.3852   -1.9375    1.4972 H   0  0  0  0  0  0  0  0  0  0  0  0
    1.3058   -0.4318    1.4734 H   0  0  0  0  0  0  0  0  0  0  0  0
   -0.3105   -0.4555    2.8490 C   0  0  0  0  0  0  0  0  0  0  0  0
   -0.2953    0.8031    3.4110 N   0  0  0  0  0  0  0  0  0  0  0  0
    0.1915    1.6099    3.0502 H   0  0  0  0  0  0  0  0  0  0  0  0
   -1.0392    0.7677    4.5294 C   0  0  0  0  0  0  0  0  0  0  0  0
   -1.2115    1.6060    5.1934 H   0  0  0  0  0  0  0  0  0  0  0  0
   -1.5475   -0.4599    4.7105 N   0  0  0  0  0  0  0  0  0  0  0  0
   -1.0880   -1.2472    3.6514 C   0  0  0  0  0  0  0  0  0  0  0  0
   -1.3320   -2.2869    3.4753 H   0  0  0  0  0  0  0  0  0  0  0  0
    0.2266   -0.6355   -1.0157 C   0  0  0  0  0  0  0  0  0  0  0  0
    0.9749   -1.6065   -1.1256 O   0  0  0  0  0  0  0  0  0  0  0  0
    0.0304    0.2360   -2.0130 N   0  0  0  0  0  0  0  0  0  0  0  0
   -0.5554    1.0367   -1.8272 H   0  0  0  0  0  0  0  0  0  0  0  0
    0.6464    0.1317   -3.3332 C   0  0  0  0  0  0  0  0  0  0  0  0
    0.3529   -0.8091   -3.8044 H   0  0  0  0  0  0  0  0  0  0  0  0
    0.3272    0.9630   -3.9625 H   0  0  0  0  0  0  0  0  0  0  0  0
    1.7332    0.1488   -3.2378 H   0  0  0  0  0  0  0  0  0  0  0  0
  5  6  2  0  0  0  0
  5  7  1  0  0  0  0
  2  3  1  0  0  0  0
  2  4  1  0  0  0  0
  2  5  1  0  0  0  0
  1  2  1  0  0  0  0
 22 23  2  0  0  0  0
 22 24  1  0  0  0  0
 20 21  1  0  0  0  0
 19 20  1  0  0  0  0
 17 18  1  0  0  0  0
 17 19  2  0  0  0  0
 15 16  1  0  0  0  0
 15 17  1  0  0  0  0
 14 15  1  0  0  0  0
 14 20  2  0  0  0  0
 11 12  1  0  0  0  0
 11 13  1  0  0  0  0
 11 14  1  0  0  0  0
  9 10  1  0  0  0  0
  9 11  1  0  0  0  0
  9 22  1  0  0  0  0
  7  8  1  0  0  0  0
  7  9  1  0  0  0  0
 26 27  1  0  0  0  0
 26 28  1  0  0  0  0
 26 29  1  0  0  0  0
 24 25  1  0  0  0  0
 24 26  1  0  0  0  0
M  END
$$$$
default_name
  -OEChem-01062215323D

 29 29  0     1  0  0  0  0  0999 V2000
   -3.6042   -3.5728    1.4576 H   0  0  0  0  0  0  0  0  0  0  0  0
   -3.5202   -2.6488    0.8866 C   0  0  0  0  0  0  0  0  0  0  0  0
   -4.2052   -1.9048    1.2896 H   0  0  0  0  0  0  0  0  0  0  0  0
   -3.7552   -2.8428   -0.1584 H   0  0  0  0  0  0  0  0  0  0  0  0
   -2.1052   -2.1358    0.9946 C   0  0  0  0  0  0  0  0  0  0  0  0
   -1.2852   -2.7288    1.6826 O   0  0  0  0  0  0  0  0  0  0  0  0
   -1.8202   -1.0288    0.3146 N   0  0  0  0  0  0  0  0  0  0  0  0
   -2.5542   -0.5788   -0.2104 H   0  0  0  0  0  0  0  0  0  0  0  0
   -0.5102   -0.3728    0.3086 C   0  0  1  0  0  0  0  0  0  0  0  0
   -0.6583    0.7043    0.4001 H   0  0  0  0  0  0  0  0  0  0  0  0
    0.2990   -0.8499    1.5287 C   0  0  0  0  0  0  0  0  0  0  0  0
    0.3852   -1.9375    1.4972 H   0  0  0  0  0  0  0  0  0  0  0  0
    1.3058   -0.4318    1.4734 H   0  0  0  0  0  0  0  0  0  0  0  0
   -0.3105   -0.4555    2.8490 C   0  0  0  0  0  0  0  0  0  0  0  0
   -0.2953    0.8031    3.4110 N   0  0  0  0  0  0  0  0  0  0  0  0
    0.1915    1.6099    3.0502 H   0  0  0  0  0  0  0  0  0  0  0  0
   -1.0392    0.7677    4.5294 C   0  0  0  0  0  0  0  0  0  0  0  0
   -1.2115    1.6060    5.1934 H   0  0  0  0  0  0  0  0  0  0  0  0
   -1.5475   -0.4599    4.7105 N   0  0  0  0  0  0  0  0  0  0  0  0
   -1.0880   -1.2472    3.6514 C   0  0  0  0  0  0  0  0  0  0  0  0
   -1.3320   -2.2869    3.4753 H   0  0  0  0  0  0  0  0  0  0  0  0
    0.2266   -0.6355   -1.0157 C   0  0  0  0  0  0  0  0  0  0  0  0
    0.7480   -1.7301   -1.2273 O   0  0  0  0  0  0  0  0  0  0  0  0
    0.2854    0.3701   -1.8977 N   0  0  0  0  0  0  0  0  0  0  0  0
   -0.1196    1.2544   -1.6279 H   0  0  0  0  0  0  0  0  0  0  0  0
    0.9392    0.2873   -3.2011 C   0  0  0  0  0  0  0  0  0  0  0  0
    0.4739   -0.5000   -3.7984 H   0  0  0  0  0  0  0  0  0  0  0  0
    0.8480    1.2380   -3.7273 H   0  0  0  0  0  0  0  0  0  0  0  0
    1.9957    0.0473   -3.0716 H   0  0  0  0  0  0  0  0  0  0  0  0
  5  6  2  0  0  0  0
  5  7  1  0  0  0  0
  2  3  1  0  0  0  0
  2  4  1  0  0  0  0
  2  5  1  0  0  0  0
  1  2  1  0  0  0  0
 22 23  2  0  0  0  0
 22 24  1  0  0  0  0
 20 21  1  0  0  0  0
 19 20  1  0  0  0  0
 17 18  1  0  0  0  0
 17 19  2  0  0  0  0
 15 16  1  0  0  0  0
 15 17  1  0  0  0  0
 14 15  1  0  0  0  0
 14 20  2  0  0  0  0
 11 12  1  0  0  0  0
 11 13  1  0  0  0  0
 11 14  1  0  0  0  0
  9 10  1  0  0  0  0
  9 11  1  0  0  0  0
  9 22  1  0  0  0  0
  7  8  1  0  0  0  0
  7  9  1  0  0  0  0
 26 27  1  0  0  0  0
 26 28  1  0  0  0  0
 26 29  1  0  0  0  0
 24 25  1  0  0  0  0
 24 26  1  0  0  0  0
M  END
$$$$
default_name
  -OEChem-01062215323D

 29 29  0     1  0  0  0  0  0999 V2000
   -3.6042   -3.5728    1.4576 H   0  0  0  0  0  0  0  0  0  0  0  0
   -3.5202   -2.6488    0.8866 C   0  0  0  0  0  0  0  0  0  0  0  0
   -4.2052   -1.9048    1.2896 H   0  0  0  0  0  0  0  0  0  0  0  0
   -3.7552   -2.8428   -0.1584 H   0  0  0  0  0  0  0  0  0  0  0  0
   -2.1052   -2.1358    0.9946 C   0  0  0  0  0  0  0  0  0  0  0  0
   -1.2852   -2.7288    1.6826 O   0  0  0  0  0  0  0  0  0  0  0  0
   -1.8202   -1.0288    0.3146 N   0  0  0  0  0  0  0  0  0  0  0  0
   -2.5542   -0.5788   -0.2104 H   0  0  0  0  0  0  0  0  0  0  0  0
   -0.5102   -0.3728    0.3086 C   0  0  1  0  0  0  0  0  0  0  0  0
   -0.6583    0.7043    0.4001 H   0  0  0  0  0  0  0  0  0  0  0  0
    0.2990   -0.8499    1.5287 C   0  0  0  0  0  0  0  0  0  0  0  0
    0.3852   -1.9375    1.4972 H   0  0  0  0  0  0  0  0  0  0  0  0
    1.3058   -0.4318    1.4734 H   0  0  0  0  0  0  0  0  0  0  0  0
   -0.3105   -0.4555    2.8490 C   0  0  0  0  0  0  0  0  0  0  0  0
   -0.2953    0.8031    3.4110 N   0  0  0  0  0  0  0  0  0  0  0  0
    0.1915    1.6099    3.0502 H   0  0  0  0  0  0  0  0  0  0  0  0
   -1.0392    0.7677    4.5294 C   0  0  0  0  0  0  0  0  0  0  0  0
   -1.2115    1.6060    5.1934 H   0  0  0  0  0  0  0  0  0  0  0  0
   -1.5475   -0.4599    4.7105 N   0  0  0  0  0  0  0  0  0  0  0  0
   -1.0880   -1.2472    3.6514 C   0  0  0  0  0  0  0  0  0  0  0  0
   -1.3320   -2.2869    3.4753 H   0  0  0  0  0  0  0  0  0  0  0  0
    0.2266   -0.6355   -1.0157 C   0  0  0  0  0  0  0  0  0  0  0  0
    0.5058   -1.7864   -1.3509 O   0  0  0  0  0  0  0  0  0  0  0  0
    0.5566    0.4285   -1.7584 N   0  0  0  0  0  0  0  0  0  0  0  0
    0.3410    1.3429   -1.3891 H   0  0  0  0  0  0  0  0  0  0  0  0
    1.2509    0.3561   -3.0413 C   0  0  0  0  0  0  0  0  0  0  0  0
    0.6594   -0.2292   -3.7490 H   0  0  0  0  0  0  0  0  0  0  0  0
    1.4019    1.3585   -3.4429 H   0  0  0  0  0  0  0  0  0  0  0  0
    2.2193   -0.1298   -2.9121 H   0  0  0  0  0  0  0  0  0  0  0  0
  5  6  2  0  0  0  0
  5  7  1  0  0  0  0
  2  3  1  0  0  0  0
  2  4  1  0  0  0  0
  2  5  1  0  0  0  0
  1  2  1  0  0  0  0
 22 23  2  0  0  0  0
 22 24  1  0  0  0  0
 20 21  1  0  0  0  0
 19 20  1  0  0  0  0
 17 18  1  0  0  0  0
 17 19  2  0  0  0  0
 15 16  1  0  0  0  0
 15 17  1  0  0  0  0
 14 15  1  0  0  0  0
 14 20  2  0  0  0  0
 11 12  1  0  0  0  0
 11 13  1  0  0  0  0
 11 14  1  0  0  0  0
  9 10  1  0  0  0  0
  9 11  1  0  0  0  0
  9 22  1  0  0  0  0
  7  8  1  0  0  0  0
  7  9  1  0  0  0  0
 26 27  1  0  0  0  0
 26 28  1  0  0  0  0
 26 29  1  0  0  0  0
 24 25  1  0  0  0  0
 24 26  1  0  0  0  0
M  END
$$$$
default_name
  -OEChem-01062215323D

 29 29  0     1  0  0  0  0  0999 V2000
   -3.6042   -3.5728    1.4576 H   0  0  0  0  0  0  0  0  0  0  0  0
   -3.5202   -2.6488    0.8866 C   0  0  0  0  0  0  0  0  0  0  0  0
   -4.2052   -1.9048    1.2896 H   0  0  0  0  0  0  0  0  0  0  0  0
   -3.7552   -2.8428   -0.1584 H   0  0  0  0  0  0  0  0  0  0  0  0
   -2.1052   -2.1358    0.9946 C   0  0  0  0  0  0  0  0  0  0  0  0
   -1.2852   -2.7288    1.6826 O   0  0  0  0  0  0  0  0  0  0  0  0
   -1.8202   -1.0288    0.3146 N   0  0  0  0  0  0  0  0  0  0  0  0
   -2.5542   -0.5788   -0.2104 H   0  0  0  0  0  0  0  0  0  0  0  0
   -0.5102   -0.3728    0.3086 C   0  0  1  0  0  0  0  0  0  0  0  0
   -0.6583    0.7043    0.4001 H   0  0  0  0  0  0  0  0  0  0  0  0
    0.2990   -0.8499    1.5287 C   0  0  0  0  0  0  0  0  0  0  0  0
    0.3852   -1.9375    1.4972 H   0  0  0  0  0  0  0  0  0  0  0  0
    1.3058   -0.4318    1.4734 H   0  0  0  0  0  0  0  0  0  0  0  0
   -0.3105   -0.4555    2.8490 C   0  0  0  0  0  0  0  0  0  0  0  0
   -0.2953    0.8031    3.4110 N   0  0  0  0  0  0  0  0  0  0  0  0
    0.1915    1.6099    3.0502 H   0  0  0  0  0  0  0  0  0  0  0  0
   -1.0392    0.7677    4.5294 C   0  0  0  0  0  0  0  0  0  0  0  0
   -1.2115    1.6060    5.1934 H   0  0  0  0  0  0  0  0  0  0  0  0
   -1.5475   -0.4599    4.7105 N   0  0  0  0  0  0  0  0  0  0  0  0
   -1.0880   -1.2472    3.6514 C   0  0  0  0  0  0  0  0  0  0  0  0
   -1.3320   -2.2869    3.4753 H   0  0  0  0  0  0  0  0  0  0  0  0
    0.2266   -0.6355   -1.0157 C   0  0  0  0  0  0  0  0  0  0  0  0
    0.2647   -1.7714   -1.4880 O   0  0  0  0  0  0  0  0  0  0  0  0
    0.8253    0.4072   -1.6047 N   0  0  0  0  0  0  0  0  0  0  0  0
    0.7951    1.2961   -1.1272 H   0  0  0  0  0  0  0  0  0  0  0  0
    1.5602    0.3332   -2.8647 C   0  0  0  0  0  0  0  0  0  0  0  0
    0.8967   -0.0151   -3.6594 H   0  0  0  0  0  0  0  0  0  0  0  0
    1.9513    1.3161   -3.1289 H   0  0  0  0  0  0  0  0  0  0  0  0
    2.3888   -0.3705   -2.7700 H   0  0  0  0  0  0  0  0  0  0  0  0
  5  6  2  0  0  0  0
  5  7  1  0  0  0  0
  2  3  1  0  0  0  0
  2  4  1  0  0  0  0
  2  5  1  0  0  0  0
  1  2  1  0  0  0  0
 22 23  2  0  0  0  0
 22 24  1  0  0  0  0
 20 21  1  0  0  0  0
 19 20  1  0  0  0  0
 17 18  1  0  0  0  0
 17 19  2  0  0  0  0
 15 16  1  0  0  0  0
 15 17  1  0  0  0  0
 14 15  1  0  0  0  0
 14 20  2  0  0  0  0
 11 12  1  0  0  0  0
 11 13  1  0  0  0  0
 11 14  1  0  0  0  0
  9 10  1  0  0  0  0
  9 11  1  0  0  0  0
  9 22  1  0  0  0  0
  7  8  1  0  0  0  0
  7  9  1  0  0  0  0
 26 27  1  0  0  0  0
 26 28  1  0  0  0  0
 26 29  1  0  0  0  0
 24 25  1  0  0  0  0
 24 26  1  0  0  0  0
M  END
$$$$
default_name
  -OEChem-01062215323D

 29 29  0     1  0  0  0  0  0999 V2000
   -3.6042   -3.5728    1.4576 H   0  0  0  0  0  0  0  0  0  0  0  0
   -3.5202   -2.6488    0.8866 C   0  0  0  0  0  0  0  0  0  0  0  0
   -4.2052   -1.9048    1.2896 H   0  0  0  0  0  0  0  0  0  0  0  0
   -3.7552   -2.8428   -0.1584 H   0  0  0  0  0  0  0  0  0  0  0  0
   -2.1052   -2.1358    0.9946 C   0  0  0  0  0  0  0  0  0  0  0  0
   -1.2852   -2.7288    1.6826 O   0  0  0  0  0  0  0  0  0  0  0  0
   -1.8202   -1.0288    0.3146 N   0  0  0  0  0  0  0  0  0  0  0  0
   -2.5542   -0.5788   -0.2104 H   0  0  0  0  0  0  0  0  0  0  0  0
   -0.5102   -0.3728    0.3086 C   0  0  1  0  0  0  0  0  0  0  0  0
   -0.6583    0.7043    0.4001 H   0  0  0  0  0  0  0  0  0  0  0  0
    0.2990   -0.8499    1.5287 C   0  0  0  0  0  0  0  0  0  0  0  0
    0.3852   -1.9375    1.4972 H   0  0  0  0  0  0  0  0  0  0  0  0
    1.3058   -0.4318    1.4734 H   0  0  0  0  0  0  0  0  0  0  0  0
   -0.3105   -0.4555    2.8490 C   0  0  0  0  0  0  0  0  0  0  0  0
   -0.2953    0.8031    3.4110 N   0  0  0  0  0  0  0  0  0  0  0  0
    0.1915    1.6099    3.0502 H   0  0  0  0  0  0  0  0  0  0  0  0
   -1.0392    0.7677    4.5294 C   0  0  0  0  0  0  0  0  0  0  0  0
   -1.2115    1.6060    5.1934 H   0  0  0  0  0  0  0  0  0  0  0  0
   -1.5475   -0.4599    4.7105 N   0  0  0  0  0  0  0  0  0  0  0  0
   -1.0880   -1.2472    3.6514 C   0  0  0  0  0  0  0  0  0  0  0  0
   -1.3320   -2.2869    3.4753 H   0  0  0  0  0  0  0  0  0  0  0  0
    0.2266   -0.6355   -1.0157 C   0  0  0  0  0  0  0  0  0  0  0  0
    0.0413   -1.6862   -1.6293 O   0  0  0  0  0  0  0  0  0  0  0  0
    1.0734    0.3077   -1.4469 N   0  0  0  0  0  0  0  0  0  0  0  0
    1.2117    1.1172   -0.8599 H   0  0  0  0  0  0  0  0  0  0  0  0
    1.8461    0.2202   -2.6832 C   0  0  0  0  0  0  0  0  0  0  0  0
    1.1697    0.1278   -3.5359 H   0  0  0  0  0  0  0  0  0  0  0  0
    2.4586    1.1139   -2.8064 H   0  0  0  0  0  0  0  0  0  0  0  0
    2.4925   -0.6584   -2.6552 H   0  0  0  0  0  0  0  0  0  0  0  0
  5  6  2  0  0  0  0
  5  7  1  0  0  0  0
  2  3  1  0  0  0  0
  2  4  1  0  0  0  0
  2  5  1  0  0  0  0
  1  2  1  0  0  0  0
 22 23  2  0  0  0  0
 22 24  1  0  0  0  0
 20 21  1  0  0  0  0
 19 20  1  0  0  0  0
 17 18  1  0  0  0  0
 17 19  2  0  0  0  0
 15 16  1  0  0  0  0
 15 17  1  0  0  0  0
 14 15  1  0  0  0  0
 14 20  2  0  0  0  0
 11 12  1  0  0  0  0
 11 13  1  0  0  0  0
 11 14  1  0  0  0  0
  9 10  1  0  0  0  0
  9 11  1  0  0  0  0
  9 22  1  0  0  0  0
  7  8  1  0  0  0  0
  7  9  1  0  0  0  0
 26 27  1  0  0  0  0
 26 28  1  0  0  0  0
 26 29  1  0  0  0  0
 24 25  1  0  0  0  0
 24 26  1  0  0  0  0
M  END
$$$$
default_name
  -OEChem-01062215323D

 29 29  0     1  0  0  0  0  0999 V2000
   -3.6042   -3.5728    1.4576 H   0  0  0  0  0  0  0  0  0  0  0  0
   -3.5202   -2.6488    0.8866 C   0  0  0  0  0  0  0  0  0  0  0  0
   -4.2052   -1.9048    1.2896 H   0  0  0  0  0  0  0  0  0  0  0  0
   -3.7552   -2.8428   -0.1584 H   0  0  0  0  0  0  0  0  0  0  0  0
   -2.1052   -2.1358    0.9946 C   0  0  0  0  0  0  0  0  0  0  0  0
   -1.2852   -2.7288    1.6826 O   0  0  0  0  0  0  0  0  0  0  0  0
   -1.8202   -1.0288    0.3146 N   0  0  0  0  0  0  0  0  0  0  0  0
   -2.5542   -0.5788   -0.2104 H   0  0  0  0  0  0  0  0  0  0  0  0
   -0.5102   -0.3728    0.3086 C   0  0  1  0  0  0  0  0  0  0  0  0
   -0.6583    0.7043    0.4001 H   0  0  0  0  0  0  0  0  0  0  0  0
    0.2990   -0.8499    1.5287 C   0  0  0  0  0  0  0  0  0  0  0  0
    0.3852   -1.9375    1.4972 H   0  0  0  0  0  0  0  0  0  0  0  0
    1.3058   -0.4318    1.4734 H   0  0  0  0  0  0  0  0  0  0  0  0
   -0.3105   -0.4555    2.8490 C   0  0  0  0  0  0  0  0  0  0  0  0
   -0.2953    0.8031    3.4110 N   0  0  0  0  0  0  0  0  0  0  0  0
    0.1915    1.6099    3.0502 H   0  0  0  0  0  0  0  0  0  0  0  0
   -1.0392    0.7677    4.5294 C   0  0  0  0  0  0  0  0  0  0  0  0
   -1.2115    1.6060    5.1934 H   0  0  0  0  0  0  0  0  0  0  0  0
   -1.5475   -0.4599    4.7105 N   0  0  0  0  0  0  0  0  0  0  0  0
   -1.0880   -1.2472    3.6514 C   0  0  0  0  0  0  0  0  0  0  0  0
   -1.3320   -2.2869    3.4753 H   0  0  0  0  0  0  0  0  0  0  0  0
    0.2266   -0.6355   -1.0157 C   0  0  0  0  0  0  0  0  0  0  0  0
   -0.1493   -1.5366   -1.7650 O   0  0  0  0  0  0  0  0  0  0  0  0
    1.2838    0.1368   -1.2959 N   0  0  0  0  0  0  0  0  0  0  0  0
    1.5625    0.8184   -0.6054 H   0  0  0  0  0  0  0  0  0  0  0  0
    2.0890    0.0249   -2.5093 C   0  0  0  0  0  0  0  0  0  0  0  0
    1.4597    0.1896   -3.3867 H   0  0  0  0  0  0  0  0  0  0  0  0
    2.8893    0.7655   -2.4977 H   0  0  0  0  0  0  0  0  0  0  0  0
    2.5235   -0.9738   -2.5753 H   0  0  0  0  0  0  0  0  0  0  0  0
  5  6  2  0  0  0  0
  5  7  1  0  0  0  0
  2  3  1  0  0  0  0
  2  4  1  0  0  0  0
  2  5  1  0  0  0  0
  1  2  1  0  0  0  0
 22 23  2  0  0  0  0
 22 24  1  0  0  0  0
 20 21  1  0  0  0  0
 19 20  1  0  0  0  0
 17 18  1  0  0  0  0
 17 19  2  0  0  0  0
 15 16  1  0  0  0  0
 15 17  1  0  0  0  0
 14 15  1  0  0  0  0
 14 20  2  0  0  0  0
 11 12  1  0  0  0  0
 11 13  1  0  0  0  0
 11 14  1  0  0  0  0
  9 10  1  0  0  0  0
  9 11  1  0  0  0  0
  9 22  1  0  0  0  0
  7  8  1  0  0  0  0
  7  9  1  0  0  0  0
 26 27  1  0  0  0  0
 26 28  1  0  0  0  0
 26 29  1  0  0  0  0
 24 25  1  0  0  0  0
 24 26  1  0  0  0  0
M  END
$$$$
default_name
  -OEChem-01062215323D

 29 29  0     1  0  0  0  0  0999 V2000
   -3.6042   -3.5728    1.4576 H   0  0  0  0  0  0  0  0  0  0  0  0
   -3.5202   -2.6488    0.8866 C   0  0  0  0  0  0  0  0  0  0  0  0
   -4.2052   -1.9048    1.2896 H   0  0  0  0  0  0  0  0  0  0  0  0
   -3.7552   -2.8428   -0.1584 H   0  0  0  0  0  0  0  0  0  0  0  0
   -2.1052   -2.1358    0.9946 C   0  0  0  0  0  0  0  0  0  0  0  0
   -1.2852   -2.7288    1.6826 O   0  0  0  0  0  0  0  0  0  0  0  0
   -1.8202   -1.0288    0.3146 N   0  0  0  0  0  0  0  0  0  0  0  0
   -2.5542   -0.5788   -0.2104 H   0  0  0  0  0  0  0  0  0  0  0  0
   -0.5102   -0.3728    0.3086 C   0  0  1  0  0  0  0  0  0  0  0  0
   -0.6308    0.6519    0.6633 H   0  0  0  0  0  0  0  0  0  0  0  0
    0.4277   -1.1091    1.2828 C   0  0  0  0  0  0  0  0  0  0  0  0
    0.4937   -2.1587    0.9908 H   0  0  0  0  0  0  0  0  0  0  0  0
    1.4273   -0.6769    1.2094 H   0  0  0  0  0  0  0  0  0  0  0  0
   -0.0190   -1.0388    2.7201 C   0  0  0  0  0  0  0  0  0  0  0  0
    0.0796    0.0556    3.5524 N   0  0  0  0  0  0  0  0  0  0  0  0
    0.5332    0.9301    3.3341 H   0  0  0  0  0  0  0  0  0  0  0  0
   -0.5302   -0.2470    4.7108 C   0  0  0  0  0  0  0  0  0  0  0  0
   -0.6121    0.4125    5.5661 H   0  0  0  0  0  0  0  0  0  0  0  0
   -1.0321   -1.4896    4.6607 N   0  0  0  0  0  0  0  0  0  0  0  0
   -0.7100   -2.0045    3.4023 C   0  0  0  0  0  0  0  0  0  0  0  0
   -0.9880   -2.9781    3.0199 H   0  0  0  0  0  0  0  0  0  0  0  0
    0.0644   -0.3125   -1.1169 C   0  0  0  0  0  0  0  0  0  0  0  0
   -0.5637   -0.7960   -2.0584 O   0  0  0  0  0  0  0  0  0  0  0  0
    1.2628    0.2634   -1.2738 N   0  0  0  0  0  0  0  0  0  0  0  0
    1.7393    0.5875   -0.4450 H   0  0  0  0  0  0  0  0  0  0  0  0
    1.9471    0.4084   -2.5560 C   0  0  0  0  0  0  0  0  0  0  0  0
    1.3308    0.9972   -3.2391 H   0  0  0  0  0  0  0  0  0  0  0  0
    2.9053    0.9095   -2.4150 H   0  0  0  0  0  0  0  0  0  0  0  0
    2.1164   -0.5741   -2.9993 H   0  0  0  0  0  0  0  0  0  0  0  0
  5  6  2  0  0  0  0
  5  7  1  0  0  0  0
  2  3  1  0  0  0  0
  2  4  1  0  0  0  0
  2  5  1  0  0  0  0
  1  2  1  0  0  0  0
 22 23  2  0  0  0  0
 22 24  1  0  0  0  0
 20 21  1  0  0  0  0
 19 20  1  0  0  0  0
 17 18  1  0  0  0  0
 17 19  2  0  0  0  0
 15 16  1  0  0  0  0
 15 17  1  0  0  0  0
 14 15  1  0  0  0  0
 14 20  2  0  0  0  0
 11 12  1  0  0  0  0
 11 13  1  0  0  0  0
 11 14  1  0  0  0  0
  9 10  1  0  0  0  0
  9 11  1  0  0  0  0
  9 22  1  0  0  0  0
  7  8  1  0  0  0  0
  7  9  1  0  0  0  0
 26 27  1  0  0  0  0
 26 28  1  0  0  0  0
 26 29  1  0  0  0  0
 24 25  1  0  0  0  0
 24 26  1  0  0  0  0
M  END
$$$$
default_name
  -OEChem-01062215323D

 29 29  0     1  0  0  0  0  0999 V2000
   -3.6042   -3.5728    1.4576 H   0  0  0  0  0  0  0  0  0  0  0  0
   -3.5202   -2.6488    0.8866 C   0  0  0  0  0  0  0  0  0  0  0  0
   -4.2052   -1.9048    1.2896 H   0  0  0  0  0  0  0  0  0  0  0  0
   -3.7552   -2.8428   -0.1584 H   0  0  0  0  0  0  0  0  0  0  0  0
   -2.1052   -2.1358    0.9946 C   0  0  0  0  0  0  0  0  0  0  0  0
   -1.2852   -2.7288    1.6826 O   0  0  0  0  0  0  0  0  0  0  0  0
   -1.8202   -1.0288    0.3146 N   0  0  0  0  0  0  0  0  0  0  0  0
   -2.5542   -0.5788   -0.2104 H   0  0  0  0  0  0  0  0  0  0  0  0
   -0.5102   -0.3728    0.3086 C   0  0  1  0  0  0  0  0  0  0  0  0
   -0.6308    0.6519    0.6633 H   0  0  0  0  0  0  0  0  0  0  0  0
    0.4277   -1.1091    1.2828 C   0  0  0  0  0  0  0  0  0  0  0  0
    0.4937   -2.1587    0.9908 H   0  0  0  0  0  0  0  0  0  0  0  0
    1.4273   -0.6769    1.2094 H   0  0  0  0  0  0  0  0  0  0  0  0
   -0.0190   -1.0388    2.7201 C   0  0  0  0  0  0  0  0  0  0  0  0
    0.0796    0.0556    3.5524 N   0  0  0  0  0  0  0  0  0  0  0  0
    0.5332    0.9301    3.3341 H   0  0  0  0  0  0  0  0  0  0  0  0
   -0.5302   -0.2470    4.7108 C   0  0  0  0  0  0  0  0  0  0  0  0
   -0.6121    0.4125    5.5661 H   0  0  0  0  0  0  0  0  0  0  0  0
   -1.0321   -1.4896    4.6607 N   0  0  0  0  0  0  0  0  0  0  0  0
   -0.7100   -2.0045    3.4023 C   0  0  0  0  0  0  0  0  0  0  0  0
   -0.9880   -2.9781    3.0199 H   0  0  0  0  0  0  0  0  0  0  0  0
    0.0644   -0.3125   -1.1169 C   0  0  0  0  0  0  0  0  0  0  0  0
   -0.6600   -0.5370   -2.0862 O   0  0  0  0  0  0  0  0  0  0  0  0
    1.3664   -0.0277   -1.2444 N   0  0  0  0  0  0  0  0  0  0  0  0
    1.9054    0.0902   -0.3991 H   0  0  0  0  0  0  0  0  0  0  0  0
    2.0676    0.0742   -2.5215 C   0  0  0  0  0  0  0  0  0  0  0  0
    1.6120    0.8574   -3.1316 H   0  0  0  0  0  0  0  0  0  0  0  0
    3.1178    0.3151   -2.3544 H   0  0  0  0  0  0  0  0  0  0  0  0
    1.9965   -0.8720   -3.0603 H   0  0  0  0  0  0  0  0  0  0  0  0
  5  6  2  0  0  0  0
  5  7  1  0  0  0  0
  2  3  1  0  0  0  0
  2  4  1  0  0  0  0
  2  5  1  0  0  0  0
  1  2  1  0  0  0  0
 22 23  2  0  0  0  0
 22 24  1  0  0  0  0
 20 21  1  0  0  0  0
 19 20  1  0  0  0  0
 17 18  1  0  0  0  0
 17 19  2  0  0  0  0
 15 16  1  0  0  0  0
 15 17  1  0  0  0  0
 14 15  1  0  0  0  0
 14 20  2  0  0  0  0
 11 12  1  0  0  0  0
 11 13  1  0  0  0  0
 11 14  1  0  0  0  0
  9 10  1  0  0  0  0
  9 11  1  0  0  0  0
  9 22  1  0  0  0  0
  7  8  1  0  0  0  0
  7  9  1  0  0  0  0
 26 27  1  0  0  0  0
 26 28  1  0  0  0  0
 26 29  1  0  0  0  0
 24 25  1  0  0  0  0
 24 26  1  0  0  0  0
M  END
$$$$
default_name
  -OEChem-01062215323D

 29 29  0     1  0  0  0  0  0999 V2000
   -3.6042   -3.5728    1.4576 H   0  0  0  0  0  0  0  0  0  0  0  0
   -3.5202   -2.6488    0.8866 C   0  0  0  0  0  0  0  0  0  0  0  0
   -4.2052   -1.9048    1.2896 H   0  0  0  0  0  0  0  0  0  0  0  0
   -3.7552   -2.8428   -0.1584 H   0  0  0  0  0  0  0  0  0  0  0  0
   -2.1052   -2.1358    0.9946 C   0  0  0  0  0  0  0  0  0  0  0  0
   -1.2852   -2.7288    1.6826 O   0  0  0  0  0  0  0  0  0  0  0  0
   -1.8202   -1.0288    0.3146 N   0  0  0  0  0  0  0  0  0  0  0  0
   -2.5542   -0.5788   -0.2104 H   0  0  0  0  0  0  0  0  0  0  0  0
   -0.5102   -0.3728    0.3086 C   0  0  1  0  0  0  0  0  0  0  0  0
   -0.6308    0.6519    0.6633 H   0  0  0  0  0  0  0  0  0  0  0  0
    0.4277   -1.1091    1.2828 C   0  0  0  0  0  0  0  0  0  0  0  0
    0.4937   -2.1587    0.9908 H   0  0  0  0  0  0  0  0  0  0  0  0
    1.4273   -0.6769    1.2094 H   0  0  0  0  0  0  0  0  0  0  0  0
   -0.0190   -1.0388    2.7201 C   0  0  0  0  0  0  0  0  0  0  0  0
    0.0796    0.0556    3.5524 N   0  0  0  0  0  0  0  0  0  0  0  0
    0.5332    0.9301    3.3341 H   0  0  0  0  0  0  0  0  0  0  0  0
   -0.5302   -0.2470    4.7108 C   0  0  0  0  0  0  0  0  0  0  0  0
   -0.6121    0.4125    5.5661 H   0  0  0  0  0  0  0  0  0  0  0  0
   -1.0321   -1.4896    4.6607 N   0  0  0  0  0  0  0  0  0  0  0  0
   -0.7100   -2.0045    3.4023 C   0  0  0  0  0  0  0  0  0  0  0  0
   -0.9880   -2.9781    3.0199 H   0  0  0  0  0  0  0  0  0  0  0  0
    0.0644   -0.3125   -1.1169 C   0  0  0  0  0  0  0  0  0  0  0  0
   -0.6911   -0.2610   -2.0871 O   0  0  0  0  0  0  0  0  0  0  0  0
    1.3969   -0.3365   -1.2451 N   0  0  0  0  0  0  0  0  0  0  0  0
    1.9470   -0.4345   -0.4044 H   0  0  0  0  0  0  0  0  0  0  0  0
    2.1042   -0.2809   -2.5218 C   0  0  0  0  0  0  0  0  0  0  0  0
    1.8512    0.6445   -3.0442 H   0  0  0  0  0  0  0  0  0  0  0  0
    3.1812   -0.3160   -2.3555 H   0  0  0  0  0  0  0  0  0  0  0  0
    1.8086   -1.1251   -3.1467 H   0  0  0  0  0  0  0  0  0  0  0  0
  5  6  2  0  0  0  0
  5  7  1  0  0  0  0
  2  3  1  0  0  0  0
  2  4  1  0  0  0  0
  2  5  1  0  0  0  0
  1  2  1  0  0  0  0
 22 23  2  0  0  0  0
 22 24  1  0  0  0  0
 20 21  1  0  0  0  0
 19 20  1  0  0  0  0
 17 18  1  0  0  0  0
 17 19  2  0  0  0  0
 15 16  1  0  0  0  0
 15 17  1  0  0  0  0
 14 15  1  0  0  0  0
 14 20  2  0  0  0  0
 11 12  1  0  0  0  0
 11 13  1  0  0  0  0
 11 14  1  0  0  0  0
  9 10  1  0  0  0  0
  9 11  1  0  0  0  0
  9 22  1  0  0  0  0
  7  8  1  0  0  0  0
  7  9  1  0  0  0  0
 26 27  1  0  0  0  0
 26 28  1  0  0  0  0
 26 29  1  0  0  0  0
 24 25  1  0  0  0  0
 24 26  1  0  0  0  0
M  END
$$$$
default_name
  -OEChem-01062215323D

 29 29  0     1  0  0  0  0  0999 V2000
   -3.6042   -3.5728    1.4576 H   0  0  0  0  0  0  0  0  0  0  0  0
   -3.5202   -2.6488    0.8866 C   0  0  0  0  0  0  0  0  0  0  0  0
   -4.2052   -1.9048    1.2896 H   0  0  0  0  0  0  0  0  0  0  0  0
   -3.7552   -2.8428   -0.1584 H   0  0  0  0  0  0  0  0  0  0  0  0
   -2.1052   -2.1358    0.9946 C   0  0  0  0  0  0  0  0  0  0  0  0
   -1.2852   -2.7288    1.6826 O   0  0  0  0  0  0  0  0  0  0  0  0
   -1.8202   -1.0288    0.3146 N   0  0  0  0  0  0  0  0  0  0  0  0
   -2.5542   -0.5788   -0.2104 H   0  0  0  0  0  0  0  0  0  0  0  0
   -0.5102   -0.3728    0.3086 C   0  0  1  0  0  0  0  0  0  0  0  0
   -0.6308    0.6519    0.6633 H   0  0  0  0  0  0  0  0  0  0  0  0
    0.4277   -1.1091    1.2828 C   0  0  0  0  0  0  0  0  0  0  0  0
    0.4937   -2.1587    0.9908 H   0  0  0  0  0  0  0  0  0  0  0  0
    1.4273   -0.6769    1.2094 H   0  0  0  0  0  0  0  0  0  0  0  0
   -0.0190   -1.0388    2.7201 C   0  0  0  0  0  0  0  0  0  0  0  0
    0.0796    0.0556    3.5524 N   0  0  0  0  0  0  0  0  0  0  0  0
    0.5332    0.9301    3.3341 H   0  0  0  0  0  0  0  0  0  0  0  0
   -0.5302   -0.2470    4.7108 C   0  0  0  0  0  0  0  0  0  0  0  0
   -0.6121    0.4125    5.5661 H   0  0  0  0  0  0  0  0  0  0  0  0
   -1.0321   -1.4896    4.6607 N   0  0  0  0  0  0  0  0  0  0  0  0
   -0.7100   -2.0045    3.4023 C   0  0  0  0  0  0  0  0  0  0  0  0
   -0.9880   -2.9781    3.0199 H   0  0  0  0  0  0  0  0  0  0  0  0
    0.0644   -0.3125   -1.1169 C   0  0  0  0  0  0  0  0  0  0  0  0
   -0.6549    0.0131   -2.0610 O   0  0  0  0  0  0  0  0  0  0  0  0
    1.3523   -0.6421   -1.2761 N   0  0  0  0  0  0  0  0  0  0  0  0
    1.8613   -0.9507   -0.4608 H   0  0  0  0  0  0  0  0  0  0  0  0
    2.0543   -0.6326   -2.5568 C   0  0  0  0  0  0  0  0  0  0  0  0
    2.0320    0.3730   -2.9828 H   0  0  0  0  0  0  0  0  0  0  0  0
    3.0911   -0.9406   -2.4182 H   0  0  0  0  0  0  0  0  0  0  0  0
    1.5655   -1.3162   -3.2528 H   0  0  0  0  0  0  0  0  0  0  0  0
  5  6  2  0  0  0  0
  5  7  1  0  0  0  0
  2  3  1  0  0  0  0
  2  4  1  0  0  0  0
  2  5  1  0  0  0  0
  1  2  1  0  0  0  0
 22 23  2  0  0  0  0
 22 24  1  0  0  0  0
 20 21  1  0  0  0  0
 19 20  1  0  0  0  0
 17 18  1  0  0  0  0
 17 19  2  0  0  0  0
 15 16  1  0  0  0  0
 15 17  1  0  0  0  0
 14 15  1  0  0  0  0
 14 20  2  0  0  0  0
 11 12  1  0  0  0  0
 11 13  1  0  0  0  0
 11 14  1  0  0  0  0
  9 10  1  0  0  0  0
  9 11  1  0  0  0  0
  9 22  1  0  0  0  0
  7  8  1  0  0  0  0
  7  9  1  0  0  0  0
 26 27  1  0  0  0  0
 26 28  1  0  0  0  0
 26 29  1  0  0  0  0
 24 25  1  0  0  0  0
 24 26  1  0  0  0  0
M  END
$$$$
default_name
  -OEChem-01062215323D

 29 29  0     1  0  0  0  0  0999 V2000
   -3.6042   -3.5728    1.4576 H   0  0  0  0  0  0  0  0  0  0  0  0
   -3.5202   -2.6488    0.8866 C   0  0  0  0  0  0  0  0  0  0  0  0
   -4.2052   -1.9048    1.2896 H   0  0  0  0  0  0  0  0  0  0  0  0
   -3.7552   -2.8428   -0.1584 H   0  0  0  0  0  0  0  0  0  0  0  0
   -2.1052   -2.1358    0.9946 C   0  0  0  0  0  0  0  0  0  0  0  0
   -1.2852   -2.7288    1.6826 O   0  0  0  0  0  0  0  0  0  0  0  0
   -1.8202   -1.0288    0.3146 N   0  0  0  0  0  0  0  0  0  0  0  0
   -2.5542   -0.5788   -0.2104 H   0  0  0  0  0  0  0  0  0  0  0  0
   -0.5102   -0.3728    0.3086 C   0  0  1  0  0  0  0  0  0  0  0  0
   -0.6308    0.6519    0.6633 H   0  0  0  0  0  0  0  0  0  0  0  0
    0.4277   -1.1091    1.2828 C   0  0  0  0  0  0  0  0  0  0  0  0
    0.4937   -2.1587    0.9908 H   0  0  0  0  0  0  0  0  0  0  0  0
    1.4273   -0.6769    1.2094 H   0  0  0  0  0  0  0  0  0  0  0  0
   -0.0190   -1.0388    2.7201 C   0  0  0  0  0  0  0  0  0  0  0  0
    0.0796    0.0556    3.5524 N   0  0  0  0  0  0  0  0  0  0  0  0
    0.5332    0.9301    3.3341 H   0  0  0  0  0  0  0  0  0  0  0  0
   -0.5302   -0.2470    4.7108 C   0  0  0  0  0  0  0  0  0  0  0  0
   -0.6121    0.4125    5.5661 H   0  0  0  0  0  0  0  0  0  0  0  0
   -1.0321   -1.4896    4.6607 N   0  0  0  0  0  0  0  0  0  0  0  0
   -0.7100   -2.0045    3.4023 C   0  0  0  0  0  0  0  0  0  0  0  0
   -0.9880   -2.9781    3.0199 H   0  0  0  0  0  0  0  0  0  0  0  0
    0.0644   -0.3125   -1.1169 C   0  0  0  0  0  0  0  0  0  0  0  0
   -0.5540    0.2667   -2.0096 O   0  0  0  0  0  0  0  0  0  0  0  0
    1.2356   -0.9236   -1.3350 N   0  0  0  0  0  0  0  0  0  0  0  0
    1.6541   -1.4234   -0.5643 H   0  0  0  0  0  0  0  0  0  0  0  0
    1.9214   -0.9570   -2.6240 C   0  0  0  0  0  0  0  0  0  0  0  0
    2.1422    0.0614   -2.9515 H   0  0  0  0  0  0  0  0  0  0  0  0
    2.8535   -1.5163   -2.5383 H   0  0  0  0  0  0  0  0  0  0  0  0
    1.2838   -1.4321   -3.3712 H   0  0  0  0  0  0  0  0  0  0  0  0
  5  6  2  0  0  0  0
  5  7  1  0  0  0  0
  2  3  1  0  0  0  0
  2  4  1  0  0  0  0
  2  5  1  0  0  0  0
  1  2  1  0  0  0  0
 22 23  2  0  0  0  0
 22 24  1  0  0  0  0
 20 21  1  0  0  0  0
 19 20  1  0  0  0  0
 17 18  1  0  0  0  0
 17 19  2  0  0  0  0
 15 16  1  0  0  0  0
 15 17  1  0  0  0  0
 14 15  1  0  0  0  0
 14 20  2  0  0  0  0
 11 12  1  0  0  0  0
 11 13  1  0  0  0  0
 11 14  1  0  0  0  0
  9 10  1  0  0  0  0
  9 11  1  0  0  0  0
  9 22  1  0  0  0  0
  7  8  1  0  0  0  0
  7  9  1  0  0  0  0
 26 27  1  0  0  0  0
 26 28  1  0  0  0  0
 26 29  1  0  0  0  0
 24 25  1  0  0  0  0
 24 26  1  0  0  0  0
M  END
$$$$
default_name
  -OEChem-01062215323D

 29 29  0     1  0  0  0  0  0999 V2000
   -3.6042   -3.5728    1.4576 H   0  0  0  0  0  0  0  0  0  0  0  0
   -3.5202   -2.6488    0.8866 C   0  0  0  0  0  0  0  0  0  0  0  0
   -4.2052   -1.9048    1.2896 H   0  0  0  0  0  0  0  0  0  0  0  0
   -3.7552   -2.8428   -0.1584 H   0  0  0  0  0  0  0  0  0  0  0  0
   -2.1052   -2.1358    0.9946 C   0  0  0  0  0  0  0  0  0  0  0  0
   -1.2852   -2.7288    1.6826 O   0  0  0  0  0  0  0  0  0  0  0  0
   -1.8202   -1.0288    0.3146 N   0  0  0  0  0  0  0  0  0  0  0  0
   -2.5542   -0.5788   -0.2104 H   0  0  0  0  0  0  0  0  0  0  0  0
   -0.5102   -0.3728    0.3086 C   0  0  1  0  0  0  0  0  0  0  0  0
   -0.6308    0.6519    0.6633 H   0  0  0  0  0  0  0  0  0  0  0  0
    0.4277   -1.1091    1.2828 C   0  0  0  0  0  0  0  0  0  0  0  0
    0.4937   -2.1587    0.9908 H   0  0  0  0  0  0  0  0  0  0  0  0
    1.4273   -0.6769    1.2094 H   0  0  0  0  0  0  0  0  0  0  0  0
   -0.0190   -1.0388    2.7201 C   0  0  0  0  0  0  0  0  0  0  0  0
    0.0796    0.0556    3.5524 N   0  0  0  0  0  0  0  0  0  0  0  0
    0.5332    0.9301    3.3341 H   0  0  0  0  0  0  0  0  0  0  0  0
   -0.5302   -0.2470    4.7108 C   0  0  0  0  0  0  0  0  0  0  0  0
   -0.6121    0.4125    5.5661 H   0  0  0  0  0  0  0  0  0  0  0  0
   -1.0321   -1.4896    4.6607 N   0  0  0  0  0  0  0  0  0  0  0  0
   -0.7100   -2.0045    3.4023 C   0  0  0  0  0  0  0  0  0  0  0  0
   -0.9880   -2.9781    3.0199 H   0  0  0  0  0  0  0  0  0  0  0  0
    0.0644   -0.3125   -1.1169 C   0  0  0  0  0  0  0  0  0  0  0  0
   -0.3952    0.4824   -1.9364 O   0  0  0  0  0  0  0  0  0  0  0  0
    1.0547   -1.1617   -1.4180 N   0  0  0  0  0  0  0  0  0  0  0  0
    1.3396   -1.8202   -0.7079 H   0  0  0  0  0  0  0  0  0  0  0  0
    1.7146   -1.2320   -2.7191 C   0  0  0  0  0  0  0  0  0  0  0  0
    2.1742   -0.2690   -2.9526 H   0  0  0  0  0  0  0  0  0  0  0  0
    2.4848   -2.0037   -2.7076 H   0  0  0  0  0  0  0  0  0  0  0  0
    0.9827   -1.4651   -3.4940 H   0  0  0  0  0  0  0  0  0  0  0  0
  5  6  2  0  0  0  0
  5  7  1  0  0  0  0
  2  3  1  0  0  0  0
  2  4  1  0  0  0  0
  2  5  1  0  0  0  0
  1  2  1  0  0  0  0
 22 23  2  0  0  0  0
 22 24  1  0  0  0  0
 20 21  1  0  0  0  0
 19 20  1  0  0  0  0
 17 18  1  0  0  0  0
 17 19  2  0  0  0  0
 15 16  1  0  0  0  0
 15 17  1  0  0  0  0
 14 15  1  0  0  0  0
 14 20  2  0  0  0  0
 11 12  1  0  0  0  0
 11 13  1  0  0  0  0
 11 14  1  0  0  0  0
  9 10  1  0  0  0  0
  9 11  1  0  0  0  0
  9 22  1  0  0  0  0
  7  8  1  0  0  0  0
  7  9  1  0  0  0  0
 26 27  1  0  0  0  0
 26 28  1  0  0  0  0
 26 29  1  0  0  0  0
 24 25  1  0  0  0  0
 24 26  1  0  0  0  0
M  END
$$$$
default_name
  -OEChem-01062215323D

 29 29  0     1  0  0  0  0  0999 V2000
   -3.6042   -3.5728    1.4576 H   0  0  0  0  0  0  0  0  0  0  0  0
   -3.5202   -2.6488    0.8866 C   0  0  0  0  0  0  0  0  0  0  0  0
   -4.2052   -1.9048    1.2896 H   0  0  0  0  0  0  0  0  0  0  0  0
   -3.7552   -2.8428   -0.1584 H   0  0  0  0  0  0  0  0  0  0  0  0
   -2.1052   -2.1358    0.9946 C   0  0  0  0  0  0  0  0  0  0  0  0
   -1.2852   -2.7288    1.6826 O   0  0  0  0  0  0  0  0  0  0  0  0
   -1.8202   -1.0288    0.3146 N   0  0  0  0  0  0  0  0  0  0  0  0
   -2.5542   -0.5788   -0.2104 H   0  0  0  0  0  0  0  0  0  0  0  0
   -0.5102   -0.3728    0.3086 C   0  0  1  0  0  0  0  0  0  0  0  0
   -0.6308    0.6519    0.6633 H   0  0  0  0  0  0  0  0  0  0  0  0
    0.4277   -1.1091    1.2828 C   0  0  0  0  0  0  0  0  0  0  0  0
    0.4937   -2.1587    0.9908 H   0  0  0  0  0  0  0  0  0  0  0  0
    1.4273   -0.6769    1.2094 H   0  0  0  0  0  0  0  0  0  0  0  0
   -0.0190   -1.0388    2.7201 C   0  0  0  0  0  0  0  0  0  0  0  0
    0.0796    0.0556    3.5524 N   0  0  0  0  0  0  0  0  0  0  0  0
    0.5332    0.9301    3.3341 H   0  0  0  0  0  0  0  0  0  0  0  0
   -0.5302   -0.2470    4.7108 C   0  0  0  0  0  0  0  0  0  0  0  0
   -0.6121    0.4125    5.5661 H   0  0  0  0  0  0  0  0  0  0  0  0
   -1.0321   -1.4896    4.6607 N   0  0  0  0  0  0  0  0  0  0  0  0
   -0.7100   -2.0045    3.4023 C   0  0  0  0  0  0  0  0  0  0  0  0
   -0.9880   -2.9781    3.0199 H   0  0  0  0  0  0  0  0  0  0  0  0
    0.0644   -0.3125   -1.1169 C   0  0  0  0  0  0  0  0  0  0  0  0
   -0.1893    0.6456   -1.8465 O   0  0  0  0  0  0  0  0  0  0  0  0
    0.8221   -1.3404   -1.5193 N   0  0  0  0  0  0  0  0  0  0  0  0
    0.9392   -2.1142   -0.8817 H   0  0  0  0  0  0  0  0  0  0  0  0
    1.4478   -1.4388   -2.8353 C   0  0  0  0  0  0  0  0  0  0  0  0
    2.1259   -0.5957   -2.9859 H   0  0  0  0  0  0  0  0  0  0  0  0
    2.0100   -2.3697   -2.9145 H   0  0  0  0  0  0  0  0  0  0  0  0
    0.6827   -1.4129   -3.6128 H   0  0  0  0  0  0  0  0  0  0  0  0
  5  6  2  0  0  0  0
  5  7  1  0  0  0  0
  2  3  1  0  0  0  0
  2  4  1  0  0  0  0
  2  5  1  0  0  0  0
  1  2  1  0  0  0  0
 22 23  2  0  0  0  0
 22 24  1  0  0  0  0
 20 21  1  0  0  0  0
 19 20  1  0  0  0  0
 17 18  1  0  0  0  0
 17 19  2  0  0  0  0
 15 16  1  0  0  0  0
 15 17  1  0  0  0  0
 14 15  1  0  0  0  0
 14 20  2  0  0  0  0
 11 12  1  0  0  0  0
 11 13  1  0  0  0  0
 11 14  1  0  0  0  0
  9 10  1  0  0  0  0
  9 11  1  0  0  0  0
  9 22  1  0  0  0  0
  7  8  1  0  0  0  0
  7  9  1  0  0  0  0
 26 27  1  0  0  0  0
 26 28  1  0  0  0  0
 26 29  1  0  0  0  0
 24 25  1  0  0  0  0
 24 26  1  0  0  0  0
M  END
$$$$
default_name
  -OEChem-01062215323D

 29 29  0     1  0  0  0  0  0999 V2000
   -3.6042   -3.5728    1.4576 H   0  0  0  0  0  0  0  0  0  0  0  0
   -3.5202   -2.6488    0.8866 C   0  0  0  0  0  0  0  0  0  0  0  0
   -4.2052   -1.9048    1.2896 H   0  0  0  0  0  0  0  0  0  0  0  0
   -3.7552   -2.8428   -0.1584 H   0  0  0  0  0  0  0  0  0  0  0  0
   -2.1052   -2.1358    0.9946 C   0  0  0  0  0  0  0  0  0  0  0  0
   -1.2852   -2.7288    1.6826 O   0  0  0  0  0  0  0  0  0  0  0  0
   -1.8202   -1.0288    0.3146 N   0  0  0  0  0  0  0  0  0  0  0  0
   -2.5542   -0.5788   -0.2104 H   0  0  0  0  0  0  0  0  0  0  0  0
   -0.5102   -0.3728    0.3086 C   0  0  1  0  0  0  0  0  0  0  0  0
   -0.6308    0.6519    0.6633 H   0  0  0  0  0  0  0  0  0  0  0  0
    0.4277   -1.1091    1.2828 C   0  0  0  0  0  0  0  0  0  0  0  0
    0.4937   -2.1587    0.9908 H   0  0  0  0  0  0  0  0  0  0  0  0
    1.4273   -0.6769    1.2094 H   0  0  0  0  0  0  0  0  0  0  0  0
   -0.0190   -1.0388    2.7201 C   0  0  0  0  0  0  0  0  0  0  0  0
    0.0796    0.0556    3.5524 N   0  0  0  0  0  0  0  0  0  0  0  0
    0.5332    0.9301    3.3341 H   0  0  0  0  0  0  0  0  0  0  0  0
   -0.5302   -0.2470    4.7108 C   0  0  0  0  0  0  0  0  0  0  0  0
   -0.6121    0.4125    5.5661 H   0  0  0  0  0  0  0  0  0  0  0  0
   -1.0321   -1.4896    4.6607 N   0  0  0  0  0  0  0  0  0  0  0  0
   -0.7100   -2.0045    3.4023 C   0  0  0  0  0  0  0  0  0  0  0  0
   -0.9880   -2.9781    3.0199 H   0  0  0  0  0  0  0  0  0  0  0  0
    0.0644   -0.3125   -1.1169 C   0  0  0  0  0  0  0  0  0  0  0  0
    0.0497    0.7452   -1.7460 O   0  0  0  0  0  0  0  0  0  0  0  0
    0.5535   -1.4474   -1.6321 N   0  0  0  0  0  0  0  0  0  0  0  0
    0.4801   -2.2853   -1.0741 H   0  0  0  0  0  0  0  0  0  0  0  0
    1.1394   -1.5633   -2.9649 C   0  0  0  0  0  0  0  0  0  0  0  0
    2.0005   -0.8965   -3.0492 H   0  0  0  0  0  0  0  0  0  0  0  0
    1.4615   -2.5894   -3.1449 H   0  0  0  0  0  0  0  0  0  0  0  0
    0.4042   -1.2790   -3.7194 H   0  0  0  0  0  0  0  0  0  0  0  0
  5  6  2  0  0  0  0
  5  7  1  0  0  0  0
  2  3  1  0  0  0  0
  2  4  1  0  0  0  0
  2  5  1  0  0  0  0
  1  2  1  0  0  0  0
 22 23  2  0  0  0  0
 22 24  1  0  0  0  0
 20 21  1  0  0  0  0
 19 20  1  0  0  0  0
 17 18  1  0  0  0  0
 17 19  2  0  0  0  0
 15 16  1  0  0  0  0
 15 17  1  0  0  0  0
 14 15  1  0  0  0  0
 14 20  2  0  0  0  0
 11 12  1  0  0  0  0
 11 13  1  0  0  0  0
 11 14  1  0  0  0  0
  9 10  1  0  0  0  0
  9 11  1  0  0  0  0
  9 22  1  0  0  0  0
  7  8  1  0  0  0  0
  7  9  1  0  0  0  0
 26 27  1  0  0  0  0
 26 28  1  0  0  0  0
 26 29  1  0  0  0  0
 24 25  1  0  0  0  0
 24 26  1  0  0  0  0
M  END
$$$$
default_name
  -OEChem-01062215323D

 29 29  0     1  0  0  0  0  0999 V2000
   -3.6042   -3.5728    1.4576 H   0  0  0  0  0  0  0  0  0  0  0  0
   -3.5202   -2.6488    0.8866 C   0  0  0  0  0  0  0  0  0  0  0  0
   -4.2052   -1.9048    1.2896 H   0  0  0  0  0  0  0  0  0  0  0  0
   -3.7552   -2.8428   -0.1584 H   0  0  0  0  0  0  0  0  0  0  0  0
   -2.1052   -2.1358    0.9946 C   0  0  0  0  0  0  0  0  0  0  0  0
   -1.2852   -2.7288    1.6826 O   0  0  0  0  0  0  0  0  0  0  0  0
   -1.8202   -1.0288    0.3146 N   0  0  0  0  0  0  0  0  0  0  0  0
   -2.5542   -0.5788   -0.2104 H   0  0  0  0  0  0  0  0  0  0  0  0
   -0.5102   -0.3728    0.3086 C   0  0  1  0  0  0  0  0  0  0  0  0
   -0.6308    0.6519    0.6633 H   0  0  0  0  0  0  0  0  0  0  0  0
    0.4277   -1.1091    1.2828 C   0  0  0  0  0  0  0  0  0  0  0  0
    0.4937   -2.1587    0.9908 H   0  0  0  0  0  0  0  0  0  0  0  0
    1.4273   -0.6769    1.2094 H   0  0  0  0  0  0  0  0  0  0  0  0
   -0.0190   -1.0388    2.7201 C   0  0  0  0  0  0  0  0  0  0  0  0
    0.0796    0.0556    3.5524 N   0  0  0  0  0  0  0  0  0  0  0  0
    0.5332    0.9301    3.3341 H   0  0  0  0  0  0  0  0  0  0  0  0
   -0.5302   -0.2470    4.7108 C   0  0  0  0  0  0  0  0  0  0  0  0
   -0.6121    0.4125    5.5661 H   0  0  0  0  0  0  0  0  0  0  0  0
   -1.0321   -1.4896    4.6607 N   0  0  0  0  0  0  0  0  0  0  0  0
   -0.7100   -2.0045    3.4023 C   0  0  0  0  0  0  0  0  0  0  0  0
   -0.9880   -2.9781    3.0199 H   0  0  0  0  0  0  0  0  0  0  0  0
    0.0644   -0.3125   -1.1169 C   0  0  0  0  0  0  0  0  0  0  0  0
    0.3054    0.7744   -1.6416 O   0  0  0  0  0  0  0  0  0  0  0  0
    0.2672   -1.4754   -1.7487 N   0  0  0  0  0  0  0  0  0  0  0  0
   -0.0064   -2.3219   -1.2717 H   0  0  0  0  0  0  0  0  0  0  0  0
    0.8104   -1.5971   -3.0990 C   0  0  0  0  0  0  0  0  0  0  0  0
    1.8066   -1.1508   -3.1381 H   0  0  0  0  0  0  0  0  0  0  0  0
    0.8766   -2.6477   -3.3831 H   0  0  0  0  0  0  0  0  0  0  0  0
    0.1663   -1.0726   -3.8066 H   0  0  0  0  0  0  0  0  0  0  0  0
  5  6  2  0  0  0  0
  5  7  1  0  0  0  0
  2  3  1  0  0  0  0
  2  4  1  0  0  0  0
  2  5  1  0  0  0  0
  1  2  1  0  0  0  0
 22 23  2  0  0  0  0
 22 24  1  0  0  0  0
 20 21  1  0  0  0  0
 19 20  1  0  0  0  0
 17 18  1  0  0  0  0
 17 19  2  0  0  0  0
 15 16  1  0  0  0  0
 15 17  1  0  0  0  0
 14 15  1  0  0  0  0
 14 20  2  0  0  0  0
 11 12  1  0  0  0  0
 11 13  1  0  0  0  0
 11 14  1  0  0  0  0
  9 10  1  0  0  0  0
  9 11  1  0  0  0  0
  9 22  1  0  0  0  0
  7  8  1  0  0  0  0
  7  9  1  0  0  0  0
 26 27  1  0  0  0  0
 26 28  1  0  0  0  0
 26 29  1  0  0  0  0
 24 25  1  0  0  0  0
 24 26  1  0  0  0  0
M  END
$$$$
default_name
  -OEChem-01062215323D

 29 29  0     1  0  0  0  0  0999 V2000
   -3.6042   -3.5728    1.4576 H   0  0  0  0  0  0  0  0  0  0  0  0
   -3.5202   -2.6488    0.8866 C   0  0  0  0  0  0  0  0  0  0  0  0
   -4.2052   -1.9048    1.2896 H   0  0  0  0  0  0  0  0  0  0  0  0
   -3.7552   -2.8428   -0.1584 H   0  0  0  0  0  0  0  0  0  0  0  0
   -2.1052   -2.1358    0.9946 C   0  0  0  0  0  0  0  0  0  0  0  0
   -1.2852   -2.7288    1.6826 O   0  0  0  0  0  0  0  0  0  0  0  0
   -1.8202   -1.0288    0.3146 N   0  0  0  0  0  0  0  0  0  0  0  0
   -2.5542   -0.5788   -0.2104 H   0  0  0  0  0  0  0  0  0  0  0  0
   -0.5102   -0.3728    0.3086 C   0  0  1  0  0  0  0  0  0  0  0  0
   -0.6308    0.6519    0.6633 H   0  0  0  0  0  0  0  0  0  0  0  0
    0.4277   -1.1091    1.2828 C   0  0  0  0  0  0  0  0  0  0  0  0
    0.4937   -2.1587    0.9908 H   0  0  0  0  0  0  0  0  0  0  0  0
    1.4273   -0.6769    1.2094 H   0  0  0  0  0  0  0  0  0  0  0  0
   -0.0190   -1.0388    2.7201 C   0  0  0  0  0  0  0  0  0  0  0  0
    0.0796    0.0556    3.5524 N   0  0  0  0  0  0  0  0  0  0  0  0
    0.5332    0.9301    3.3341 H   0  0  0  0  0  0  0  0  0  0  0  0
   -0.5302   -0.2470    4.7108 C   0  0  0  0  0  0  0  0  0  0  0  0
   -0.6121    0.4125    5.5661 H   0  0  0  0  0  0  0  0  0  0  0  0
   -1.0321   -1.4896    4.6607 N   0  0  0  0  0  0  0  0  0  0  0  0
   -0.7100   -2.0045    3.4023 C   0  0  0  0  0  0  0  0  0  0  0  0
   -0.9880   -2.9781    3.0199 H   0  0  0  0  0  0  0  0  0  0  0  0
    0.0644   -0.3125   -1.1169 C   0  0  0  0  0  0  0  0  0  0  0  0
    0.5605    0.7311   -1.5406 O   0  0  0  0  0  0  0  0  0  0  0  0
   -0.0172   -1.4225   -1.8611 N   0  0  0  0  0  0  0  0  0  0  0  0
   -0.4870   -2.2214   -1.4612 H   0  0  0  0  0  0  0  0  0  0  0  0
    0.4830   -1.5378   -3.2285 C   0  0  0  0  0  0  0  0  0  0  0  0
    1.5574   -1.3413   -3.2466 H   0  0  0  0  0  0  0  0  0  0  0  0
    0.2953   -2.5407   -3.6130 H   0  0  0  0  0  0  0  0  0  0  0  0
   -0.0149   -0.8077   -3.8684 H   0  0  0  0  0  0  0  0  0  0  0  0
  5  6  2  0  0  0  0
  5  7  1  0  0  0  0
  2  3  1  0  0  0  0
  2  4  1  0  0  0  0
  2  5  1  0  0  0  0
  1  2  1  0  0  0  0
 22 23  2  0  0  0  0
 22 24  1  0  0  0  0
 20 21  1  0  0  0  0
 19 20  1  0  0  0  0
 17 18  1  0  0  0  0
 17 19  2  0  0  0  0
 15 16  1  0  0  0  0
 15 17  1  0  0  0  0
 14 15  1  0  0  0  0
 14 20  2  0  0  0  0
 11 12  1  0  0  0  0
 11 13  1  0  0  0  0
 11 14  1  0  0  0  0
  9 10  1  0  0  0  0
  9 11  1  0  0  0  0
  9 22  1  0  0  0  0
  7  8  1  0  0  0  0
  7  9  1  0  0  0  0
 26 27  1  0  0  0  0
 26 28  1  0  0  0  0
 26 29  1  0  0  0  0
 24 25  1  0  0  0  0
 24 26  1  0  0  0  0
M  END
$$$$
default_name
  -OEChem-01062215323D

 29 29  0     1  0  0  0  0  0999 V2000
   -3.6042   -3.5728    1.4576 H   0  0  0  0  0  0  0  0  0  0  0  0
   -3.5202   -2.6488    0.8866 C   0  0  0  0  0  0  0  0  0  0  0  0
   -4.2052   -1.9048    1.2896 H   0  0  0  0  0  0  0  0  0  0  0  0
   -3.7552   -2.8428   -0.1584 H   0  0  0  0  0  0  0  0  0  0  0  0
   -2.1052   -2.1358    0.9946 C   0  0  0  0  0  0  0  0  0  0  0  0
   -1.2852   -2.7288    1.6826 O   0  0  0  0  0  0  0  0  0  0  0  0
   -1.8202   -1.0288    0.3146 N   0  0  0  0  0  0  0  0  0  0  0  0
   -2.5542   -0.5788   -0.2104 H   0  0  0  0  0  0  0  0  0  0  0  0
   -0.5102   -0.3728    0.3086 C   0  0  1  0  0  0  0  0  0  0  0  0
   -0.6308    0.6519    0.6633 H   0  0  0  0  0  0  0  0  0  0  0  0
    0.4277   -1.1091    1.2828 C   0  0  0  0  0  0  0  0  0  0  0  0
    0.4937   -2.1587    0.9908 H   0  0  0  0  0  0  0  0  0  0  0  0
    1.4273   -0.6769    1.2094 H   0  0  0  0  0  0  0  0  0  0  0  0
   -0.0190   -1.0388    2.7201 C   0  0  0  0  0  0  0  0  0  0  0  0
    0.0796    0.0556    3.5524 N   0  0  0  0  0  0  0  0  0  0  0  0
    0.5332    0.9301    3.3341 H   0  0  0  0  0  0  0  0  0  0  0  0
   -0.5302   -0.2470    4.7108 C   0  0  0  0  0  0  0  0  0  0  0  0
   -0.6121    0.4125    5.5661 H   0  0  0  0  0  0  0  0  0  0  0  0
   -1.0321   -1.4896    4.6607 N   0  0  0  0  0  0  0  0  0  0  0  0
   -0.7100   -2.0045    3.4023 C   0  0  0  0  0  0  0  0  0  0  0  0
   -0.9880   -2.9781    3.0199 H   0  0  0  0  0  0  0  0  0  0  0  0
    0.0644   -0.3125   -1.1169 C   0  0  0  0  0  0  0  0  0  0  0  0
    0.7975    0.6184   -1.4499 O   0  0  0  0  0  0  0  0  0  0  0  0
   -0.2803   -1.2923   -1.9617 N   0  0  0  0  0  0  0  0  0  0  0  0
   -0.9291   -1.9907   -1.6297 H   0  0  0  0  0  0  0  0  0  0  0  0
    0.1798   -1.3895   -3.3445 C   0  0  0  0  0  0  0  0  0  0  0  0
    1.2699   -1.4551   -3.3673 H   0  0  0  0  0  0  0  0  0  0  0  0
   -0.2429   -2.2757   -3.8187 H   0  0  0  0  0  0  0  0  0  0  0  0
   -0.1271   -0.5024   -3.9007 H   0  0  0  0  0  0  0  0  0  0  0  0
  5  6  2  0  0  0  0
  5  7  1  0  0  0  0
  2  3  1  0  0  0  0
  2  4  1  0  0  0  0
  2  5  1  0  0  0  0
  1  2  1  0  0  0  0
 22 23  2  0  0  0  0
 22 24  1  0  0  0  0
 20 21  1  0  0  0  0
 19 20  1  0  0  0  0
 17 18  1  0  0  0  0
 17 19  2  0  0  0  0
 15 16  1  0  0  0  0
 15 17  1  0  0  0  0
 14 15  1  0  0  0  0
 14 20  2  0  0  0  0
 11 12  1  0  0  0  0
 11 13  1  0  0  0  0
 11 14  1  0  0  0  0
  9 10  1  0  0  0  0
  9 11  1  0  0  0  0
  9 22  1  0  0  0  0
  7  8  1  0  0  0  0
  7  9  1  0  0  0  0
 26 27  1  0  0  0  0
 26 28  1  0  0  0  0
 26 29  1  0  0  0  0
 24 25  1  0  0  0  0
 24 26  1  0  0  0  0
M  END
$$$$
default_name
  -OEChem-01062215323D

 29 29  0     1  0  0  0  0  0999 V2000
   -3.6042   -3.5728    1.4576 H   0  0  0  0  0  0  0  0  0  0  0  0
   -3.5202   -2.6488    0.8866 C   0  0  0  0  0  0  0  0  0  0  0  0
   -4.2052   -1.9048    1.2896 H   0  0  0  0  0  0  0  0  0  0  0  0
   -3.7552   -2.8428   -0.1584 H   0  0  0  0  0  0  0  0  0  0  0  0
   -2.1052   -2.1358    0.9946 C   0  0  0  0  0  0  0  0  0  0  0  0
   -1.2852   -2.7288    1.6826 O   0  0  0  0  0  0  0  0  0  0  0  0
   -1.8202   -1.0288    0.3146 N   0  0  0  0  0  0  0  0  0  0  0  0
   -2.5542   -0.5788   -0.2104 H   0  0  0  0  0  0  0  0  0  0  0  0
   -0.5102   -0.3728    0.3086 C   0  0  1  0  0  0  0  0  0  0  0  0
   -0.6308    0.6519    0.6633 H   0  0  0  0  0  0  0  0  0  0  0  0
    0.4277   -1.1091    1.2828 C   0  0  0  0  0  0  0  0  0  0  0  0
    0.4937   -2.1587    0.9908 H   0  0  0  0  0  0  0  0  0  0  0  0
    1.4273   -0.6769    1.2094 H   0  0  0  0  0  0  0  0  0  0  0  0
   -0.0190   -1.0388    2.7201 C   0  0  0  0  0  0  0  0  0  0  0  0
    0.0796    0.0556    3.5524 N   0  0  0  0  0  0  0  0  0  0  0  0
    0.5332    0.9301    3.3341 H   0  0  0  0  0  0  0  0  0  0  0  0
   -0.5302   -0.2470    4.7108 C   0  0  0  0  0  0  0  0  0  0  0  0
   -0.6121    0.4125    5.5661 H   0  0  0  0  0  0  0  0  0  0  0  0
   -1.0321   -1.4896    4.6607 N   0  0  0  0  0  0  0  0  0  0  0  0
   -0.7100   -2.0045    3.4023 C   0  0  0  0  0  0  0  0  0  0  0  0
   -0.9880   -2.9781    3.0199 H   0  0  0  0  0  0  0  0  0  0  0  0
    0.0644   -0.3125   -1.1169 C   0  0  0  0  0  0  0  0  0  0  0  0
    1.0003    0.4438   -1.3755 O   0  0  0  0  0  0  0  0  0  0  0  0
   -0.5043   -1.0937   -2.0436 N   0  0  0  0  0  0  0  0  0  0  0  0
   -1.3025   -1.6456   -1.7656 H   0  0  0  0  0  0  0  0  0  0  0  0
   -0.0788   -1.1623   -3.4391 C   0  0  0  0  0  0  0  0  0  0  0  0
    0.9636   -1.4844   -3.4920 H   0  0  0  0  0  0  0  0  0  0  0  0
   -0.7013   -1.8707   -3.9864 H   0  0  0  0  0  0  0  0  0  0  0  0
   -0.1625   -0.1775   -3.9013 H   0  0  0  0  0  0  0  0  0  0  0  0
  5  6  2  0  0  0  0
  5  7  1  0  0  0  0
  2  3  1  0  0  0  0
  2  4  1  0  0  0  0
  2  5  1  0  0  0  0
  1  2  1  0  0  0  0
 22 23  2  0  0  0  0
 22 24  1  0  0  0  0
 20 21  1  0  0  0  0
 19 20  1  0  0  0  0
 17 18  1  0  0  0  0
 17 19  2  0  0  0  0
 15 16  1  0  0  0  0
 15 17  1  0  0  0  0
 14 15  1  0  0  0  0
 14 20  2  0  0  0  0
 11 12  1  0  0  0  0
 11 13  1  0  0  0  0
 11 14  1  0  0  0  0
  9 10  1  0  0  0  0
  9 11  1  0  0  0  0
  9 22  1  0  0  0  0
  7  8  1  0  0  0  0
  7  9  1  0  0  0  0
 26 27  1  0  0  0  0
 26 28  1  0  0  0  0
 26 29  1  0  0  0  0
 24 25  1  0  0  0  0
 24 26  1  0  0  0  0
M  END
$$$$
default_name
  -OEChem-01062215323D

 29 29  0     1  0  0  0  0  0999 V2000
   -3.6042   -3.5728    1.4576 H   0  0  0  0  0  0  0  0  0  0  0  0
   -3.5202   -2.6488    0.8866 C   0  0  0  0  0  0  0  0  0  0  0  0
   -4.2052   -1.9048    1.2896 H   0  0  0  0  0  0  0  0  0  0  0  0
   -3.7552   -2.8428   -0.1584 H   0  0  0  0  0  0  0  0  0  0  0  0
   -2.1052   -2.1358    0.9946 C   0  0  0  0  0  0  0  0  0  0  0  0
   -1.2852   -2.7288    1.6826 O   0  0  0  0  0  0  0  0  0  0  0  0
   -1.8202   -1.0288    0.3146 N   0  0  0  0  0  0  0  0  0  0  0  0
   -2.5542   -0.5788   -0.2104 H   0  0  0  0  0  0  0  0  0  0  0  0
   -0.5102   -0.3728    0.3086 C   0  0  1  0  0  0  0  0  0  0  0  0
   -0.6308    0.6519    0.6633 H   0  0  0  0  0  0  0  0  0  0  0  0
    0.4277   -1.1091    1.2828 C   0  0  0  0  0  0  0  0  0  0  0  0
    0.4937   -2.1587    0.9908 H   0  0  0  0  0  0  0  0  0  0  0  0
    1.4273   -0.6769    1.2094 H   0  0  0  0  0  0  0  0  0  0  0  0
   -0.0190   -1.0388    2.7201 C   0  0  0  0  0  0  0  0  0  0  0  0
    0.0796    0.0556    3.5524 N   0  0  0  0  0  0  0  0  0  0  0  0
    0.5332    0.9301    3.3341 H   0  0  0  0  0  0  0  0  0  0  0  0
   -0.5302   -0.2470    4.7108 C   0  0  0  0  0  0  0  0  0  0  0  0
   -0.6121    0.4125    5.5661 H   0  0  0  0  0  0  0  0  0  0  0  0
   -1.0321   -1.4896    4.6607 N   0  0  0  0  0  0  0  0  0  0  0  0
   -0.7100   -2.0045    3.4023 C   0  0  0  0  0  0  0  0  0  0  0  0
   -0.9880   -2.9781    3.0199 H   0  0  0  0  0  0  0  0  0  0  0  0
    0.0644   -0.3125   -1.1169 C   0  0  0  0  0  0  0  0  0  0  0  0
    1.1551    0.2194   -1.3226 O   0  0  0  0  0  0  0  0  0  0  0  0
   -0.6739   -0.8402   -2.1013 N   0  0  0  0  0  0  0  0  0  0  0  0
   -1.5818   -1.2095   -1.8598 H   0  0  0  0  0  0  0  0  0  0  0  0
   -0.2750   -0.8717   -3.5059 C   0  0  0  0  0  0  0  0  0  0  0  0
    0.6596   -1.4271   -3.6122 H   0  0  0  0  0  0  0  0  0  0  0  0
   -1.0486   -1.3534   -4.1046 H   0  0  0  0  0  0  0  0  0  0  0  0
   -0.1187    0.1450   -3.8700 H   0  0  0  0  0  0  0  0  0  0  0  0
  5  6  2  0  0  0  0
  5  7  1  0  0  0  0
  2  3  1  0  0  0  0
  2  4  1  0  0  0  0
  2  5  1  0  0  0  0
  1  2  1  0  0  0  0
 22 23  2  0  0  0  0
 22 24  1  0  0  0  0
 20 21  1  0  0  0  0
 19 20  1  0  0  0  0
 17 18  1  0  0  0  0
 17 19  2  0  0  0  0
 15 16  1  0  0  0  0
 15 17  1  0  0  0  0
 14 15  1  0  0  0  0
 14 20  2  0  0  0  0
 11 12  1  0  0  0  0
 11 13  1  0  0  0  0
 11 14  1  0  0  0  0
  9 10  1  0  0  0  0
  9 11  1  0  0  0  0
  9 22  1  0  0  0  0
  7  8  1  0  0  0  0
  7  9  1  0  0  0  0
 26 27  1  0  0  0  0
 26 28  1  0  0  0  0
 26 29  1  0  0  0  0
 24 25  1  0  0  0  0
 24 26  1  0  0  0  0
M  END
$$$$
default_name
  -OEChem-01062215323D

 29 29  0     1  0  0  0  0  0999 V2000
   -3.6042   -3.5728    1.4576 H   0  0  0  0  0  0  0  0  0  0  0  0
   -3.5202   -2.6488    0.8866 C   0  0  0  0  0  0  0  0  0  0  0  0
   -4.2052   -1.9048    1.2896 H   0  0  0  0  0  0  0  0  0  0  0  0
   -3.7552   -2.8428   -0.1584 H   0  0  0  0  0  0  0  0  0  0  0  0
   -2.1052   -2.1358    0.9946 C   0  0  0  0  0  0  0  0  0  0  0  0
   -1.2852   -2.7288    1.6826 O   0  0  0  0  0  0  0  0  0  0  0  0
   -1.8202   -1.0288    0.3146 N   0  0  0  0  0  0  0  0  0  0  0  0
   -2.5542   -0.5788   -0.2104 H   0  0  0  0  0  0  0  0  0  0  0  0
   -0.5102   -0.3728    0.3086 C   0  0  1  0  0  0  0  0  0  0  0  0
   -0.6308    0.6519    0.6633 H   0  0  0  0  0  0  0  0  0  0  0  0
    0.4277   -1.1091    1.2828 C   0  0  0  0  0  0  0  0  0  0  0  0
    0.4937   -2.1587    0.9908 H   0  0  0  0  0  0  0  0  0  0  0  0
    1.4273   -0.6769    1.2094 H   0  0  0  0  0  0  0  0  0  0  0  0
   -0.0190   -1.0388    2.7201 C   0  0  0  0  0  0  0  0  0  0  0  0
    0.0796    0.0556    3.5524 N   0  0  0  0  0  0  0  0  0  0  0  0
    0.5332    0.9301    3.3341 H   0  0  0  0  0  0  0  0  0  0  0  0
   -0.5302   -0.2470    4.7108 C   0  0  0  0  0  0  0  0  0  0  0  0
   -0.6121    0.4125    5.5661 H   0  0  0  0  0  0  0  0  0  0  0  0
   -1.0321   -1.4896    4.6607 N   0  0  0  0  0  0  0  0  0  0  0  0
   -0.7100   -2.0045    3.4023 C   0  0  0  0  0  0  0  0  0  0  0  0
   -0.9880   -2.9781    3.0199 H   0  0  0  0  0  0  0  0  0  0  0  0
    0.0644   -0.3125   -1.1169 C   0  0  0  0  0  0  0  0  0  0  0  0
    1.2513   -0.0396   -1.2947 O   0  0  0  0  0  0  0  0  0  0  0  0
   -0.7774   -0.5491   -2.1307 N   0  0  0  0  0  0  0  0  0  0  0  0
   -1.7479   -0.7122   -1.9058 H   0  0  0  0  0  0  0  0  0  0  0  0
   -0.3955   -0.5374   -3.5404 C   0  0  0  0  0  0  0  0  0  0  0  0
    0.3783   -1.2873   -3.7196 H   0  0  0  0  0  0  0  0  0  0  0  0
   -1.2612   -0.7590   -4.1651 H   0  0  0  0  0  0  0  0  0  0  0  0
    0.0012    0.4429   -3.8091 H   0  0  0  0  0  0  0  0  0  0  0  0
  5  6  2  0  0  0  0
  5  7  1  0  0  0  0
  2  3  1  0  0  0  0
  2  4  1  0  0  0  0
  2  5  1  0  0  0  0
  1  2  1  0  0  0  0
 22 23  2  0  0  0  0
 22 24  1  0  0  0  0
 20 21  1  0  0  0  0
 19 20  1  0  0  0  0
 17 18  1  0  0  0  0
 17 19  2  0  0  0  0
 15 16  1  0  0  0  0
 15 17  1  0  0  0  0
 14 15  1  0  0  0  0
 14 20  2  0  0  0  0
 11 12  1  0  0  0  0
 11 13  1  0  0  0  0
 11 14  1  0  0  0  0
  9 10  1  0  0  0  0
  9 11  1  0  0  0  0
  9 22  1  0  0  0  0
  7  8  1  0  0  0  0
  7  9  1  0  0  0  0
 26 27  1  0  0  0  0
 26 28  1  0  0  0  0
 26 29  1  0  0  0  0
 24 25  1  0  0  0  0
 24 26  1  0  0  0  0
M  END
$$$$
default_name
  -OEChem-01062215323D

 29 29  0     1  0  0  0  0  0999 V2000
   -3.6042   -3.5728    1.4576 H   0  0  0  0  0  0  0  0  0  0  0  0
   -3.5202   -2.6488    0.8866 C   0  0  0  0  0  0  0  0  0  0  0  0
   -4.2052   -1.9048    1.2896 H   0  0  0  0  0  0  0  0  0  0  0  0
   -3.7552   -2.8428   -0.1584 H   0  0  0  0  0  0  0  0  0  0  0  0
   -2.1052   -2.1358    0.9946 C   0  0  0  0  0  0  0  0  0  0  0  0
   -1.2852   -2.7288    1.6826 O   0  0  0  0  0  0  0  0  0  0  0  0
   -1.8202   -1.0288    0.3146 N   0  0  0  0  0  0  0  0  0  0  0  0
   -2.5542   -0.5788   -0.2104 H   0  0  0  0  0  0  0  0  0  0  0  0
   -0.5102   -0.3728    0.3086 C   0  0  1  0  0  0  0  0  0  0  0  0
   -0.6308    0.6519    0.6633 H   0  0  0  0  0  0  0  0  0  0  0  0
    0.4277   -1.1091    1.2828 C   0  0  0  0  0  0  0  0  0  0  0  0
    0.4937   -2.1587    0.9908 H   0  0  0  0  0  0  0  0  0  0  0  0
    1.4273   -0.6769    1.2094 H   0  0  0  0  0  0  0  0  0  0  0  0
   -0.0190   -1.0388    2.7201 C   0  0  0  0  0  0  0  0  0  0  0  0
    0.0796    0.0556    3.5524 N   0  0  0  0  0  0  0  0  0  0  0  0
    0.5332    0.9301    3.3341 H   0  0  0  0  0  0  0  0  0  0  0  0
   -0.5302   -0.2470    4.7108 C   0  0  0  0  0  0  0  0  0  0  0  0
   -0.6121    0.4125    5.5661 H   0  0  0  0  0  0  0  0  0  0  0  0
   -1.0321   -1.4896    4.6607 N   0  0  0  0  0  0  0  0  0  0  0  0
   -0.7100   -2.0045    3.4023 C   0  0  0  0  0  0  0  0  0  0  0  0
   -0.9880   -2.9781    3.0199 H   0  0  0  0  0  0  0  0  0  0  0  0
    0.0644   -0.3125   -1.1169 C   0  0  0  0  0  0  0  0  0  0  0  0
    1.2824   -0.3156   -1.2938 O   0  0  0  0  0  0  0  0  0  0  0  0
   -0.8079   -0.2403   -2.1299 N   0  0  0  0  0  0  0  0  0  0  0  0
   -1.7895   -0.1876   -1.9004 H   0  0  0  0  0  0  0  0  0  0  0  0
   -0.4320   -0.1824   -3.5401 C   0  0  0  0  0  0  0  0  0  0  0  0
    0.1392   -1.0744   -3.8071 H   0  0  0  0  0  0  0  0  0  0  0  0
   -1.3246   -0.1279   -4.1640 H   0  0  0  0  0  0  0  0  0  0  0  0
    0.1891    0.6960   -3.7226 H   0  0  0  0  0  0  0  0  0  0  0  0
  5  6  2  0  0  0  0
  5  7  1  0  0  0  0
  2  3  1  0  0  0  0
  2  4  1  0  0  0  0
  2  5  1  0  0  0  0
  1  2  1  0  0  0  0
 22 23  2  0  0  0  0
 22 24  1  0  0  0  0
 20 21  1  0  0  0  0
 19 20  1  0  0  0  0
 17 18  1  0  0  0  0
 17 19  2  0  0  0  0
 15 16  1  0  0  0  0
 15 17  1  0  0  0  0
 14 15  1  0  0  0  0
 14 20  2  0  0  0  0
 11 12  1  0  0  0  0
 11 13  1  0  0  0  0
 11 14  1  0  0  0  0
  9 10  1  0  0  0  0
  9 11  1  0  0  0  0
  9 22  1  0  0  0  0
  7  8  1  0  0  0  0
  7  9  1  0  0  0  0
 26 27  1  0  0  0  0
 26 28  1  0  0  0  0
 26 29  1  0  0  0  0
 24 25  1  0  0  0  0
 24 26  1  0  0  0  0
M  END
$$$$
default_name
  -OEChem-01062215323D

 29 29  0     1  0  0  0  0  0999 V2000
   -3.6042   -3.5728    1.4576 H   0  0  0  0  0  0  0  0  0  0  0  0
   -3.5202   -2.6488    0.8866 C   0  0  0  0  0  0  0  0  0  0  0  0
   -4.2052   -1.9048    1.2896 H   0  0  0  0  0  0  0  0  0  0  0  0
   -3.7552   -2.8428   -0.1584 H   0  0  0  0  0  0  0  0  0  0  0  0
   -2.1052   -2.1358    0.9946 C   0  0  0  0  0  0  0  0  0  0  0  0
   -1.2852   -2.7288    1.6826 O   0  0  0  0  0  0  0  0  0  0  0  0
   -1.8202   -1.0288    0.3146 N   0  0  0  0  0  0  0  0  0  0  0  0
   -2.5542   -0.5788   -0.2104 H   0  0  0  0  0  0  0  0  0  0  0  0
   -0.5102   -0.3728    0.3086 C   0  0  1  0  0  0  0  0  0  0  0  0
   -0.6308    0.6519    0.6633 H   0  0  0  0  0  0  0  0  0  0  0  0
    0.4277   -1.1091    1.2828 C   0  0  0  0  0  0  0  0  0  0  0  0
    0.4937   -2.1587    0.9908 H   0  0  0  0  0  0  0  0  0  0  0  0
    1.4273   -0.6769    1.2094 H   0  0  0  0  0  0  0  0  0  0  0  0
   -0.0190   -1.0388    2.7201 C   0  0  0  0  0  0  0  0  0  0  0  0
    0.0796    0.0556    3.5524 N   0  0  0  0  0  0  0  0  0  0  0  0
    0.5332    0.9301    3.3341 H   0  0  0  0  0  0  0  0  0  0  0  0
   -0.5302   -0.2470    4.7108 C   0  0  0  0  0  0  0  0  0  0  0  0
   -0.6121    0.4125    5.5661 H   0  0  0  0  0  0  0  0  0  0  0  0
   -1.0321   -1.4896    4.6607 N   0  0  0  0  0  0  0  0  0  0  0  0
   -0.7100   -2.0045    3.4023 C   0  0  0  0  0  0  0  0  0  0  0  0
   -0.9880   -2.9781    3.0199 H   0  0  0  0  0  0  0  0  0  0  0  0
    0.0644   -0.3125   -1.1169 C   0  0  0  0  0  0  0  0  0  0  0  0
    1.2463   -0.5897   -1.3200 O   0  0  0  0  0  0  0  0  0  0  0  0
   -0.7633    0.0653   -2.0990 N   0  0  0  0  0  0  0  0  0  0  0  0
   -1.7038    0.3287   -1.8440 H   0  0  0  0  0  0  0  0  0  0  0  0
   -0.3822    0.1694   -3.5051 C   0  0  0  0  0  0  0  0  0  0  0  0
   -0.0417   -0.8029   -3.8685 H   0  0  0  0  0  0  0  0  0  0  0  0
   -1.2344    0.4967   -4.1013 H   0  0  0  0  0  0  0  0  0  0  0  0
    0.4321    0.8870   -3.6166 H   0  0  0  0  0  0  0  0  0  0  0  0
  5  6  2  0  0  0  0
  5  7  1  0  0  0  0
  2  3  1  0  0  0  0
  2  4  1  0  0  0  0
  2  5  1  0  0  0  0
  1  2  1  0  0  0  0
 22 23  2  0  0  0  0
 22 24  1  0  0  0  0
 20 21  1  0  0  0  0
 19 20  1  0  0  0  0
 17 18  1  0  0  0  0
 17 19  2  0  0  0  0
 15 16  1  0  0  0  0
 15 17  1  0  0  0  0
 14 15  1  0  0  0  0
 14 20  2  0  0  0  0
 11 12  1  0  0  0  0
 11 13  1  0  0  0  0
 11 14  1  0  0  0  0
  9 10  1  0  0  0  0
  9 11  1  0  0  0  0
  9 22  1  0  0  0  0
  7  8  1  0  0  0  0
  7  9  1  0  0  0  0
 26 27  1  0  0  0  0
 26 28  1  0  0  0  0
 26 29  1  0  0  0  0
 24 25  1  0  0  0  0
 24 26  1  0  0  0  0
M  END
$$$$
default_name
  -OEChem-01062215323D

 29 29  0     1  0  0  0  0  0999 V2000
   -3.6042   -3.5728    1.4576 H   0  0  0  0  0  0  0  0  0  0  0  0
   -3.5202   -2.6488    0.8866 C   0  0  0  0  0  0  0  0  0  0  0  0
   -4.2052   -1.9048    1.2896 H   0  0  0  0  0  0  0  0  0  0  0  0
   -3.7552   -2.8428   -0.1584 H   0  0  0  0  0  0  0  0  0  0  0  0
   -2.1052   -2.1358    0.9946 C   0  0  0  0  0  0  0  0  0  0  0  0
   -1.2852   -2.7288    1.6826 O   0  0  0  0  0  0  0  0  0  0  0  0
   -1.8202   -1.0288    0.3146 N   0  0  0  0  0  0  0  0  0  0  0  0
   -2.5542   -0.5788   -0.2104 H   0  0  0  0  0  0  0  0  0  0  0  0
   -0.5102   -0.3728    0.3086 C   0  0  1  0  0  0  0  0  0  0  0  0
   -0.6308    0.6519    0.6633 H   0  0  0  0  0  0  0  0  0  0  0  0
    0.4277   -1.1091    1.2828 C   0  0  0  0  0  0  0  0  0  0  0  0
    0.4937   -2.1587    0.9908 H   0  0  0  0  0  0  0  0  0  0  0  0
    1.4273   -0.6769    1.2094 H   0  0  0  0  0  0  0  0  0  0  0  0
   -0.0190   -1.0388    2.7201 C   0  0  0  0  0  0  0  0  0  0  0  0
    0.0796    0.0556    3.5524 N   0  0  0  0  0  0  0  0  0  0  0  0
    0.5332    0.9301    3.3341 H   0  0  0  0  0  0  0  0  0  0  0  0
   -0.5302   -0.2470    4.7108 C   0  0  0  0  0  0  0  0  0  0  0  0
   -0.6121    0.4125    5.5661 H   0  0  0  0  0  0  0  0  0  0  0  0
   -1.0321   -1.4896    4.6607 N   0  0  0  0  0  0  0  0  0  0  0  0
   -0.7100   -2.0045    3.4023 C   0  0  0  0  0  0  0  0  0  0  0  0
   -0.9880   -2.9781    3.0199 H   0  0  0  0  0  0  0  0  0  0  0  0
    0.0644   -0.3125   -1.1169 C   0  0  0  0  0  0  0  0  0  0  0  0
    1.1453   -0.8432   -1.3714 O   0  0  0  0  0  0  0  0  0  0  0  0
   -0.6466    0.3468   -2.0401 N   0  0  0  0  0  0  0  0  0  0  0  0
   -1.4966    0.8013   -1.7405 H   0  0  0  0  0  0  0  0  0  0  0  0
   -0.2493    0.4938   -3.4378 C   0  0  0  0  0  0  0  0  0  0  0  0
   -0.1518   -0.4913   -3.8997 H   0  0  0  0  0  0  0  0  0  0  0  0
   -0.9969    1.0723   -3.9812 H   0  0  0  0  0  0  0  0  0  0  0  0
    0.7138    1.0030   -3.4981 H   0  0  0  0  0  0  0  0  0  0  0  0
  5  6  2  0  0  0  0
  5  7  1  0  0  0  0
  2  3  1  0  0  0  0
  2  4  1  0  0  0  0
  2  5  1  0  0  0  0
  1  2  1  0  0  0  0
 22 23  2  0  0  0  0
 22 24  1  0  0  0  0
 20 21  1  0  0  0  0
 19 20  1  0  0  0  0
 17 18  1  0  0  0  0
 17 19  2  0  0  0  0
 15 16  1  0  0  0  0
 15 17  1  0  0  0  0
 14 15  1  0  0  0  0
 14 20  2  0  0  0  0
 11 12  1  0  0  0  0
 11 13  1  0  0  0  0
 11 14  1  0  0  0  0
  9 10  1  0  0  0  0
  9 11  1  0  0  0  0
  9 22  1  0  0  0  0
  7  8  1  0  0  0  0
  7  9  1  0  0  0  0
 26 27  1  0  0  0  0
 26 28  1  0  0  0  0
 26 29  1  0  0  0  0
 24 25  1  0  0  0  0
 24 26  1  0  0  0  0
M  END
$$$$
default_name
  -OEChem-01062215323D

 29 29  0     1  0  0  0  0  0999 V2000
   -3.6042   -3.5728    1.4576 H   0  0  0  0  0  0  0  0  0  0  0  0
   -3.5202   -2.6488    0.8866 C   0  0  0  0  0  0  0  0  0  0  0  0
   -4.2052   -1.9048    1.2896 H   0  0  0  0  0  0  0  0  0  0  0  0
   -3.7552   -2.8428   -0.1584 H   0  0  0  0  0  0  0  0  0  0  0  0
   -2.1052   -2.1358    0.9946 C   0  0  0  0  0  0  0  0  0  0  0  0
   -1.2852   -2.7288    1.6826 O   0  0  0  0  0  0  0  0  0  0  0  0
   -1.8202   -1.0288    0.3146 N   0  0  0  0  0  0  0  0  0  0  0  0
   -2.5542   -0.5788   -0.2104 H   0  0  0  0  0  0  0  0  0  0  0  0
   -0.5102   -0.3728    0.3086 C   0  0  1  0  0  0  0  0  0  0  0  0
   -0.6308    0.6519    0.6633 H   0  0  0  0  0  0  0  0  0  0  0  0
    0.4277   -1.1091    1.2828 C   0  0  0  0  0  0  0  0  0  0  0  0
    0.4937   -2.1587    0.9908 H   0  0  0  0  0  0  0  0  0  0  0  0
    1.4273   -0.6769    1.2094 H   0  0  0  0  0  0  0  0  0  0  0  0
   -0.0190   -1.0388    2.7201 C   0  0  0  0  0  0  0  0  0  0  0  0
    0.0796    0.0556    3.5524 N   0  0  0  0  0  0  0  0  0  0  0  0
    0.5332    0.9301    3.3341 H   0  0  0  0  0  0  0  0  0  0  0  0
   -0.5302   -0.2470    4.7108 C   0  0  0  0  0  0  0  0  0  0  0  0
   -0.6121    0.4125    5.5661 H   0  0  0  0  0  0  0  0  0  0  0  0
   -1.0321   -1.4896    4.6607 N   0  0  0  0  0  0  0  0  0  0  0  0
   -0.7100   -2.0045    3.4023 C   0  0  0  0  0  0  0  0  0  0  0  0
   -0.9880   -2.9781    3.0199 H   0  0  0  0  0  0  0  0  0  0  0  0
    0.0644   -0.3125   -1.1169 C   0  0  0  0  0  0  0  0  0  0  0  0
    0.9865   -1.0590   -1.4445 O   0  0  0  0  0  0  0  0  0  0  0  0
   -0.4657    0.5849   -1.9571 N   0  0  0  0  0  0  0  0  0  0  0  0
   -1.1821    1.1982   -1.5969 H   0  0  0  0  0  0  0  0  0  0  0  0
   -0.0424    0.7687   -3.3428 C   0  0  0  0  0  0  0  0  0  0  0  0
   -0.1839   -0.1609   -3.8987 H   0  0  0  0  0  0  0  0  0  0  0  0
   -0.6282    1.5598   -3.8119 H   0  0  0  0  0  0  0  0  0  0  0  0
    1.0150    1.0360   -3.3753 H   0  0  0  0  0  0  0  0  0  0  0  0
  5  6  2  0  0  0  0
  5  7  1  0  0  0  0
  2  3  1  0  0  0  0
  2  4  1  0  0  0  0
  2  5  1  0  0  0  0
  1  2  1  0  0  0  0
 22 23  2  0  0  0  0
 22 24  1  0  0  0  0
 20 21  1  0  0  0  0
 19 20  1  0  0  0  0
 17 18  1  0  0  0  0
 17 19  2  0  0  0  0
 15 16  1  0  0  0  0
 15 17  1  0  0  0  0
 14 15  1  0  0  0  0
 14 20  2  0  0  0  0
 11 12  1  0  0  0  0
 11 13  1  0  0  0  0
 11 14  1  0  0  0  0
  9 10  1  0  0  0  0
  9 11  1  0  0  0  0
  9 22  1  0  0  0  0
  7  8  1  0  0  0  0
  7  9  1  0  0  0  0
 26 27  1  0  0  0  0
 26 28  1  0  0  0  0
 26 29  1  0  0  0  0
 24 25  1  0  0  0  0
 24 26  1  0  0  0  0
M  END
$$$$
default_name
  -OEChem-01062215323D

 29 29  0     1  0  0  0  0  0999 V2000
   -3.6042   -3.5728    1.4576 H   0  0  0  0  0  0  0  0  0  0  0  0
   -3.5202   -2.6488    0.8866 C   0  0  0  0  0  0  0  0  0  0  0  0
   -4.2052   -1.9048    1.2896 H   0  0  0  0  0  0  0  0  0  0  0  0
   -3.7552   -2.8428   -0.1584 H   0  0  0  0  0  0  0  0  0  0  0  0
   -2.1052   -2.1358    0.9946 C   0  0  0  0  0  0  0  0  0  0  0  0
   -1.2852   -2.7288    1.6826 O   0  0  0  0  0  0  0  0  0  0  0  0
   -1.8202   -1.0288    0.3146 N   0  0  0  0  0  0  0  0  0  0  0  0
   -2.5542   -0.5788   -0.2104 H   0  0  0  0  0  0  0  0  0  0  0  0
   -0.5102   -0.3728    0.3086 C   0  0  1  0  0  0  0  0  0  0  0  0
   -0.6308    0.6519    0.6633 H   0  0  0  0  0  0  0  0  0  0  0  0
    0.4277   -1.1091    1.2828 C   0  0  0  0  0  0  0  0  0  0  0  0
    0.4937   -2.1587    0.9908 H   0  0  0  0  0  0  0  0  0  0  0  0
    1.4273   -0.6769    1.2094 H   0  0  0  0  0  0  0  0  0  0  0  0
   -0.0190   -1.0388    2.7201 C   0  0  0  0  0  0  0  0  0  0  0  0
    0.0796    0.0556    3.5524 N   0  0  0  0  0  0  0  0  0  0  0  0
    0.5332    0.9301    3.3341 H   0  0  0  0  0  0  0  0  0  0  0  0
   -0.5302   -0.2470    4.7108 C   0  0  0  0  0  0  0  0  0  0  0  0
   -0.6121    0.4125    5.5661 H   0  0  0  0  0  0  0  0  0  0  0  0
   -1.0321   -1.4896    4.6607 N   0  0  0  0  0  0  0  0  0  0  0  0
   -0.7100   -2.0045    3.4023 C   0  0  0  0  0  0  0  0  0  0  0  0
   -0.9880   -2.9781    3.0199 H   0  0  0  0  0  0  0  0  0  0  0  0
    0.0644   -0.3125   -1.1169 C   0  0  0  0  0  0  0  0  0  0  0  0
    0.7806   -1.2222   -1.5344 O   0  0  0  0  0  0  0  0  0  0  0  0
   -0.2331    0.7636   -1.8558 N   0  0  0  0  0  0  0  0  0  0  0  0
   -0.7817    1.4922   -1.4231 H   0  0  0  0  0  0  0  0  0  0  0  0
    0.2243    0.9755   -3.2266 C   0  0  0  0  0  0  0  0  0  0  0  0
   -0.1355    0.1658   -3.8654 H   0  0  0  0  0  0  0  0  0  0  0  0
   -0.1534    1.9258   -3.6051 H   0  0  0  0  0  0  0  0  0  0  0  0
    1.3150    0.9838   -3.2566 H   0  0  0  0  0  0  0  0  0  0  0  0
  5  6  2  0  0  0  0
  5  7  1  0  0  0  0
  2  3  1  0  0  0  0
  2  4  1  0  0  0  0
  2  5  1  0  0  0  0
  1  2  1  0  0  0  0
 22 23  2  0  0  0  0
 22 24  1  0  0  0  0
 20 21  1  0  0  0  0
 19 20  1  0  0  0  0
 17 18  1  0  0  0  0
 17 19  2  0  0  0  0
 15 16  1  0  0  0  0
 15 17  1  0  0  0  0
 14 15  1  0  0  0  0
 14 20  2  0  0  0  0
 11 12  1  0  0  0  0
 11 13  1  0  0  0  0
 11 14  1  0  0  0  0
  9 10  1  0  0  0  0
  9 11  1  0  0  0  0
  9 22  1  0  0  0  0
  7  8  1  0  0  0  0
  7  9  1  0  0  0  0
 26 27  1  0  0  0  0
 26 28  1  0  0  0  0
 26 29  1  0  0  0  0
 24 25  1  0  0  0  0
 24 26  1  0  0  0  0
M  END
$$$$
default_name
  -OEChem-01062215323D

 29 29  0     1  0  0  0  0  0999 V2000
   -3.6042   -3.5728    1.4576 H   0  0  0  0  0  0  0  0  0  0  0  0
   -3.5202   -2.6488    0.8866 C   0  0  0  0  0  0  0  0  0  0  0  0
   -4.2052   -1.9048    1.2896 H   0  0  0  0  0  0  0  0  0  0  0  0
   -3.7552   -2.8428   -0.1584 H   0  0  0  0  0  0  0  0  0  0  0  0
   -2.1052   -2.1358    0.9946 C   0  0  0  0  0  0  0  0  0  0  0  0
   -1.2852   -2.7288    1.6826 O   0  0  0  0  0  0  0  0  0  0  0  0
   -1.8202   -1.0288    0.3146 N   0  0  0  0  0  0  0  0  0  0  0  0
   -2.5542   -0.5788   -0.2104 H   0  0  0  0  0  0  0  0  0  0  0  0
   -0.5102   -0.3728    0.3086 C   0  0  1  0  0  0  0  0  0  0  0  0
   -0.6308    0.6519    0.6633 H   0  0  0  0  0  0  0  0  0  0  0  0
    0.4277   -1.1091    1.2828 C   0  0  0  0  0  0  0  0  0  0  0  0
    0.4937   -2.1587    0.9908 H   0  0  0  0  0  0  0  0  0  0  0  0
    1.4273   -0.6769    1.2094 H   0  0  0  0  0  0  0  0  0  0  0  0
   -0.0190   -1.0388    2.7201 C   0  0  0  0  0  0  0  0  0  0  0  0
    0.0796    0.0556    3.5524 N   0  0  0  0  0  0  0  0  0  0  0  0
    0.5332    0.9301    3.3341 H   0  0  0  0  0  0  0  0  0  0  0  0
   -0.5302   -0.2470    4.7108 C   0  0  0  0  0  0  0  0  0  0  0  0
   -0.6121    0.4125    5.5661 H   0  0  0  0  0  0  0  0  0  0  0  0
   -1.0321   -1.4896    4.6607 N   0  0  0  0  0  0  0  0  0  0  0  0
   -0.7100   -2.0045    3.4023 C   0  0  0  0  0  0  0  0  0  0  0  0
   -0.9880   -2.9781    3.0199 H   0  0  0  0  0  0  0  0  0  0  0  0
    0.0644   -0.3125   -1.1169 C   0  0  0  0  0  0  0  0  0  0  0  0
    0.5416   -1.3218   -1.6350 O   0  0  0  0  0  0  0  0  0  0  0  0
    0.0355    0.8706   -1.7430 N   0  0  0  0  0  0  0  0  0  0  0  0
   -0.3226    1.6633   -1.2308 H   0  0  0  0  0  0  0  0  0  0  0  0
    0.5327    1.1000   -3.0970 C   0  0  0  0  0  0  0  0  0  0  0  0
   -0.0101    0.4666   -3.8021 H   0  0  0  0  0  0  0  0  0  0  0  0
    0.3952    2.1455   -3.3746 H   0  0  0  0  0  0  0  0  0  0  0  0
    1.5934    0.8499   -3.1500 H   0  0  0  0  0  0  0  0  0  0  0  0
  5  6  2  0  0  0  0
  5  7  1  0  0  0  0
  2  3  1  0  0  0  0
  2  4  1  0  0  0  0
  2  5  1  0  0  0  0
  1  2  1  0  0  0  0
 22 23  2  0  0  0  0
 22 24  1  0  0  0  0
 20 21  1  0  0  0  0
 19 20  1  0  0  0  0
 17 18  1  0  0  0  0
 17 19  2  0  0  0  0
 15 16  1  0  0  0  0
 15 17  1  0  0  0  0
 14 15  1  0  0  0  0
 14 20  2  0  0  0  0
 11 12  1  0  0  0  0
 11 13  1  0  0  0  0
 11 14  1  0  0  0  0
  9 10  1  0  0  0  0
  9 11  1  0  0  0  0
  9 22  1  0  0  0  0
  7  8  1  0  0  0  0
  7  9  1  0  0  0  0
 26 27  1  0  0  0  0
 26 28  1  0  0  0  0
 26 29  1  0  0  0  0
 24 25  1  0  0  0  0
 24 26  1  0  0  0  0
M  END
$$$$
default_name
  -OEChem-01062215323D

 29 29  0     1  0  0  0  0  0999 V2000
   -3.6042   -3.5728    1.4576 H   0  0  0  0  0  0  0  0  0  0  0  0
   -3.5202   -2.6488    0.8866 C   0  0  0  0  0  0  0  0  0  0  0  0
   -4.2052   -1.9048    1.2896 H   0  0  0  0  0  0  0  0  0  0  0  0
   -3.7552   -2.8428   -0.1584 H   0  0  0  0  0  0  0  0  0  0  0  0
   -2.1052   -2.1358    0.9946 C   0  0  0  0  0  0  0  0  0  0  0  0
   -1.2852   -2.7288    1.6826 O   0  0  0  0  0  0  0  0  0  0  0  0
   -1.8202   -1.0288    0.3146 N   0  0  0  0  0  0  0  0  0  0  0  0
   -2.5542   -0.5788   -0.2104 H   0  0  0  0  0  0  0  0  0  0  0  0
   -0.5102   -0.3728    0.3086 C   0  0  1  0  0  0  0  0  0  0  0  0
   -0.6308    0.6519    0.6633 H   0  0  0  0  0  0  0  0  0  0  0  0
    0.4277   -1.1091    1.2828 C   0  0  0  0  0  0  0  0  0  0  0  0
    0.4937   -2.1587    0.9908 H   0  0  0  0  0  0  0  0  0  0  0  0
    1.4273   -0.6769    1.2094 H   0  0  0  0  0  0  0  0  0  0  0  0
   -0.0190   -1.0388    2.7201 C   0  0  0  0  0  0  0  0  0  0  0  0
    0.0796    0.0556    3.5524 N   0  0  0  0  0  0  0  0  0  0  0  0
    0.5332    0.9301    3.3341 H   0  0  0  0  0  0  0  0  0  0  0  0
   -0.5302   -0.2470    4.7108 C   0  0  0  0  0  0  0  0  0  0  0  0
   -0.6121    0.4125    5.5661 H   0  0  0  0  0  0  0  0  0  0  0  0
   -1.0321   -1.4896    4.6607 N   0  0  0  0  0  0  0  0  0  0  0  0
   -0.7100   -2.0045    3.4023 C   0  0  0  0  0  0  0  0  0  0  0  0
   -0.9880   -2.9781    3.0199 H   0  0  0  0  0  0  0  0  0  0  0  0
    0.0644   -0.3125   -1.1169 C   0  0  0  0  0  0  0  0  0  0  0  0
    0.2859   -1.3509   -1.7393 O   0  0  0  0  0  0  0  0  0  0  0  0
    0.3218    0.8986   -1.6264 N   0  0  0  0  0  0  0  0  0  0  0  0
    0.1639    1.6998   -1.0331 H   0  0  0  0  0  0  0  0  0  0  0  0
    0.8618    1.1338   -2.9629 C   0  0  0  0  0  0  0  0  0  0  0  0
    0.1838    0.7209   -3.7132 H   0  0  0  0  0  0  0  0  0  0  0  0
    0.9800    2.2038   -3.1364 H   0  0  0  0  0  0  0  0  0  0  0  0
    1.8314    0.6435   -3.0628 H   0  0  0  0  0  0  0  0  0  0  0  0
  5  6  2  0  0  0  0
  5  7  1  0  0  0  0
  2  3  1  0  0  0  0
  2  4  1  0  0  0  0
  2  5  1  0  0  0  0
  1  2  1  0  0  0  0
 22 23  2  0  0  0  0
 22 24  1  0  0  0  0
 20 21  1  0  0  0  0
 19 20  1  0  0  0  0
 17 18  1  0  0  0  0
 17 19  2  0  0  0  0
 15 16  1  0  0  0  0
 15 17  1  0  0  0  0
 14 15  1  0  0  0  0
 14 20  2  0  0  0  0
 11 12  1  0  0  0  0
 11 13  1  0  0  0  0
 11 14  1  0  0  0  0
  9 10  1  0  0  0  0
  9 11  1  0  0  0  0
  9 22  1  0  0  0  0
  7  8  1  0  0  0  0
  7  9  1  0  0  0  0
 26 27  1  0  0  0  0
 26 28  1  0  0  0  0
 26 29  1  0  0  0  0
 24 25  1  0  0  0  0
 24 26  1  0  0  0  0
M  END
$$$$
default_name
  -OEChem-01062215323D

 29 29  0     1  0  0  0  0  0999 V2000
   -3.6042   -3.5728    1.4576 H   0  0  0  0  0  0  0  0  0  0  0  0
   -3.5202   -2.6488    0.8866 C   0  0  0  0  0  0  0  0  0  0  0  0
   -4.2052   -1.9048    1.2896 H   0  0  0  0  0  0  0  0  0  0  0  0
   -3.7552   -2.8428   -0.1584 H   0  0  0  0  0  0  0  0  0  0  0  0
   -2.1052   -2.1358    0.9946 C   0  0  0  0  0  0  0  0  0  0  0  0
   -1.2852   -2.7288    1.6826 O   0  0  0  0  0  0  0  0  0  0  0  0
   -1.8202   -1.0288    0.3146 N   0  0  0  0  0  0  0  0  0  0  0  0
   -2.5542   -0.5788   -0.2104 H   0  0  0  0  0  0  0  0  0  0  0  0
   -0.5102   -0.3728    0.3086 C   0  0  1  0  0  0  0  0  0  0  0  0
   -0.6308    0.6519    0.6633 H   0  0  0  0  0  0  0  0  0  0  0  0
    0.4277   -1.1091    1.2828 C   0  0  0  0  0  0  0  0  0  0  0  0
    0.4937   -2.1587    0.9908 H   0  0  0  0  0  0  0  0  0  0  0  0
    1.4273   -0.6769    1.2094 H   0  0  0  0  0  0  0  0  0  0  0  0
   -0.0190   -1.0388    2.7201 C   0  0  0  0  0  0  0  0  0  0  0  0
    0.0796    0.0556    3.5524 N   0  0  0  0  0  0  0  0  0  0  0  0
    0.5332    0.9301    3.3341 H   0  0  0  0  0  0  0  0  0  0  0  0
   -0.5302   -0.2470    4.7108 C   0  0  0  0  0  0  0  0  0  0  0  0
   -0.6121    0.4125    5.5661 H   0  0  0  0  0  0  0  0  0  0  0  0
   -1.0321   -1.4896    4.6607 N   0  0  0  0  0  0  0  0  0  0  0  0
   -0.7100   -2.0045    3.4023 C   0  0  0  0  0  0  0  0  0  0  0  0
   -0.9880   -2.9781    3.0199 H   0  0  0  0  0  0  0  0  0  0  0  0
    0.0644   -0.3125   -1.1169 C   0  0  0  0  0  0  0  0  0  0  0  0
    0.0309   -1.3077   -1.8403 O   0  0  0  0  0  0  0  0  0  0  0  0
    0.6062    0.8456   -1.5140 N   0  0  0  0  0  0  0  0  0  0  0  0
    0.6445    1.5994   -0.8436 H   0  0  0  0  0  0  0  0  0  0  0  0
    1.1891    1.0745   -2.8334 C   0  0  0  0  0  0  0  0  0  0  0  0
    0.4330    0.9114   -3.6047 H   0  0  0  0  0  0  0  0  0  0  0  0
    1.5614    2.0968   -2.9066 H   0  0  0  0  0  0  0  0  0  0  0  0
    2.0126    0.3786   -3.0009 H   0  0  0  0  0  0  0  0  0  0  0  0
  5  6  2  0  0  0  0
  5  7  1  0  0  0  0
  2  3  1  0  0  0  0
  2  4  1  0  0  0  0
  2  5  1  0  0  0  0
  1  2  1  0  0  0  0
 22 23  2  0  0  0  0
 22 24  1  0  0  0  0
 20 21  1  0  0  0  0
 19 20  1  0  0  0  0
 17 18  1  0  0  0  0
 17 19  2  0  0  0  0
 15 16  1  0  0  0  0
 15 17  1  0  0  0  0
 14 15  1  0  0  0  0
 14 20  2  0  0  0  0
 11 12  1  0  0  0  0
 11 13  1  0  0  0  0
 11 14  1  0  0  0  0
  9 10  1  0  0  0  0
  9 11  1  0  0  0  0
  9 22  1  0  0  0  0
  7  8  1  0  0  0  0
  7  9  1  0  0  0  0
 26 27  1  0  0  0  0
 26 28  1  0  0  0  0
 26 29  1  0  0  0  0
 24 25  1  0  0  0  0
 24 26  1  0  0  0  0
M  END
$$$$
default_name
  -OEChem-01062215323D

 29 29  0     1  0  0  0  0  0999 V2000
   -3.6042   -3.5728    1.4576 H   0  0  0  0  0  0  0  0  0  0  0  0
   -3.5202   -2.6488    0.8866 C   0  0  0  0  0  0  0  0  0  0  0  0
   -4.2052   -1.9048    1.2896 H   0  0  0  0  0  0  0  0  0  0  0  0
   -3.7552   -2.8428   -0.1584 H   0  0  0  0  0  0  0  0  0  0  0  0
   -2.1052   -2.1358    0.9946 C   0  0  0  0  0  0  0  0  0  0  0  0
   -1.2852   -2.7288    1.6826 O   0  0  0  0  0  0  0  0  0  0  0  0
   -1.8202   -1.0288    0.3146 N   0  0  0  0  0  0  0  0  0  0  0  0
   -2.5542   -0.5788   -0.2104 H   0  0  0  0  0  0  0  0  0  0  0  0
   -0.5102   -0.3728    0.3086 C   0  0  1  0  0  0  0  0  0  0  0  0
   -0.6308    0.6519    0.6633 H   0  0  0  0  0  0  0  0  0  0  0  0
    0.4277   -1.1091    1.2828 C   0  0  0  0  0  0  0  0  0  0  0  0
    0.4937   -2.1587    0.9908 H   0  0  0  0  0  0  0  0  0  0  0  0
    1.4273   -0.6769    1.2094 H   0  0  0  0  0  0  0  0  0  0  0  0
   -0.0190   -1.0388    2.7201 C   0  0  0  0  0  0  0  0  0  0  0  0
    0.0796    0.0556    3.5524 N   0  0  0  0  0  0  0  0  0  0  0  0
    0.5332    0.9301    3.3341 H   0  0  0  0  0  0  0  0  0  0  0  0
   -0.5302   -0.2470    4.7108 C   0  0  0  0  0  0  0  0  0  0  0  0
   -0.6121    0.4125    5.5661 H   0  0  0  0  0  0  0  0  0  0  0  0
   -1.0321   -1.4896    4.6607 N   0  0  0  0  0  0  0  0  0  0  0  0
   -0.7100   -2.0045    3.4023 C   0  0  0  0  0  0  0  0  0  0  0  0
   -0.9880   -2.9781    3.0199 H   0  0  0  0  0  0  0  0  0  0  0  0
    0.0644   -0.3125   -1.1169 C   0  0  0  0  0  0  0  0  0  0  0  0
   -0.2061   -1.1949   -1.9311 O   0  0  0  0  0  0  0  0  0  0  0  0
    0.8693    0.7155   -1.4134 N   0  0  0  0  0  0  0  0  0  0  0  0
    1.0866    1.3687   -0.6751 H   0  0  0  0  0  0  0  0  0  0  0  0
    1.4924    0.9262   -2.7174 C   0  0  0  0  0  0  0  0  0  0  0  0
    0.7205    1.0252   -3.4840 H   0  0  0  0  0  0  0  0  0  0  0  0
    2.0996    1.8318   -2.7008 H   0  0  0  0  0  0  0  0  0  0  0  0
    2.1247    0.0733   -2.9686 H   0  0  0  0  0  0  0  0  0  0  0  0
  5  6  2  0  0  0  0
  5  7  1  0  0  0  0
  2  3  1  0  0  0  0
  2  4  1  0  0  0  0
  2  5  1  0  0  0  0
  1  2  1  0  0  0  0
 22 23  2  0  0  0  0
 22 24  1  0  0  0  0
 20 21  1  0  0  0  0
 19 20  1  0  0  0  0
 17 18  1  0  0  0  0
 17 19  2  0  0  0  0
 15 16  1  0  0  0  0
 15 17  1  0  0  0  0
 14 15  1  0  0  0  0
 14 20  2  0  0  0  0
 11 12  1  0  0  0  0
 11 13  1  0  0  0  0
 11 14  1  0  0  0  0
  9 10  1  0  0  0  0
  9 11  1  0  0  0  0
  9 22  1  0  0  0  0
  7  8  1  0  0  0  0
  7  9  1  0  0  0  0
 26 27  1  0  0  0  0
 26 28  1  0  0  0  0
 26 29  1  0  0  0  0
 24 25  1  0  0  0  0
 24 26  1  0  0  0  0
M  END
$$$$
default_name
  -OEChem-01062215323D

 29 29  0     1  0  0  0  0  0999 V2000
   -3.6042   -3.5728    1.4576 H   0  0  0  0  0  0  0  0  0  0  0  0
   -3.5202   -2.6488    0.8866 C   0  0  0  0  0  0  0  0  0  0  0  0
   -4.2052   -1.9048    1.2896 H   0  0  0  0  0  0  0  0  0  0  0  0
   -3.7552   -2.8428   -0.1584 H   0  0  0  0  0  0  0  0  0  0  0  0
   -2.1052   -2.1358    0.9946 C   0  0  0  0  0  0  0  0  0  0  0  0
   -1.2852   -2.7288    1.6826 O   0  0  0  0  0  0  0  0  0  0  0  0
   -1.8202   -1.0288    0.3146 N   0  0  0  0  0  0  0  0  0  0  0  0
   -2.5542   -0.5788   -0.2104 H   0  0  0  0  0  0  0  0  0  0  0  0
   -0.5102   -0.3728    0.3086 C   0  0  1  0  0  0  0  0  0  0  0  0
   -0.6308    0.6519    0.6633 H   0  0  0  0  0  0  0  0  0  0  0  0
    0.4277   -1.1091    1.2828 C   0  0  0  0  0  0  0  0  0  0  0  0
    0.4937   -2.1587    0.9908 H   0  0  0  0  0  0  0  0  0  0  0  0
    1.4273   -0.6769    1.2094 H   0  0  0  0  0  0  0  0  0  0  0  0
   -0.0190   -1.0388    2.7201 C   0  0  0  0  0  0  0  0  0  0  0  0
    0.0796    0.0556    3.5524 N   0  0  0  0  0  0  0  0  0  0  0  0
    0.5332    0.9301    3.3341 H   0  0  0  0  0  0  0  0  0  0  0  0
   -0.5302   -0.2470    4.7108 C   0  0  0  0  0  0  0  0  0  0  0  0
   -0.6121    0.4125    5.5661 H   0  0  0  0  0  0  0  0  0  0  0  0
   -1.0321   -1.4896    4.6607 N   0  0  0  0  0  0  0  0  0  0  0  0
   -0.7100   -2.0045    3.4023 C   0  0  0  0  0  0  0  0  0  0  0  0
   -0.9880   -2.9781    3.0199 H   0  0  0  0  0  0  0  0  0  0  0  0
    0.0644   -0.3125   -1.1169 C   0  0  0  0  0  0  0  0  0  0  0  0
   -0.4089   -1.0204   -2.0055 O   0  0  0  0  0  0  0  0  0  0  0  0
    1.0933    0.5169   -1.3315 N   0  0  0  0  0  0  0  0  0  0  0  0
    1.4600    1.0236   -0.5392 H   0  0  0  0  0  0  0  0  0  0  0  0
    1.7509    0.6990   -2.6228 C   0  0  0  0  0  0  0  0  0  0  0  0
    1.0267    1.0545   -3.3593 H   0  0  0  0  0  0  0  0  0  0  0  0
    2.5579    1.4268   -2.5331 H   0  0  0  0  0  0  0  0  0  0  0  0
    2.1601   -0.2517   -2.9681 H   0  0  0  0  0  0  0  0  0  0  0  0
  5  6  2  0  0  0  0
  5  7  1  0  0  0  0
  2  3  1  0  0  0  0
  2  4  1  0  0  0  0
  2  5  1  0  0  0  0
  1  2  1  0  0  0  0
 22 23  2  0  0  0  0
 22 24  1  0  0  0  0
 20 21  1  0  0  0  0
 19 20  1  0  0  0  0
 17 18  1  0  0  0  0
 17 19  2  0  0  0  0
 15 16  1  0  0  0  0
 15 17  1  0  0  0  0
 14 15  1  0  0  0  0
 14 20  2  0  0  0  0
 11 12  1  0  0  0  0
 11 13  1  0  0  0  0
 11 14  1  0  0  0  0
  9 10  1  0  0  0  0
  9 11  1  0  0  0  0
  9 22  1  0  0  0  0
  7  8  1  0  0  0  0
  7  9  1  0  0  0  0
 26 27  1  0  0  0  0
 26 28  1  0  0  0  0
 26 29  1  0  0  0  0
 24 25  1  0  0  0  0
 24 26  1  0  0  0  0
M  END
$$$$
default_name
  -OEChem-01062215323D

 29 29  0     1  0  0  0  0  0999 V2000
   -3.6042   -3.5728    1.4576 H   0  0  0  0  0  0  0  0  0  0  0  0
   -3.5202   -2.6488    0.8866 C   0  0  0  0  0  0  0  0  0  0  0  0
   -4.2052   -1.9048    1.2896 H   0  0  0  0  0  0  0  0  0  0  0  0
   -3.7552   -2.8428   -0.1584 H   0  0  0  0  0  0  0  0  0  0  0  0
   -2.1052   -2.1358    0.9946 C   0  0  0  0  0  0  0  0  0  0  0  0
   -1.2852   -2.7288    1.6826 O   0  0  0  0  0  0  0  0  0  0  0  0
   -1.8202   -1.0288    0.3146 N   0  0  0  0  0  0  0  0  0  0  0  0
   -2.5542   -0.5788   -0.2104 H   0  0  0  0  0  0  0  0  0  0  0  0
   -0.5102   -0.3728    0.3086 C   0  0  1  0  0  0  0  0  0  0  0  0
   -0.5739    0.5403    0.9023 H   0  0  0  0  0  0  0  0  0  0  0  0
    0.5233   -1.3028    0.9705 C   0  0  0  0  0  0  0  0  0  0  0  0
    0.5395   -2.2553    0.4379 H   0  0  0  0  0  0  0  0  0  0  0  0
    1.5139   -0.8528    0.8835 H   0  0  0  0  0  0  0  0  0  0  0  0
    0.2470   -1.5727    2.4269 C   0  0  0  0  0  0  0  0  0  0  0  0
    0.4574   -0.6996    3.4725 N   0  0  0  0  0  0  0  0  0  0  0  0
    0.8955    0.2074    3.4114 H   0  0  0  0  0  0  0  0  0  0  0  0
   -0.0186   -1.2698    4.5922 C   0  0  0  0  0  0  0  0  0  0  0  0
    0.0087   -0.8272    5.5804 H   0  0  0  0  0  0  0  0  0  0  0  0
   -0.5411   -2.4732    4.3145 N   0  0  0  0  0  0  0  0  0  0  0  0
   -0.3745   -2.6787    2.9425 C   0  0  0  0  0  0  0  0  0  0  0  0
   -0.7091   -3.5408    2.3802 H   0  0  0  0  0  0  0  0  0  0  0  0
   -0.1036    0.0230   -1.1210 C   0  0  0  0  0  0  0  0  0  0  0  0
   -0.8436   -0.2372   -2.0695 O   0  0  0  0  0  0  0  0  0  0  0  0
    1.0769    0.6347   -1.2784 N   0  0  0  0  0  0  0  0  0  0  0  0
    1.6508    0.7641   -0.4581 H   0  0  0  0  0  0  0  0  0  0  0  0
    1.6102    1.0812   -2.5627 C   0  0  0  0  0  0  0  0  0  0  0  0
    0.9277    1.8043   -3.0148 H   0  0  0  0  0  0  0  0  0  0  0  0
    2.5855    1.5480   -2.4217 H   0  0  0  0  0  0  0  0  0  0  0  0
    1.7126    0.2302   -3.2379 H   0  0  0  0  0  0  0  0  0  0  0  0
  5  6  2  0  0  0  0
  5  7  1  0  0  0  0
  2  3  1  0  0  0  0
  2  4  1  0  0  0  0
  2  5  1  0  0  0  0
  1  2  1  0  0  0  0
 22 23  2  0  0  0  0
 22 24  1  0  0  0  0
 20 21  1  0  0  0  0
 19 20  1  0  0  0  0
 17 18  1  0  0  0  0
 17 19  2  0  0  0  0
 15 16  1  0  0  0  0
 15 17  1  0  0  0  0
 14 15  1  0  0  0  0
 14 20  2  0  0  0  0
 11 12  1  0  0  0  0
 11 13  1  0  0  0  0
 11 14  1  0  0  0  0
  9 10  1  0  0  0  0
  9 11  1  0  0  0  0
  9 22  1  0  0  0  0
  7  8  1  0  0  0  0
  7  9  1  0  0  0  0
 26 27  1  0  0  0  0
 26 28  1  0  0  0  0
 26 29  1  0  0  0  0
 24 25  1  0  0  0  0
 24 26  1  0  0  0  0
M  END
$$$$
default_name
  -OEChem-01062215323D

 29 29  0     1  0  0  0  0  0999 V2000
   -3.6042   -3.5728    1.4576 H   0  0  0  0  0  0  0  0  0  0  0  0
   -3.5202   -2.6488    0.8866 C   0  0  0  0  0  0  0  0  0  0  0  0
   -4.2052   -1.9048    1.2896 H   0  0  0  0  0  0  0  0  0  0  0  0
   -3.7552   -2.8428   -0.1584 H   0  0  0  0  0  0  0  0  0  0  0  0
   -2.1052   -2.1358    0.9946 C   0  0  0  0  0  0  0  0  0  0  0  0
   -1.2852   -2.7288    1.6826 O   0  0  0  0  0  0  0  0  0  0  0  0
   -1.8202   -1.0288    0.3146 N   0  0  0  0  0  0  0  0  0  0  0  0
   -2.5542   -0.5788   -0.2104 H   0  0  0  0  0  0  0  0  0  0  0  0
   -0.5102   -0.3728    0.3086 C   0  0  1  0  0  0  0  0  0  0  0  0
   -0.5739    0.5403    0.9023 H   0  0  0  0  0  0  0  0  0  0  0  0
    0.5233   -1.3028    0.9705 C   0  0  0  0  0  0  0  0  0  0  0  0
    0.5395   -2.2553    0.4379 H   0  0  0  0  0  0  0  0  0  0  0  0
    1.5139   -0.8528    0.8835 H   0  0  0  0  0  0  0  0  0  0  0  0
    0.2470   -1.5727    2.4269 C   0  0  0  0  0  0  0  0  0  0  0  0
    0.4574   -0.6996    3.4725 N   0  0  0  0  0  0  0  0  0  0  0  0
    0.8955    0.2074    3.4114 H   0  0  0  0  0  0  0  0  0  0  0  0
   -0.0186   -1.2698    4.5922 C   0  0  0  0  0  0  0  0  0  0  0  0
    0.0087   -0.8272    5.5804 H   0  0  0  0  0  0  0  0  0  0  0  0
   -0.5411   -2.4732    4.3145 N   0  0  0  0  0  0  0  0  0  0  0  0
   -0.3745   -2.6787    2.9425 C   0  0  0  0  0  0  0  0  0  0  0  0
   -0.7091   -3.5408    2.3802 H   0  0  0  0  0  0  0  0  0  0  0  0
   -0.1036    0.0230   -1.1210 C   0  0  0  0  0  0  0  0  0  0  0  0
   -0.9386    0.0200   -2.0253 O   0  0  0  0  0  0  0  0  0  0  0  0
    1.1789    0.3460   -1.3294 N   0  0  0  0  0  0  0  0  0  0  0  0
    1.8138    0.2718   -0.5481 H   0  0  0  0  0  0  0  0  0  0  0  0
    1.7289    0.7496   -2.6208 C   0  0  0  0  0  0  0  0  0  0  0  0
    1.2174    1.6469   -2.9760 H   0  0  0  0  0  0  0  0  0  0  0  0
    2.7949    0.9584   -2.5254 H   0  0  0  0  0  0  0  0  0  0  0  0
    1.5820   -0.0470   -3.3518 H   0  0  0  0  0  0  0  0  0  0  0  0
  5  6  2  0  0  0  0
  5  7  1  0  0  0  0
  2  3  1  0  0  0  0
  2  4  1  0  0  0  0
  2  5  1  0  0  0  0
  1  2  1  0  0  0  0
 22 23  2  0  0  0  0
 22 24  1  0  0  0  0
 20 21  1  0  0  0  0
 19 20  1  0  0  0  0
 17 18  1  0  0  0  0
 17 19  2  0  0  0  0
 15 16  1  0  0  0  0
 15 17  1  0  0  0  0
 14 15  1  0  0  0  0
 14 20  2  0  0  0  0
 11 12  1  0  0  0  0
 11 13  1  0  0  0  0
 11 14  1  0  0  0  0
  9 10  1  0  0  0  0
  9 11  1  0  0  0  0
  9 22  1  0  0  0  0
  7  8  1  0  0  0  0
  7  9  1  0  0  0  0
 26 27  1  0  0  0  0
 26 28  1  0  0  0  0
 26 29  1  0  0  0  0
 24 25  1  0  0  0  0
 24 26  1  0  0  0  0
M  END
$$$$
default_name
  -OEChem-01062215323D

 29 29  0     1  0  0  0  0  0999 V2000
   -3.6042   -3.5728    1.4576 H   0  0  0  0  0  0  0  0  0  0  0  0
   -3.5202   -2.6488    0.8866 C   0  0  0  0  0  0  0  0  0  0  0  0
   -4.2052   -1.9048    1.2896 H   0  0  0  0  0  0  0  0  0  0  0  0
   -3.7552   -2.8428   -0.1584 H   0  0  0  0  0  0  0  0  0  0  0  0
   -2.1052   -2.1358    0.9946 C   0  0  0  0  0  0  0  0  0  0  0  0
   -1.2852   -2.7288    1.6826 O   0  0  0  0  0  0  0  0  0  0  0  0
   -1.8202   -1.0288    0.3146 N   0  0  0  0  0  0  0  0  0  0  0  0
   -2.5542   -0.5788   -0.2104 H   0  0  0  0  0  0  0  0  0  0  0  0
   -0.5102   -0.3728    0.3086 C   0  0  1  0  0  0  0  0  0  0  0  0
   -0.5739    0.5403    0.9023 H   0  0  0  0  0  0  0  0  0  0  0  0
    0.5233   -1.3028    0.9705 C   0  0  0  0  0  0  0  0  0  0  0  0
    0.5395   -2.2553    0.4379 H   0  0  0  0  0  0  0  0  0  0  0  0
    1.5139   -0.8528    0.8835 H   0  0  0  0  0  0  0  0  0  0  0  0
    0.2470   -1.5727    2.4269 C   0  0  0  0  0  0  0  0  0  0  0  0
    0.4574   -0.6996    3.4725 N   0  0  0  0  0  0  0  0  0  0  0  0
    0.8955    0.2074    3.4114 H   0  0  0  0  0  0  0  0  0  0  0  0
   -0.0186   -1.2698    4.5922 C   0  0  0  0  0  0  0  0  0  0  0  0
    0.0087   -0.8272    5.5804 H   0  0  0  0  0  0  0  0  0  0  0  0
   -0.5411   -2.4732    4.3145 N   0  0  0  0  0  0  0  0  0  0  0  0
   -0.3745   -2.6787    2.9425 C   0  0  0  0  0  0  0  0  0  0  0  0
   -0.7091   -3.5408    2.3802 H   0  0  0  0  0  0  0  0  0  0  0  0
   -0.1036    0.0230   -1.1210 C   0  0  0  0  0  0  0  0  0  0  0  0
   -0.9655    0.2883   -1.9587 O   0  0  0  0  0  0  0  0  0  0  0  0
    1.2045    0.0461   -1.4051 N   0  0  0  0  0  0  0  0  0  0  0  0
    1.8468   -0.2368   -0.6795 H   0  0  0  0  0  0  0  0  0  0  0  0
    1.7600    0.4047   -2.7074 C   0  0  0  0  0  0  0  0  0  0  0  0
    1.4619    1.4226   -2.9686 H   0  0  0  0  0  0  0  0  0  0  0  0
    2.8484    0.3456   -2.6798 H   0  0  0  0  0  0  0  0  0  0  0  0
    1.3817   -0.2756   -3.4720 H   0  0  0  0  0  0  0  0  0  0  0  0
  5  6  2  0  0  0  0
  5  7  1  0  0  0  0
  2  3  1  0  0  0  0
  2  4  1  0  0  0  0
  2  5  1  0  0  0  0
  1  2  1  0  0  0  0
 22 23  2  0  0  0  0
 22 24  1  0  0  0  0
 20 21  1  0  0  0  0
 19 20  1  0  0  0  0
 17 18  1  0  0  0  0
 17 19  2  0  0  0  0
 15 16  1  0  0  0  0
 15 17  1  0  0  0  0
 14 15  1  0  0  0  0
 14 20  2  0  0  0  0
 11 12  1  0  0  0  0
 11 13  1  0  0  0  0
 11 14  1  0  0  0  0
  9 10  1  0  0  0  0
  9 11  1  0  0  0  0
  9 22  1  0  0  0  0
  7  8  1  0  0  0  0
  7  9  1  0  0  0  0
 26 27  1  0  0  0  0
 26 28  1  0  0  0  0
 26 29  1  0  0  0  0
 24 25  1  0  0  0  0
 24 26  1  0  0  0  0
M  END
$$$$
default_name
  -OEChem-01062215323D

 29 29  0     1  0  0  0  0  0999 V2000
   -3.6042   -3.5728    1.4576 H   0  0  0  0  0  0  0  0  0  0  0  0
   -3.5202   -2.6488    0.8866 C   0  0  0  0  0  0  0  0  0  0  0  0
   -4.2052   -1.9048    1.2896 H   0  0  0  0  0  0  0  0  0  0  0  0
   -3.7552   -2.8428   -0.1584 H   0  0  0  0  0  0  0  0  0  0  0  0
   -2.1052   -2.1358    0.9946 C   0  0  0  0  0  0  0  0  0  0  0  0
   -1.2852   -2.7288    1.6826 O   0  0  0  0  0  0  0  0  0  0  0  0
   -1.8202   -1.0288    0.3146 N   0  0  0  0  0  0  0  0  0  0  0  0
   -2.5542   -0.5788   -0.2104 H   0  0  0  0  0  0  0  0  0  0  0  0
   -0.5102   -0.3728    0.3086 C   0  0  1  0  0  0  0  0  0  0  0  0
   -0.5739    0.5403    0.9023 H   0  0  0  0  0  0  0  0  0  0  0  0
    0.5233   -1.3028    0.9705 C   0  0  0  0  0  0  0  0  0  0  0  0
    0.5395   -2.2553    0.4379 H   0  0  0  0  0  0  0  0  0  0  0  0
    1.5139   -0.8528    0.8835 H   0  0  0  0  0  0  0  0  0  0  0  0
    0.2470   -1.5727    2.4269 C   0  0  0  0  0  0  0  0  0  0  0  0
    0.4574   -0.6996    3.4725 N   0  0  0  0  0  0  0  0  0  0  0  0
    0.8955    0.2074    3.4114 H   0  0  0  0  0  0  0  0  0  0  0  0
   -0.0186   -1.2698    4.5922 C   0  0  0  0  0  0  0  0  0  0  0  0
    0.0087   -0.8272    5.5804 H   0  0  0  0  0  0  0  0  0  0  0  0
   -0.5411   -2.4732    4.3145 N   0  0  0  0  0  0  0  0  0  0  0  0
   -0.3745   -2.6787    2.9425 C   0  0  0  0  0  0  0  0  0  0  0  0
   -0.7091   -3.5408    2.3802 H   0  0  0  0  0  0  0  0  0  0  0  0
   -0.1036    0.0230   -1.1210 C   0  0  0  0  0  0  0  0  0  0  0  0
   -0.9226    0.5493   -1.8742 O   0  0  0  0  0  0  0  0  0  0  0  0
    1.1521   -0.2445   -1.5004 N   0  0  0  0  0  0  0  0  0  0  0  0
    1.7475   -0.7270   -0.8434 H   0  0  0  0  0  0  0  0  0  0  0  0
    1.7013    0.0700   -2.8168 C   0  0  0  0  0  0  0  0  0  0  0  0
    1.6446    1.1465   -2.9930 H   0  0  0  0  0  0  0  0  0  0  0  0
    2.7425   -0.2486   -2.8745 H   0  0  0  0  0  0  0  0  0  0  0  0
    1.1252   -0.4399   -3.5905 H   0  0  0  0  0  0  0  0  0  0  0  0
  5  6  2  0  0  0  0
  5  7  1  0  0  0  0
  2  3  1  0  0  0  0
  2  4  1  0  0  0  0
  2  5  1  0  0  0  0
  1  2  1  0  0  0  0
 22 23  2  0  0  0  0
 22 24  1  0  0  0  0
 20 21  1  0  0  0  0
 19 20  1  0  0  0  0
 17 18  1  0  0  0  0
 17 19  2  0  0  0  0
 15 16  1  0  0  0  0
 15 17  1  0  0  0  0
 14 15  1  0  0  0  0
 14 20  2  0  0  0  0
 11 12  1  0  0  0  0
 11 13  1  0  0  0  0
 11 14  1  0  0  0  0
  9 10  1  0  0  0  0
  9 11  1  0  0  0  0
  9 22  1  0  0  0  0
  7  8  1  0  0  0  0
  7  9  1  0  0  0  0
 26 27  1  0  0  0  0
 26 28  1  0  0  0  0
 26 29  1  0  0  0  0
 24 25  1  0  0  0  0
 24 26  1  0  0  0  0
M  END
$$$$
default_name
  -OEChem-01062215323D

 29 29  0     1  0  0  0  0  0999 V2000
   -3.6042   -3.5728    1.4576 H   0  0  0  0  0  0  0  0  0  0  0  0
   -3.5202   -2.6488    0.8866 C   0  0  0  0  0  0  0  0  0  0  0  0
   -4.2052   -1.9048    1.2896 H   0  0  0  0  0  0  0  0  0  0  0  0
   -3.7552   -2.8428   -0.1584 H   0  0  0  0  0  0  0  0  0  0  0  0
   -2.1052   -2.1358    0.9946 C   0  0  0  0  0  0  0  0  0  0  0  0
   -1.2852   -2.7288    1.6826 O   0  0  0  0  0  0  0  0  0  0  0  0
   -1.8202   -1.0288    0.3146 N   0  0  0  0  0  0  0  0  0  0  0  0
   -2.5542   -0.5788   -0.2104 H   0  0  0  0  0  0  0  0  0  0  0  0
   -0.5102   -0.3728    0.3086 C   0  0  1  0  0  0  0  0  0  0  0  0
   -0.5739    0.5403    0.9023 H   0  0  0  0  0  0  0  0  0  0  0  0
    0.5233   -1.3028    0.9705 C   0  0  0  0  0  0  0  0  0  0  0  0
    0.5395   -2.2553    0.4379 H   0  0  0  0  0  0  0  0  0  0  0  0
    1.5139   -0.8528    0.8835 H   0  0  0  0  0  0  0  0  0  0  0  0
    0.2470   -1.5727    2.4269 C   0  0  0  0  0  0  0  0  0  0  0  0
    0.4574   -0.6996    3.4725 N   0  0  0  0  0  0  0  0  0  0  0  0
    0.8955    0.2074    3.4114 H   0  0  0  0  0  0  0  0  0  0  0  0
   -0.0186   -1.2698    4.5922 C   0  0  0  0  0  0  0  0  0  0  0  0
    0.0087   -0.8272    5.5804 H   0  0  0  0  0  0  0  0  0  0  0  0
   -0.5411   -2.4732    4.3145 N   0  0  0  0  0  0  0  0  0  0  0  0
   -0.3745   -2.6787    2.9425 C   0  0  0  0  0  0  0  0  0  0  0  0
   -0.7091   -3.5408    2.3802 H   0  0  0  0  0  0  0  0  0  0  0  0
   -0.1036    0.0230   -1.1210 C   0  0  0  0  0  0  0  0  0  0  0  0
   -0.8126    0.7853   -1.7776 O   0  0  0  0  0  0  0  0  0  0  0  0
    1.0253   -0.5061   -1.6090 N   0  0  0  0  0  0  0  0  0  0  0  0
    1.5229   -1.1655   -1.0287 H   0  0  0  0  0  0  0  0  0  0  0  0
    1.5567   -0.2316   -2.9414 C   0  0  0  0  0  0  0  0  0  0  0  0
    1.7531    0.8376   -3.0477 H   0  0  0  0  0  0  0  0  0  0  0  0
    2.4842   -0.7838   -3.0961 H   0  0  0  0  0  0  0  0  0  0  0  0
    0.8300   -0.5289   -3.6991 H   0  0  0  0  0  0  0  0  0  0  0  0
  5  6  2  0  0  0  0
  5  7  1  0  0  0  0
  2  3  1  0  0  0  0
  2  4  1  0  0  0  0
  2  5  1  0  0  0  0
  1  2  1  0  0  0  0
 22 23  2  0  0  0  0
 22 24  1  0  0  0  0
 20 21  1  0  0  0  0
 19 20  1  0  0  0  0
 17 18  1  0  0  0  0
 17 19  2  0  0  0  0
 15 16  1  0  0  0  0
 15 17  1  0  0  0  0
 14 15  1  0  0  0  0
 14 20  2  0  0  0  0
 11 12  1  0  0  0  0
 11 13  1  0  0  0  0
 11 14  1  0  0  0  0
  9 10  1  0  0  0  0
  9 11  1  0  0  0  0
  9 22  1  0  0  0  0
  7  8  1  0  0  0  0
  7  9  1  0  0  0  0
 26 27  1  0  0  0  0
 26 28  1  0  0  0  0
 26 29  1  0  0  0  0
 24 25  1  0  0  0  0
 24 26  1  0  0  0  0
M  END
$$$$
default_name
  -OEChem-01062215323D

 29 29  0     1  0  0  0  0  0999 V2000
   -3.6042   -3.5728    1.4576 H   0  0  0  0  0  0  0  0  0  0  0  0
   -3.5202   -2.6488    0.8866 C   0  0  0  0  0  0  0  0  0  0  0  0
   -4.2052   -1.9048    1.2896 H   0  0  0  0  0  0  0  0  0  0  0  0
   -3.7552   -2.8428   -0.1584 H   0  0  0  0  0  0  0  0  0  0  0  0
   -2.1052   -2.1358    0.9946 C   0  0  0  0  0  0  0  0  0  0  0  0
   -1.2852   -2.7288    1.6826 O   0  0  0  0  0  0  0  0  0  0  0  0
   -1.8202   -1.0288    0.3146 N   0  0  0  0  0  0  0  0  0  0  0  0
   -2.5542   -0.5788   -0.2104 H   0  0  0  0  0  0  0  0  0  0  0  0
   -0.5102   -0.3728    0.3086 C   0  0  1  0  0  0  0  0  0  0  0  0
   -0.5739    0.5403    0.9023 H   0  0  0  0  0  0  0  0  0  0  0  0
    0.5233   -1.3028    0.9705 C   0  0  0  0  0  0  0  0  0  0  0  0
    0.5395   -2.2553    0.4379 H   0  0  0  0  0  0  0  0  0  0  0  0
    1.5139   -0.8528    0.8835 H   0  0  0  0  0  0  0  0  0  0  0  0
    0.2470   -1.5727    2.4269 C   0  0  0  0  0  0  0  0  0  0  0  0
    0.4574   -0.6996    3.4725 N   0  0  0  0  0  0  0  0  0  0  0  0
    0.8955    0.2074    3.4114 H   0  0  0  0  0  0  0  0  0  0  0  0
   -0.0186   -1.2698    4.5922 C   0  0  0  0  0  0  0  0  0  0  0  0
    0.0087   -0.8272    5.5804 H   0  0  0  0  0  0  0  0  0  0  0  0
   -0.5411   -2.4732    4.3145 N   0  0  0  0  0  0  0  0  0  0  0  0
   -0.3745   -2.6787    2.9425 C   0  0  0  0  0  0  0  0  0  0  0  0
   -0.7091   -3.5408    2.3802 H   0  0  0  0  0  0  0  0  0  0  0  0
   -0.1036    0.0230   -1.1210 C   0  0  0  0  0  0  0  0  0  0  0  0
   -0.6433    0.9803   -1.6754 O   0  0  0  0  0  0  0  0  0  0  0  0
    0.8326   -0.7209   -1.7232 N   0  0  0  0  0  0  0  0  0  0  0  0
    1.1880   -1.5222   -1.2227 H   0  0  0  0  0  0  0  0  0  0  0  0
    1.3362   -0.4797   -3.0728 C   0  0  0  0  0  0  0  0  0  0  0  0
    1.7799    0.5169   -3.1289 H   0  0  0  0  0  0  0  0  0  0  0  0
    2.0912   -1.2234   -3.3296 H   0  0  0  0  0  0  0  0  0  0  0  0
    0.5163   -0.5363   -3.7904 H   0  0  0  0  0  0  0  0  0  0  0  0
  5  6  2  0  0  0  0
  5  7  1  0  0  0  0
  2  3  1  0  0  0  0
  2  4  1  0  0  0  0
  2  5  1  0  0  0  0
  1  2  1  0  0  0  0
 22 23  2  0  0  0  0
 22 24  1  0  0  0  0
 20 21  1  0  0  0  0
 19 20  1  0  0  0  0
 17 18  1  0  0  0  0
 17 19  2  0  0  0  0
 15 16  1  0  0  0  0
 15 17  1  0  0  0  0
 14 15  1  0  0  0  0
 14 20  2  0  0  0  0
 11 12  1  0  0  0  0
 11 13  1  0  0  0  0
 11 14  1  0  0  0  0
  9 10  1  0  0  0  0
  9 11  1  0  0  0  0
  9 22  1  0  0  0  0
  7  8  1  0  0  0  0
  7  9  1  0  0  0  0
 26 27  1  0  0  0  0
 26 28  1  0  0  0  0
 26 29  1  0  0  0  0
 24 25  1  0  0  0  0
 24 26  1  0  0  0  0
M  END
$$$$
default_name
  -OEChem-01062215323D

 29 29  0     1  0  0  0  0  0999 V2000
   -3.6042   -3.5728    1.4576 H   0  0  0  0  0  0  0  0  0  0  0  0
   -3.5202   -2.6488    0.8866 C   0  0  0  0  0  0  0  0  0  0  0  0
   -4.2052   -1.9048    1.2896 H   0  0  0  0  0  0  0  0  0  0  0  0
   -3.7552   -2.8428   -0.1584 H   0  0  0  0  0  0  0  0  0  0  0  0
   -2.1052   -2.1358    0.9946 C   0  0  0  0  0  0  0  0  0  0  0  0
   -1.2852   -2.7288    1.6826 O   0  0  0  0  0  0  0  0  0  0  0  0
   -1.8202   -1.0288    0.3146 N   0  0  0  0  0  0  0  0  0  0  0  0
   -2.5542   -0.5788   -0.2104 H   0  0  0  0  0  0  0  0  0  0  0  0
   -0.5102   -0.3728    0.3086 C   0  0  1  0  0  0  0  0  0  0  0  0
   -0.5739    0.5403    0.9023 H   0  0  0  0  0  0  0  0  0  0  0  0
    0.5233   -1.3028    0.9705 C   0  0  0  0  0  0  0  0  0  0  0  0
    0.5395   -2.2553    0.4379 H   0  0  0  0  0  0  0  0  0  0  0  0
    1.5139   -0.8528    0.8835 H   0  0  0  0  0  0  0  0  0  0  0  0
    0.2470   -1.5727    2.4269 C   0  0  0  0  0  0  0  0  0  0  0  0
    0.4574   -0.6996    3.4725 N   0  0  0  0  0  0  0  0  0  0  0  0
    0.8955    0.2074    3.4114 H   0  0  0  0  0  0  0  0  0  0  0  0
   -0.0186   -1.2698    4.5922 C   0  0  0  0  0  0  0  0  0  0  0  0
    0.0087   -0.8272    5.5804 H   0  0  0  0  0  0  0  0  0  0  0  0
   -0.5411   -2.4732    4.3145 N   0  0  0  0  0  0  0  0  0  0  0  0
   -0.3745   -2.6787    2.9425 C   0  0  0  0  0  0  0  0  0  0  0  0
   -0.7091   -3.5408    2.3802 H   0  0  0  0  0  0  0  0  0  0  0  0
   -0.1036    0.0230   -1.1210 C   0  0  0  0  0  0  0  0  0  0  0  0
   -0.4260    1.1208   -1.5747 O   0  0  0  0  0  0  0  0  0  0  0  0
    0.5871   -0.8741   -1.8355 N   0  0  0  0  0  0  0  0  0  0  0  0
    0.7659   -1.7730   -1.4122 H   0  0  0  0  0  0  0  0  0  0  0  0
    1.0548   -0.6573   -3.2020 C   0  0  0  0  0  0  0  0  0  0  0  0
    1.7232    0.2062   -3.2310 H   0  0  0  0  0  0  0  0  0  0  0  0
    1.5903   -1.5375   -3.5590 H   0  0  0  0  0  0  0  0  0  0  0  0
    0.2053   -0.4618   -3.8582 H   0  0  0  0  0  0  0  0  0  0  0  0
  5  6  2  0  0  0  0
  5  7  1  0  0  0  0
  2  3  1  0  0  0  0
  2  4  1  0  0  0  0
  2  5  1  0  0  0  0
  1  2  1  0  0  0  0
 22 23  2  0  0  0  0
 22 24  1  0  0  0  0
 20 21  1  0  0  0  0
 19 20  1  0  0  0  0
 17 18  1  0  0  0  0
 17 19  2  0  0  0  0
 15 16  1  0  0  0  0
 15 17  1  0  0  0  0
 14 15  1  0  0  0  0
 14 20  2  0  0  0  0
 11 12  1  0  0  0  0
 11 13  1  0  0  0  0
 11 14  1  0  0  0  0
  9 10  1  0  0  0  0
  9 11  1  0  0  0  0
  9 22  1  0  0  0  0
  7  8  1  0  0  0  0
  7  9  1  0  0  0  0
 26 27  1  0  0  0  0
 26 28  1  0  0  0  0
 26 29  1  0  0  0  0
 24 25  1  0  0  0  0
 24 26  1  0  0  0  0
M  END
$$$$
default_name
  -OEChem-01062215323D

 29 29  0     1  0  0  0  0  0999 V2000
   -3.6042   -3.5728    1.4576 H   0  0  0  0  0  0  0  0  0  0  0  0
   -3.5202   -2.6488    0.8866 C   0  0  0  0  0  0  0  0  0  0  0  0
   -4.2052   -1.9048    1.2896 H   0  0  0  0  0  0  0  0  0  0  0  0
   -3.7552   -2.8428   -0.1584 H   0  0  0  0  0  0  0  0  0  0  0  0
   -2.1052   -2.1358    0.9946 C   0  0  0  0  0  0  0  0  0  0  0  0
   -1.2852   -2.7288    1.6826 O   0  0  0  0  0  0  0  0  0  0  0  0
   -1.8202   -1.0288    0.3146 N   0  0  0  0  0  0  0  0  0  0  0  0
   -2.5542   -0.5788   -0.2104 H   0  0  0  0  0  0  0  0  0  0  0  0
   -0.5102   -0.3728    0.3086 C   0  0  1  0  0  0  0  0  0  0  0  0
   -0.5739    0.5403    0.9023 H   0  0  0  0  0  0  0  0  0  0  0  0
    0.5233   -1.3028    0.9705 C   0  0  0  0  0  0  0  0  0  0  0  0
    0.5395   -2.2553    0.4379 H   0  0  0  0  0  0  0  0  0  0  0  0
    1.5139   -0.8528    0.8835 H   0  0  0  0  0  0  0  0  0  0  0  0
    0.2470   -1.5727    2.4269 C   0  0  0  0  0  0  0  0  0  0  0  0
    0.4574   -0.6996    3.4725 N   0  0  0  0  0  0  0  0  0  0  0  0
    0.8955    0.2074    3.4114 H   0  0  0  0  0  0  0  0  0  0  0  0
   -0.0186   -1.2698    4.5922 C   0  0  0  0  0  0  0  0  0  0  0  0
    0.0087   -0.8272    5.5804 H   0  0  0  0  0  0  0  0  0  0  0  0
   -0.5411   -2.4732    4.3145 N   0  0  0  0  0  0  0  0  0  0  0  0
   -0.3745   -2.6787    2.9425 C   0  0  0  0  0  0  0  0  0  0  0  0
   -0.7091   -3.5408    2.3802 H   0  0  0  0  0  0  0  0  0  0  0  0
   -0.1036    0.0230   -1.1210 C   0  0  0  0  0  0  0  0  0  0  0  0
   -0.1755    1.1974   -1.4823 O   0  0  0  0  0  0  0  0  0  0  0  0
    0.3057   -0.9555   -1.9380 N   0  0  0  0  0  0  0  0  0  0  0  0
    0.2851   -1.9007   -1.5843 H   0  0  0  0  0  0  0  0  0  0  0  0
    0.7317   -0.7523   -3.3202 C   0  0  0  0  0  0  0  0  0  0  0  0
    1.5869   -0.0733   -3.3472 H   0  0  0  0  0  0  0  0  0  0  0  0
    1.0156   -1.7048   -3.7688 H   0  0  0  0  0  0  0  0  0  0  0  0
   -0.0816   -0.3104   -3.8979 H   0  0  0  0  0  0  0  0  0  0  0  0
  5  6  2  0  0  0  0
  5  7  1  0  0  0  0
  2  3  1  0  0  0  0
  2  4  1  0  0  0  0
  2  5  1  0  0  0  0
  1  2  1  0  0  0  0
 22 23  2  0  0  0  0
 22 24  1  0  0  0  0
 20 21  1  0  0  0  0
 19 20  1  0  0  0  0
 17 18  1  0  0  0  0
 17 19  2  0  0  0  0
 15 16  1  0  0  0  0
 15 17  1  0  0  0  0
 14 15  1  0  0  0  0
 14 20  2  0  0  0  0
 11 12  1  0  0  0  0
 11 13  1  0  0  0  0
 11 14  1  0  0  0  0
  9 10  1  0  0  0  0
  9 11  1  0  0  0  0
  9 22  1  0  0  0  0
  7  8  1  0  0  0  0
  7  9  1  0  0  0  0
 26 27  1  0  0  0  0
 26 28  1  0  0  0  0
 26 29  1  0  0  0  0
 24 25  1  0  0  0  0
 24 26  1  0  0  0  0
M  END
$$$$
default_name
  -OEChem-01062215323D

 29 29  0     1  0  0  0  0  0999 V2000
   -3.6042   -3.5728    1.4576 H   0  0  0  0  0  0  0  0  0  0  0  0
   -3.5202   -2.6488    0.8866 C   0  0  0  0  0  0  0  0  0  0  0  0
   -4.2052   -1.9048    1.2896 H   0  0  0  0  0  0  0  0  0  0  0  0
   -3.7552   -2.8428   -0.1584 H   0  0  0  0  0  0  0  0  0  0  0  0
   -2.1052   -2.1358    0.9946 C   0  0  0  0  0  0  0  0  0  0  0  0
   -1.2852   -2.7288    1.6826 O   0  0  0  0  0  0  0  0  0  0  0  0
   -1.8202   -1.0288    0.3146 N   0  0  0  0  0  0  0  0  0  0  0  0
   -2.5542   -0.5788   -0.2104 H   0  0  0  0  0  0  0  0  0  0  0  0
   -0.5102   -0.3728    0.3086 C   0  0  1  0  0  0  0  0  0  0  0  0
   -0.5739    0.5403    0.9023 H   0  0  0  0  0  0  0  0  0  0  0  0
    0.5233   -1.3028    0.9705 C   0  0  0  0  0  0  0  0  0  0  0  0
    0.5395   -2.2553    0.4379 H   0  0  0  0  0  0  0  0  0  0  0  0
    1.5139   -0.8528    0.8835 H   0  0  0  0  0  0  0  0  0  0  0  0
    0.2470   -1.5727    2.4269 C   0  0  0  0  0  0  0  0  0  0  0  0
    0.4574   -0.6996    3.4725 N   0  0  0  0  0  0  0  0  0  0  0  0
    0.8955    0.2074    3.4114 H   0  0  0  0  0  0  0  0  0  0  0  0
   -0.0186   -1.2698    4.5922 C   0  0  0  0  0  0  0  0  0  0  0  0
    0.0087   -0.8272    5.5804 H   0  0  0  0  0  0  0  0  0  0  0  0
   -0.5411   -2.4732    4.3145 N   0  0  0  0  0  0  0  0  0  0  0  0
   -0.3745   -2.6787    2.9425 C   0  0  0  0  0  0  0  0  0  0  0  0
   -0.7091   -3.5408    2.3802 H   0  0  0  0  0  0  0  0  0  0  0  0
   -0.1036    0.0230   -1.1210 C   0  0  0  0  0  0  0  0  0  0  0  0
    0.0909    1.2048   -1.4044 O   0  0  0  0  0  0  0  0  0  0  0  0
    0.0075   -0.9593   -2.0239 N   0  0  0  0  0  0  0  0  0  0  0  0
   -0.2214   -1.8966   -1.7273 H   0  0  0  0  0  0  0  0  0  0  0  0
    0.3889   -0.7583   -3.4194 C   0  0  0  0  0  0  0  0  0  0  0  0
    1.3803   -0.3026   -3.4694 H   0  0  0  0  0  0  0  0  0  0  0  0
    0.4063   -1.7137   -3.9446 H   0  0  0  0  0  0  0  0  0  0  0  0
   -0.3250   -0.0924   -3.9068 H   0  0  0  0  0  0  0  0  0  0  0  0
  5  6  2  0  0  0  0
  5  7  1  0  0  0  0
  2  3  1  0  0  0  0
  2  4  1  0  0  0  0
  2  5  1  0  0  0  0
  1  2  1  0  0  0  0
 22 23  2  0  0  0  0
 22 24  1  0  0  0  0
 20 21  1  0  0  0  0
 19 20  1  0  0  0  0
 17 18  1  0  0  0  0
 17 19  2  0  0  0  0
 15 16  1  0  0  0  0
 15 17  1  0  0  0  0
 14 15  1  0  0  0  0
 14 20  2  0  0  0  0
 11 12  1  0  0  0  0
 11 13  1  0  0  0  0
 11 14  1  0  0  0  0
  9 10  1  0  0  0  0
  9 11  1  0  0  0  0
  9 22  1  0  0  0  0
  7  8  1  0  0  0  0
  7  9  1  0  0  0  0
 26 27  1  0  0  0  0
 26 28  1  0  0  0  0
 26 29  1  0  0  0  0
 24 25  1  0  0  0  0
 24 26  1  0  0  0  0
M  END
$$$$
default_name
  -OEChem-01062215323D

 29 29  0     1  0  0  0  0  0999 V2000
   -3.6042   -3.5728    1.4576 H   0  0  0  0  0  0  0  0  0  0  0  0
   -3.5202   -2.6488    0.8866 C   0  0  0  0  0  0  0  0  0  0  0  0
   -4.2052   -1.9048    1.2896 H   0  0  0  0  0  0  0  0  0  0  0  0
   -3.7552   -2.8428   -0.1584 H   0  0  0  0  0  0  0  0  0  0  0  0
   -2.1052   -2.1358    0.9946 C   0  0  0  0  0  0  0  0  0  0  0  0
   -1.2852   -2.7288    1.6826 O   0  0  0  0  0  0  0  0  0  0  0  0
   -1.8202   -1.0288    0.3146 N   0  0  0  0  0  0  0  0  0  0  0  0
   -2.5542   -0.5788   -0.2104 H   0  0  0  0  0  0  0  0  0  0  0  0
   -0.5102   -0.3728    0.3086 C   0  0  1  0  0  0  0  0  0  0  0  0
   -0.5739    0.5403    0.9023 H   0  0  0  0  0  0  0  0  0  0  0  0
    0.5233   -1.3028    0.9705 C   0  0  0  0  0  0  0  0  0  0  0  0
    0.5395   -2.2553    0.4379 H   0  0  0  0  0  0  0  0  0  0  0  0
    1.5139   -0.8528    0.8835 H   0  0  0  0  0  0  0  0  0  0  0  0
    0.2470   -1.5727    2.4269 C   0  0  0  0  0  0  0  0  0  0  0  0
    0.4574   -0.6996    3.4725 N   0  0  0  0  0  0  0  0  0  0  0  0
    0.8955    0.2074    3.4114 H   0  0  0  0  0  0  0  0  0  0  0  0
   -0.0186   -1.2698    4.5922 C   0  0  0  0  0  0  0  0  0  0  0  0
    0.0087   -0.8272    5.5804 H   0  0  0  0  0  0  0  0  0  0  0  0
   -0.5411   -2.4732    4.3145 N   0  0  0  0  0  0  0  0  0  0  0  0
   -0.3745   -2.6787    2.9425 C   0  0  0  0  0  0  0  0  0  0  0  0
   -0.7091   -3.5408    2.3802 H   0  0  0  0  0  0  0  0  0  0  0  0
   -0.1036    0.0230   -1.1210 C   0  0  0  0  0  0  0  0  0  0  0  0
    0.3553    1.1426   -1.3465 O   0  0  0  0  0  0  0  0  0  0  0  0
   -0.2872   -0.8854   -2.0872 N   0  0  0  0  0  0  0  0  0  0  0  0
   -0.7192   -1.7611   -1.8313 H   0  0  0  0  0  0  0  0  0  0  0  0
    0.0496   -0.6748   -3.4927 C   0  0  0  0  0  0  0  0  0  0  0  0
    1.1175   -0.4660   -3.5894 H   0  0  0  0  0  0  0  0  0  0  0  0
   -0.1961   -1.5637   -4.0744 H   0  0  0  0  0  0  0  0  0  0  0  0
   -0.5083    0.1773   -3.8842 H   0  0  0  0  0  0  0  0  0  0  0  0
  5  6  2  0  0  0  0
  5  7  1  0  0  0  0
  2  3  1  0  0  0  0
  2  4  1  0  0  0  0
  2  5  1  0  0  0  0
  1  2  1  0  0  0  0
 22 23  2  0  0  0  0
 22 24  1  0  0  0  0
 20 21  1  0  0  0  0
 19 20  1  0  0  0  0
 17 18  1  0  0  0  0
 17 19  2  0  0  0  0
 15 16  1  0  0  0  0
 15 17  1  0  0  0  0
 14 15  1  0  0  0  0
 14 20  2  0  0  0  0
 11 12  1  0  0  0  0
 11 13  1  0  0  0  0
 11 14  1  0  0  0  0
  9 10  1  0  0  0  0
  9 11  1  0  0  0  0
  9 22  1  0  0  0  0
  7  8  1  0  0  0  0
  7  9  1  0  0  0  0
 26 27  1  0  0  0  0
 26 28  1  0  0  0  0
 26 29  1  0  0  0  0
 24 25  1  0  0  0  0
 24 26  1  0  0  0  0
M  END
$$$$
default_name
  -OEChem-01062215323D

 29 29  0     1  0  0  0  0  0999 V2000
   -3.6042   -3.5728    1.4576 H   0  0  0  0  0  0  0  0  0  0  0  0
   -3.5202   -2.6488    0.8866 C   0  0  0  0  0  0  0  0  0  0  0  0
   -4.2052   -1.9048    1.2896 H   0  0  0  0  0  0  0  0  0  0  0  0
   -3.7552   -2.8428   -0.1584 H   0  0  0  0  0  0  0  0  0  0  0  0
   -2.1052   -2.1358    0.9946 C   0  0  0  0  0  0  0  0  0  0  0  0
   -1.2852   -2.7288    1.6826 O   0  0  0  0  0  0  0  0  0  0  0  0
   -1.8202   -1.0288    0.3146 N   0  0  0  0  0  0  0  0  0  0  0  0
   -2.5542   -0.5788   -0.2104 H   0  0  0  0  0  0  0  0  0  0  0  0
   -0.5102   -0.3728    0.3086 C   0  0  1  0  0  0  0  0  0  0  0  0
   -0.5739    0.5403    0.9023 H   0  0  0  0  0  0  0  0  0  0  0  0
    0.5233   -1.3028    0.9705 C   0  0  0  0  0  0  0  0  0  0  0  0
    0.5395   -2.2553    0.4379 H   0  0  0  0  0  0  0  0  0  0  0  0
    1.5139   -0.8528    0.8835 H   0  0  0  0  0  0  0  0  0  0  0  0
    0.2470   -1.5727    2.4269 C   0  0  0  0  0  0  0  0  0  0  0  0
    0.4574   -0.6996    3.4725 N   0  0  0  0  0  0  0  0  0  0  0  0
    0.8955    0.2074    3.4114 H   0  0  0  0  0  0  0  0  0  0  0  0
   -0.0186   -1.2698    4.5922 C   0  0  0  0  0  0  0  0  0  0  0  0
    0.0087   -0.8272    5.5804 H   0  0  0  0  0  0  0  0  0  0  0  0
   -0.5411   -2.4732    4.3145 N   0  0  0  0  0  0  0  0  0  0  0  0
   -0.3745   -2.6787    2.9425 C   0  0  0  0  0  0  0  0  0  0  0  0
   -0.7091   -3.5408    2.3802 H   0  0  0  0  0  0  0  0  0  0  0  0
   -0.1036    0.0230   -1.1210 C   0  0  0  0  0  0  0  0  0  0  0  0
    0.5996    1.0149   -1.3123 O   0  0  0  0  0  0  0  0  0  0  0  0
   -0.5583   -0.7388   -2.1238 N   0  0  0  0  0  0  0  0  0  0  0  0
   -1.1744   -1.5033   -1.8894 H   0  0  0  0  0  0  0  0  0  0  0  0
   -0.2628   -0.5075   -3.5353 C   0  0  0  0  0  0  0  0  0  0  0  0
    0.8163   -0.5523   -3.6990 H   0  0  0  0  0  0  0  0  0  0  0  0
   -0.7505   -1.2651   -4.1494 H   0  0  0  0  0  0  0  0  0  0  0  0
   -0.6189    0.4804   -3.8318 H   0  0  0  0  0  0  0  0  0  0  0  0
  5  6  2  0  0  0  0
  5  7  1  0  0  0  0
  2  3  1  0  0  0  0
  2  4  1  0  0  0  0
  2  5  1  0  0  0  0
  1  2  1  0  0  0  0
 22 23  2  0  0  0  0
 22 24  1  0  0  0  0
 20 21  1  0  0  0  0
 19 20  1  0  0  0  0
 17 18  1  0  0  0  0
 17 19  2  0  0  0  0
 15 16  1  0  0  0  0
 15 17  1  0  0  0  0
 14 15  1  0  0  0  0
 14 20  2  0  0  0  0
 11 12  1  0  0  0  0
 11 13  1  0  0  0  0
 11 14  1  0  0  0  0
  9 10  1  0  0  0  0
  9 11  1  0  0  0  0
  9 22  1  0  0  0  0
  7  8  1  0  0  0  0
  7  9  1  0  0  0  0
 26 27  1  0  0  0  0
 26 28  1  0  0  0  0
 26 29  1  0  0  0  0
 24 25  1  0  0  0  0
 24 26  1  0  0  0  0
M  END
$$$$
default_name
  -OEChem-01062215323D

 29 29  0     1  0  0  0  0  0999 V2000
   -3.6042   -3.5728    1.4576 H   0  0  0  0  0  0  0  0  0  0  0  0
   -3.5202   -2.6488    0.8866 C   0  0  0  0  0  0  0  0  0  0  0  0
   -4.2052   -1.9048    1.2896 H   0  0  0  0  0  0  0  0  0  0  0  0
   -3.7552   -2.8428   -0.1584 H   0  0  0  0  0  0  0  0  0  0  0  0
   -2.1052   -2.1358    0.9946 C   0  0  0  0  0  0  0  0  0  0  0  0
   -1.2852   -2.7288    1.6826 O   0  0  0  0  0  0  0  0  0  0  0  0
   -1.8202   -1.0288    0.3146 N   0  0  0  0  0  0  0  0  0  0  0  0
   -2.5542   -0.5788   -0.2104 H   0  0  0  0  0  0  0  0  0  0  0  0
   -0.5102   -0.3728    0.3086 C   0  0  1  0  0  0  0  0  0  0  0  0
   -0.5739    0.5403    0.9023 H   0  0  0  0  0  0  0  0  0  0  0  0
    0.5233   -1.3028    0.9705 C   0  0  0  0  0  0  0  0  0  0  0  0
    0.5395   -2.2553    0.4379 H   0  0  0  0  0  0  0  0  0  0  0  0
    1.5139   -0.8528    0.8835 H   0  0  0  0  0  0  0  0  0  0  0  0
    0.2470   -1.5727    2.4269 C   0  0  0  0  0  0  0  0  0  0  0  0
    0.4574   -0.6996    3.4725 N   0  0  0  0  0  0  0  0  0  0  0  0
    0.8955    0.2074    3.4114 H   0  0  0  0  0  0  0  0  0  0  0  0
   -0.0186   -1.2698    4.5922 C   0  0  0  0  0  0  0  0  0  0  0  0
    0.0087   -0.8272    5.5804 H   0  0  0  0  0  0  0  0  0  0  0  0
   -0.5411   -2.4732    4.3145 N   0  0  0  0  0  0  0  0  0  0  0  0
   -0.3745   -2.6787    2.9425 C   0  0  0  0  0  0  0  0  0  0  0  0
   -0.7091   -3.5408    2.3802 H   0  0  0  0  0  0  0  0  0  0  0  0
   -0.1036    0.0230   -1.1210 C   0  0  0  0  0  0  0  0  0  0  0  0
    0.8070    0.8304   -1.3044 O   0  0  0  0  0  0  0  0  0  0  0  0
   -0.7873   -0.5295   -2.1309 N   0  0  0  0  0  0  0  0  0  0  0  0
   -1.5559   -1.1407   -1.8975 H   0  0  0  0  0  0  0  0  0  0  0  0
   -0.5272   -0.2678   -3.5441 C   0  0  0  0  0  0  0  0  0  0  0  0
    0.4973   -0.5558   -3.7907 H   0  0  0  0  0  0  0  0  0  0  0  0
   -1.2192   -0.8381   -4.1645 H   0  0  0  0  0  0  0  0  0  0  0  0
   -0.6493    0.7961   -3.7530 H   0  0  0  0  0  0  0  0  0  0  0  0
  5  6  2  0  0  0  0
  5  7  1  0  0  0  0
  2  3  1  0  0  0  0
  2  4  1  0  0  0  0
  2  5  1  0  0  0  0
  1  2  1  0  0  0  0
 22 23  2  0  0  0  0
 22 24  1  0  0  0  0
 20 21  1  0  0  0  0
 19 20  1  0  0  0  0
 17 18  1  0  0  0  0
 17 19  2  0  0  0  0
 15 16  1  0  0  0  0
 15 17  1  0  0  0  0
 14 15  1  0  0  0  0
 14 20  2  0  0  0  0
 11 12  1  0  0  0  0
 11 13  1  0  0  0  0
 11 14  1  0  0  0  0
  9 10  1  0  0  0  0
  9 11  1  0  0  0  0
  9 22  1  0  0  0  0
  7  8  1  0  0  0  0
  7  9  1  0  0  0  0
 26 27  1  0  0  0  0
 26 28  1  0  0  0  0
 26 29  1  0  0  0  0
 24 25  1  0  0  0  0
 24 26  1  0  0  0  0
M  END
$$$$
default_name
  -OEChem-01062215323D

 29 29  0     1  0  0  0  0  0999 V2000
   -3.6042   -3.5728    1.4576 H   0  0  0  0  0  0  0  0  0  0  0  0
   -3.5202   -2.6488    0.8866 C   0  0  0  0  0  0  0  0  0  0  0  0
   -4.2052   -1.9048    1.2896 H   0  0  0  0  0  0  0  0  0  0  0  0
   -3.7552   -2.8428   -0.1584 H   0  0  0  0  0  0  0  0  0  0  0  0
   -2.1052   -2.1358    0.9946 C   0  0  0  0  0  0  0  0  0  0  0  0
   -1.2852   -2.7288    1.6826 O   0  0  0  0  0  0  0  0  0  0  0  0
   -1.8202   -1.0288    0.3146 N   0  0  0  0  0  0  0  0  0  0  0  0
   -2.5542   -0.5788   -0.2104 H   0  0  0  0  0  0  0  0  0  0  0  0
   -0.5102   -0.3728    0.3086 C   0  0  1  0  0  0  0  0  0  0  0  0
   -0.5739    0.5403    0.9023 H   0  0  0  0  0  0  0  0  0  0  0  0
    0.5233   -1.3028    0.9705 C   0  0  0  0  0  0  0  0  0  0  0  0
    0.5395   -2.2553    0.4379 H   0  0  0  0  0  0  0  0  0  0  0  0
    1.5139   -0.8528    0.8835 H   0  0  0  0  0  0  0  0  0  0  0  0
    0.2470   -1.5727    2.4269 C   0  0  0  0  0  0  0  0  0  0  0  0
    0.4574   -0.6996    3.4725 N   0  0  0  0  0  0  0  0  0  0  0  0
    0.8955    0.2074    3.4114 H   0  0  0  0  0  0  0  0  0  0  0  0
   -0.0186   -1.2698    4.5922 C   0  0  0  0  0  0  0  0  0  0  0  0
    0.0087   -0.8272    5.5804 H   0  0  0  0  0  0  0  0  0  0  0  0
   -0.5411   -2.4732    4.3145 N   0  0  0  0  0  0  0  0  0  0  0  0
   -0.3745   -2.6787    2.9425 C   0  0  0  0  0  0  0  0  0  0  0  0
   -0.7091   -3.5408    2.3802 H   0  0  0  0  0  0  0  0  0  0  0  0
   -0.1036    0.0230   -1.1210 C   0  0  0  0  0  0  0  0  0  0  0  0
    0.9636    0.6018   -1.3232 O   0  0  0  0  0  0  0  0  0  0  0  0
   -0.9586   -0.2717   -2.1083 N   0  0  0  0  0  0  0  0  0  0  0  0
   -1.8378   -0.6983   -1.8552 H   0  0  0  0  0  0  0  0  0  0  0  0
   -0.7255    0.0279   -3.5187 C   0  0  0  0  0  0  0  0  0  0  0  0
    0.1822   -0.4761   -3.8582 H   0  0  0  0  0  0  0  0  0  0  0  0
   -1.5702   -0.3119   -4.1186 H   0  0  0  0  0  0  0  0  0  0  0  0
   -0.5975    1.1031   -3.6533 H   0  0  0  0  0  0  0  0  0  0  0  0
  5  6  2  0  0  0  0
  5  7  1  0  0  0  0
  2  3  1  0  0  0  0
  2  4  1  0  0  0  0
  2  5  1  0  0  0  0
  1  2  1  0  0  0  0
 22 23  2  0  0  0  0
 22 24  1  0  0  0  0
 20 21  1  0  0  0  0
 19 20  1  0  0  0  0
 17 18  1  0  0  0  0
 17 19  2  0  0  0  0
 15 16  1  0  0  0  0
 15 17  1  0  0  0  0
 14 15  1  0  0  0  0
 14 20  2  0  0  0  0
 11 12  1  0  0  0  0
 11 13  1  0  0  0  0
 11 14  1  0  0  0  0
  9 10  1  0  0  0  0
  9 11  1  0  0  0  0
  9 22  1  0  0  0  0
  7  8  1  0  0  0  0
  7  9  1  0  0  0  0
 26 27  1  0  0  0  0
 26 28  1  0  0  0  0
 26 29  1  0  0  0  0
 24 25  1  0  0  0  0
 24 26  1  0  0  0  0
M  END
$$$$
default_name
  -OEChem-01062215323D

 29 29  0     1  0  0  0  0  0999 V2000
   -3.6042   -3.5728    1.4576 H   0  0  0  0  0  0  0  0  0  0  0  0
   -3.5202   -2.6488    0.8866 C   0  0  0  0  0  0  0  0  0  0  0  0
   -4.2052   -1.9048    1.2896 H   0  0  0  0  0  0  0  0  0  0  0  0
   -3.7552   -2.8428   -0.1584 H   0  0  0  0  0  0  0  0  0  0  0  0
   -2.1052   -2.1358    0.9946 C   0  0  0  0  0  0  0  0  0  0  0  0
   -1.2852   -2.7288    1.6826 O   0  0  0  0  0  0  0  0  0  0  0  0
   -1.8202   -1.0288    0.3146 N   0  0  0  0  0  0  0  0  0  0  0  0
   -2.5542   -0.5788   -0.2104 H   0  0  0  0  0  0  0  0  0  0  0  0
   -0.5102   -0.3728    0.3086 C   0  0  1  0  0  0  0  0  0  0  0  0
   -0.5739    0.5403    0.9023 H   0  0  0  0  0  0  0  0  0  0  0  0
    0.5233   -1.3028    0.9705 C   0  0  0  0  0  0  0  0  0  0  0  0
    0.5395   -2.2553    0.4379 H   0  0  0  0  0  0  0  0  0  0  0  0
    1.5139   -0.8528    0.8835 H   0  0  0  0  0  0  0  0  0  0  0  0
    0.2470   -1.5727    2.4269 C   0  0  0  0  0  0  0  0  0  0  0  0
    0.4574   -0.6996    3.4725 N   0  0  0  0  0  0  0  0  0  0  0  0
    0.8955    0.2074    3.4114 H   0  0  0  0  0  0  0  0  0  0  0  0
   -0.0186   -1.2698    4.5922 C   0  0  0  0  0  0  0  0  0  0  0  0
    0.0087   -0.8272    5.5804 H   0  0  0  0  0  0  0  0  0  0  0  0
   -0.5411   -2.4732    4.3145 N   0  0  0  0  0  0  0  0  0  0  0  0
   -0.3745   -2.6787    2.9425 C   0  0  0  0  0  0  0  0  0  0  0  0
   -0.7091   -3.5408    2.3802 H   0  0  0  0  0  0  0  0  0  0  0  0
   -0.1036    0.0230   -1.1210 C   0  0  0  0  0  0  0  0  0  0  0  0
    1.0586    0.3446   -1.3674 O   0  0  0  0  0  0  0  0  0  0  0  0
   -1.0606    0.0170   -2.0574 N   0  0  0  0  0  0  0  0  0  0  0  0
   -2.0007   -0.2060   -1.7653 H   0  0  0  0  0  0  0  0  0  0  0  0
   -0.8442    0.3595   -3.4606 C   0  0  0  0  0  0  0  0  0  0  0  0
   -0.1075   -0.3187   -3.8970 H   0  0  0  0  0  0  0  0  0  0  0  0
   -1.7796    0.2777   -4.0149 H   0  0  0  0  0  0  0  0  0  0  0  0
   -0.4670    1.3803   -3.5394 H   0  0  0  0  0  0  0  0  0  0  0  0
  5  6  2  0  0  0  0
  5  7  1  0  0  0  0
  2  3  1  0  0  0  0
  2  4  1  0  0  0  0
  2  5  1  0  0  0  0
  1  2  1  0  0  0  0
 22 23  2  0  0  0  0
 22 24  1  0  0  0  0
 20 21  1  0  0  0  0
 19 20  1  0  0  0  0
 17 18  1  0  0  0  0
 17 19  2  0  0  0  0
 15 16  1  0  0  0  0
 15 17  1  0  0  0  0
 14 15  1  0  0  0  0
 14 20  2  0  0  0  0
 11 12  1  0  0  0  0
 11 13  1  0  0  0  0
 11 14  1  0  0  0  0
  9 10  1  0  0  0  0
  9 11  1  0  0  0  0
  9 22  1  0  0  0  0
  7  8  1  0  0  0  0
  7  9  1  0  0  0  0
 26 27  1  0  0  0  0
 26 28  1  0  0  0  0
 26 29  1  0  0  0  0
 24 25  1  0  0  0  0
 24 26  1  0  0  0  0
M  END
$$$$
default_name
  -OEChem-01062215323D

 29 29  0     1  0  0  0  0  0999 V2000
   -3.6042   -3.5728    1.4576 H   0  0  0  0  0  0  0  0  0  0  0  0
   -3.5202   -2.6488    0.8866 C   0  0  0  0  0  0  0  0  0  0  0  0
   -4.2052   -1.9048    1.2896 H   0  0  0  0  0  0  0  0  0  0  0  0
   -3.7552   -2.8428   -0.1584 H   0  0  0  0  0  0  0  0  0  0  0  0
   -2.1052   -2.1358    0.9946 C   0  0  0  0  0  0  0  0  0  0  0  0
   -1.2852   -2.7288    1.6826 O   0  0  0  0  0  0  0  0  0  0  0  0
   -1.8202   -1.0288    0.3146 N   0  0  0  0  0  0  0  0  0  0  0  0
   -2.5542   -0.5788   -0.2104 H   0  0  0  0  0  0  0  0  0  0  0  0
   -0.5102   -0.3728    0.3086 C   0  0  1  0  0  0  0  0  0  0  0  0
   -0.5739    0.5403    0.9023 H   0  0  0  0  0  0  0  0  0  0  0  0
    0.5233   -1.3028    0.9705 C   0  0  0  0  0  0  0  0  0  0  0  0
    0.5395   -2.2553    0.4379 H   0  0  0  0  0  0  0  0  0  0  0  0
    1.5139   -0.8528    0.8835 H   0  0  0  0  0  0  0  0  0  0  0  0
    0.2470   -1.5727    2.4269 C   0  0  0  0  0  0  0  0  0  0  0  0
    0.4574   -0.6996    3.4725 N   0  0  0  0  0  0  0  0  0  0  0  0
    0.8955    0.2074    3.4114 H   0  0  0  0  0  0  0  0  0  0  0  0
   -0.0186   -1.2698    4.5922 C   0  0  0  0  0  0  0  0  0  0  0  0
    0.0087   -0.8272    5.5804 H   0  0  0  0  0  0  0  0  0  0  0  0
   -0.5411   -2.4732    4.3145 N   0  0  0  0  0  0  0  0  0  0  0  0
   -0.3745   -2.6787    2.9425 C   0  0  0  0  0  0  0  0  0  0  0  0
   -0.7091   -3.5408    2.3802 H   0  0  0  0  0  0  0  0  0  0  0  0
   -0.1036    0.0230   -1.1210 C   0  0  0  0  0  0  0  0  0  0  0  0
    1.0855    0.0764   -1.4340 O   0  0  0  0  0  0  0  0  0  0  0  0
   -1.0862    0.3169   -1.9817 N   0  0  0  0  0  0  0  0  0  0  0  0
   -2.0337    0.3026   -1.6338 H   0  0  0  0  0  0  0  0  0  0  0  0
   -0.8753    0.7043   -3.3740 C   0  0  0  0  0  0  0  0  0  0  0  0
   -0.3520   -0.0944   -3.9045 H   0  0  0  0  0  0  0  0  0  0  0  0
   -1.8332    0.8905   -3.8605 H   0  0  0  0  0  0  0  0  0  0  0  0
   -0.2667    1.6088   -3.4192 H   0  0  0  0  0  0  0  0  0  0  0  0
  5  6  2  0  0  0  0
  5  7  1  0  0  0  0
  2  3  1  0  0  0  0
  2  4  1  0  0  0  0
  2  5  1  0  0  0  0
  1  2  1  0  0  0  0
 22 23  2  0  0  0  0
 22 24  1  0  0  0  0
 20 21  1  0  0  0  0
 19 20  1  0  0  0  0
 17 18  1  0  0  0  0
 17 19  2  0  0  0  0
 15 16  1  0  0  0  0
 15 17  1  0  0  0  0
 14 15  1  0  0  0  0
 14 20  2  0  0  0  0
 11 12  1  0  0  0  0
 11 13  1  0  0  0  0
 11 14  1  0  0  0  0
  9 10  1  0  0  0  0
  9 11  1  0  0  0  0
  9 22  1  0  0  0  0
  7  8  1  0  0  0  0
  7  9  1  0  0  0  0
 26 27  1  0  0  0  0
 26 28  1  0  0  0  0
 26 29  1  0  0  0  0
 24 25  1  0  0  0  0
 24 26  1  0  0  0  0
M  END
$$$$
default_name
  -OEChem-01062215323D

 29 29  0     1  0  0  0  0  0999 V2000
   -3.6042   -3.5728    1.4576 H   0  0  0  0  0  0  0  0  0  0  0  0
   -3.5202   -2.6488    0.8866 C   0  0  0  0  0  0  0  0  0  0  0  0
   -4.2052   -1.9048    1.2896 H   0  0  0  0  0  0  0  0  0  0  0  0
   -3.7552   -2.8428   -0.1584 H   0  0  0  0  0  0  0  0  0  0  0  0
   -2.1052   -2.1358    0.9946 C   0  0  0  0  0  0  0  0  0  0  0  0
   -1.2852   -2.7288    1.6826 O   0  0  0  0  0  0  0  0  0  0  0  0
   -1.8202   -1.0288    0.3146 N   0  0  0  0  0  0  0  0  0  0  0  0
   -2.5542   -0.5788   -0.2104 H   0  0  0  0  0  0  0  0  0  0  0  0
   -0.5102   -0.3728    0.3086 C   0  0  1  0  0  0  0  0  0  0  0  0
   -0.5739    0.5403    0.9023 H   0  0  0  0  0  0  0  0  0  0  0  0
    0.5233   -1.3028    0.9705 C   0  0  0  0  0  0  0  0  0  0  0  0
    0.5395   -2.2553    0.4379 H   0  0  0  0  0  0  0  0  0  0  0  0
    1.5139   -0.8528    0.8835 H   0  0  0  0  0  0  0  0  0  0  0  0
    0.2470   -1.5727    2.4269 C   0  0  0  0  0  0  0  0  0  0  0  0
    0.4574   -0.6996    3.4725 N   0  0  0  0  0  0  0  0  0  0  0  0
    0.8955    0.2074    3.4114 H   0  0  0  0  0  0  0  0  0  0  0  0
   -0.0186   -1.2698    4.5922 C   0  0  0  0  0  0  0  0  0  0  0  0
    0.0087   -0.8272    5.5804 H   0  0  0  0  0  0  0  0  0  0  0  0
   -0.5411   -2.4732    4.3145 N   0  0  0  0  0  0  0  0  0  0  0  0
   -0.3745   -2.6787    2.9425 C   0  0  0  0  0  0  0  0  0  0  0  0
   -0.7091   -3.5408    2.3802 H   0  0  0  0  0  0  0  0  0  0  0  0
   -0.1036    0.0230   -1.1210 C   0  0  0  0  0  0  0  0  0  0  0  0
    1.0425   -0.1847   -1.5185 O   0  0  0  0  0  0  0  0  0  0  0  0
   -1.0338    0.6075   -1.8863 N   0  0  0  0  0  0  0  0  0  0  0  0
   -1.9345    0.7928   -1.4699 H   0  0  0  0  0  0  0  0  0  0  0  0
   -0.8165    1.0390   -3.2646 C   0  0  0  0  0  0  0  0  0  0  0  0
   -0.5347    0.1817   -3.8800 H   0  0  0  0  0  0  0  0  0  0  0  0
   -1.7272    1.4847   -3.6659 H   0  0  0  0  0  0  0  0  0  0  0  0
   -0.0102    1.7732   -3.3007 H   0  0  0  0  0  0  0  0  0  0  0  0
  5  6  2  0  0  0  0
  5  7  1  0  0  0  0
  2  3  1  0  0  0  0
  2  4  1  0  0  0  0
  2  5  1  0  0  0  0
  1  2  1  0  0  0  0
 22 23  2  0  0  0  0
 22 24  1  0  0  0  0
 20 21  1  0  0  0  0
 19 20  1  0  0  0  0
 17 18  1  0  0  0  0
 17 19  2  0  0  0  0
 15 16  1  0  0  0  0
 15 17  1  0  0  0  0
 14 15  1  0  0  0  0
 14 20  2  0  0  0  0
 11 12  1  0  0  0  0
 11 13  1  0  0  0  0
 11 14  1  0  0  0  0
  9 10  1  0  0  0  0
  9 11  1  0  0  0  0
  9 22  1  0  0  0  0
  7  8  1  0  0  0  0
  7  9  1  0  0  0  0
 26 27  1  0  0  0  0
 26 28  1  0  0  0  0
 26 29  1  0  0  0  0
 24 25  1  0  0  0  0
 24 26  1  0  0  0  0
M  END
$$$$
default_name
  -OEChem-01062215323D

 29 29  0     1  0  0  0  0  0999 V2000
   -3.6042   -3.5728    1.4576 H   0  0  0  0  0  0  0  0  0  0  0  0
   -3.5202   -2.6488    0.8866 C   0  0  0  0  0  0  0  0  0  0  0  0
   -4.2052   -1.9048    1.2896 H   0  0  0  0  0  0  0  0  0  0  0  0
   -3.7552   -2.8428   -0.1584 H   0  0  0  0  0  0  0  0  0  0  0  0
   -2.1052   -2.1358    0.9946 C   0  0  0  0  0  0  0  0  0  0  0  0
   -1.2852   -2.7288    1.6826 O   0  0  0  0  0  0  0  0  0  0  0  0
   -1.8202   -1.0288    0.3146 N   0  0  0  0  0  0  0  0  0  0  0  0
   -2.5542   -0.5788   -0.2104 H   0  0  0  0  0  0  0  0  0  0  0  0
   -0.5102   -0.3728    0.3086 C   0  0  1  0  0  0  0  0  0  0  0  0
   -0.5739    0.5403    0.9023 H   0  0  0  0  0  0  0  0  0  0  0  0
    0.5233   -1.3028    0.9705 C   0  0  0  0  0  0  0  0  0  0  0  0
    0.5395   -2.2553    0.4379 H   0  0  0  0  0  0  0  0  0  0  0  0
    1.5139   -0.8528    0.8835 H   0  0  0  0  0  0  0  0  0  0  0  0
    0.2470   -1.5727    2.4269 C   0  0  0  0  0  0  0  0  0  0  0  0
    0.4574   -0.6996    3.4725 N   0  0  0  0  0  0  0  0  0  0  0  0
    0.8955    0.2074    3.4114 H   0  0  0  0  0  0  0  0  0  0  0  0
   -0.0186   -1.2698    4.5922 C   0  0  0  0  0  0  0  0  0  0  0  0
    0.0087   -0.8272    5.5804 H   0  0  0  0  0  0  0  0  0  0  0  0
   -0.5411   -2.4732    4.3145 N   0  0  0  0  0  0  0  0  0  0  0  0
   -0.3745   -2.6787    2.9425 C   0  0  0  0  0  0  0  0  0  0  0  0
   -0.7091   -3.5408    2.3802 H   0  0  0  0  0  0  0  0  0  0  0  0
   -0.1036    0.0230   -1.1210 C   0  0  0  0  0  0  0  0  0  0  0  0
    0.9326   -0.4207   -1.6151 O   0  0  0  0  0  0  0  0  0  0  0  0
   -0.9070    0.8691   -1.7778 N   0  0  0  0  0  0  0  0  0  0  0  0
   -1.7098    1.2313   -1.2846 H   0  0  0  0  0  0  0  0  0  0  0  0
   -0.6720    1.3407   -3.1400 C   0  0  0  0  0  0  0  0  0  0  0  0
   -0.6432    0.4906   -3.8253 H   0  0  0  0  0  0  0  0  0  0  0  0
   -1.4689    2.0199   -3.4442 H   0  0  0  0  0  0  0  0  0  0  0  0
    0.2850    1.8621   -3.1921 H   0  0  0  0  0  0  0  0  0  0  0  0
  5  6  2  0  0  0  0
  5  7  1  0  0  0  0
  2  3  1  0  0  0  0
  2  4  1  0  0  0  0
  2  5  1  0  0  0  0
  1  2  1  0  0  0  0
 22 23  2  0  0  0  0
 22 24  1  0  0  0  0
 20 21  1  0  0  0  0
 19 20  1  0  0  0  0
 17 18  1  0  0  0  0
 17 19  2  0  0  0  0
 15 16  1  0  0  0  0
 15 17  1  0  0  0  0
 14 15  1  0  0  0  0
 14 20  2  0  0  0  0
 11 12  1  0  0  0  0
 11 13  1  0  0  0  0
 11 14  1  0  0  0  0
  9 10  1  0  0  0  0
  9 11  1  0  0  0  0
  9 22  1  0  0  0  0
  7  8  1  0  0  0  0
  7  9  1  0  0  0  0
 26 27  1  0  0  0  0
 26 28  1  0  0  0  0
 26 29  1  0  0  0  0
 24 25  1  0  0  0  0
 24 26  1  0  0  0  0
M  END
$$$$
default_name
  -OEChem-01062215323D

 29 29  0     1  0  0  0  0  0999 V2000
   -3.6042   -3.5728    1.4576 H   0  0  0  0  0  0  0  0  0  0  0  0
   -3.5202   -2.6488    0.8866 C   0  0  0  0  0  0  0  0  0  0  0  0
   -4.2052   -1.9048    1.2896 H   0  0  0  0  0  0  0  0  0  0  0  0
   -3.7552   -2.8428   -0.1584 H   0  0  0  0  0  0  0  0  0  0  0  0
   -2.1052   -2.1358    0.9946 C   0  0  0  0  0  0  0  0  0  0  0  0
   -1.2852   -2.7288    1.6826 O   0  0  0  0  0  0  0  0  0  0  0  0
   -1.8202   -1.0288    0.3146 N   0  0  0  0  0  0  0  0  0  0  0  0
   -2.5542   -0.5788   -0.2104 H   0  0  0  0  0  0  0  0  0  0  0  0
   -0.5102   -0.3728    0.3086 C   0  0  1  0  0  0  0  0  0  0  0  0
   -0.5739    0.5403    0.9023 H   0  0  0  0  0  0  0  0  0  0  0  0
    0.5233   -1.3028    0.9705 C   0  0  0  0  0  0  0  0  0  0  0  0
    0.5395   -2.2553    0.4379 H   0  0  0  0  0  0  0  0  0  0  0  0
    1.5139   -0.8528    0.8835 H   0  0  0  0  0  0  0  0  0  0  0  0
    0.2470   -1.5727    2.4269 C   0  0  0  0  0  0  0  0  0  0  0  0
    0.4574   -0.6996    3.4725 N   0  0  0  0  0  0  0  0  0  0  0  0
    0.8955    0.2074    3.4114 H   0  0  0  0  0  0  0  0  0  0  0  0
   -0.0186   -1.2698    4.5922 C   0  0  0  0  0  0  0  0  0  0  0  0
    0.0087   -0.8272    5.5804 H   0  0  0  0  0  0  0  0  0  0  0  0
   -0.5411   -2.4732    4.3145 N   0  0  0  0  0  0  0  0  0  0  0  0
   -0.3745   -2.6787    2.9425 C   0  0  0  0  0  0  0  0  0  0  0  0
   -0.7091   -3.5408    2.3802 H   0  0  0  0  0  0  0  0  0  0  0  0
   -0.1036    0.0230   -1.1210 C   0  0  0  0  0  0  0  0  0  0  0  0
    0.7632   -0.6156   -1.7172 O   0  0  0  0  0  0  0  0  0  0  0  0
   -0.7142    1.0839   -1.6635 N   0  0  0  0  0  0  0  0  0  0  0  0
   -1.3750    1.5880   -1.0906 H   0  0  0  0  0  0  0  0  0  0  0  0
   -0.4515    1.5888   -3.0086 C   0  0  0  0  0  0  0  0  0  0  0  0
   -0.6700    0.8113   -3.7442 H   0  0  0  0  0  0  0  0  0  0  0  0
   -1.0760    2.4595   -3.2108 H   0  0  0  0  0  0  0  0  0  0  0  0
    0.5988    1.8696   -3.1008 H   0  0  0  0  0  0  0  0  0  0  0  0
  5  6  2  0  0  0  0
  5  7  1  0  0  0  0
  2  3  1  0  0  0  0
  2  4  1  0  0  0  0
  2  5  1  0  0  0  0
  1  2  1  0  0  0  0
 22 23  2  0  0  0  0
 22 24  1  0  0  0  0
 20 21  1  0  0  0  0
 19 20  1  0  0  0  0
 17 18  1  0  0  0  0
 17 19  2  0  0  0  0
 15 16  1  0  0  0  0
 15 17  1  0  0  0  0
 14 15  1  0  0  0  0
 14 20  2  0  0  0  0
 11 12  1  0  0  0  0
 11 13  1  0  0  0  0
 11 14  1  0  0  0  0
  9 10  1  0  0  0  0
  9 11  1  0  0  0  0
  9 22  1  0  0  0  0
  7  8  1  0  0  0  0
  7  9  1  0  0  0  0
 26 27  1  0  0  0  0
 26 28  1  0  0  0  0
 26 29  1  0  0  0  0
 24 25  1  0  0  0  0
 24 26  1  0  0  0  0
M  END
$$$$
default_name
  -OEChem-01062215323D

 29 29  0     1  0  0  0  0  0999 V2000
   -3.6042   -3.5728    1.4576 H   0  0  0  0  0  0  0  0  0  0  0  0
   -3.5202   -2.6488    0.8866 C   0  0  0  0  0  0  0  0  0  0  0  0
   -4.2052   -1.9048    1.2896 H   0  0  0  0  0  0  0  0  0  0  0  0
   -3.7552   -2.8428   -0.1584 H   0  0  0  0  0  0  0  0  0  0  0  0
   -2.1052   -2.1358    0.9946 C   0  0  0  0  0  0  0  0  0  0  0  0
   -1.2852   -2.7288    1.6826 O   0  0  0  0  0  0  0  0  0  0  0  0
   -1.8202   -1.0288    0.3146 N   0  0  0  0  0  0  0  0  0  0  0  0
   -2.5542   -0.5788   -0.2104 H   0  0  0  0  0  0  0  0  0  0  0  0
   -0.5102   -0.3728    0.3086 C   0  0  1  0  0  0  0  0  0  0  0  0
   -0.5739    0.5403    0.9023 H   0  0  0  0  0  0  0  0  0  0  0  0
    0.5233   -1.3028    0.9705 C   0  0  0  0  0  0  0  0  0  0  0  0
    0.5395   -2.2553    0.4379 H   0  0  0  0  0  0  0  0  0  0  0  0
    1.5139   -0.8528    0.8835 H   0  0  0  0  0  0  0  0  0  0  0  0
    0.2470   -1.5727    2.4269 C   0  0  0  0  0  0  0  0  0  0  0  0
    0.4574   -0.6996    3.4725 N   0  0  0  0  0  0  0  0  0  0  0  0
    0.8955    0.2074    3.4114 H   0  0  0  0  0  0  0  0  0  0  0  0
   -0.0186   -1.2698    4.5922 C   0  0  0  0  0  0  0  0  0  0  0  0
    0.0087   -0.8272    5.5804 H   0  0  0  0  0  0  0  0  0  0  0  0
   -0.5411   -2.4732    4.3145 N   0  0  0  0  0  0  0  0  0  0  0  0
   -0.3745   -2.6787    2.9425 C   0  0  0  0  0  0  0  0  0  0  0  0
   -0.7091   -3.5408    2.3802 H   0  0  0  0  0  0  0  0  0  0  0  0
   -0.1036    0.0230   -1.1210 C   0  0  0  0  0  0  0  0  0  0  0  0
    0.5459   -0.7562   -1.8179 O   0  0  0  0  0  0  0  0  0  0  0  0
   -0.4688    1.2371   -1.5513 N   0  0  0  0  0  0  0  0  0  0  0  0
   -0.9528    1.8388   -0.9011 H   0  0  0  0  0  0  0  0  0  0  0  0
   -0.1701    1.7664   -2.8794 C   0  0  0  0  0  0  0  0  0  0  0  0
   -0.6133    1.1221   -3.6420 H   0  0  0  0  0  0  0  0  0  0  0  0
   -0.5751    2.7736   -2.9813 H   0  0  0  0  0  0  0  0  0  0  0  0
    0.9097    1.7951   -3.0330 H   0  0  0  0  0  0  0  0  0  0  0  0
  5  6  2  0  0  0  0
  5  7  1  0  0  0  0
  2  3  1  0  0  0  0
  2  4  1  0  0  0  0
  2  5  1  0  0  0  0
  1  2  1  0  0  0  0
 22 23  2  0  0  0  0
 22 24  1  0  0  0  0
 20 21  1  0  0  0  0
 19 20  1  0  0  0  0
 17 18  1  0  0  0  0
 17 19  2  0  0  0  0
 15 16  1  0  0  0  0
 15 17  1  0  0  0  0
 14 15  1  0  0  0  0
 14 20  2  0  0  0  0
 11 12  1  0  0  0  0
 11 13  1  0  0  0  0
 11 14  1  0  0  0  0
  9 10  1  0  0  0  0
  9 11  1  0  0  0  0
  9 22  1  0  0  0  0
  7  8  1  0  0  0  0
  7  9  1  0  0  0  0
 26 27  1  0  0  0  0
 26 28  1  0  0  0  0
 26 29  1  0  0  0  0
 24 25  1  0  0  0  0
 24 26  1  0  0  0  0
M  END
$$$$
default_name
  -OEChem-01062215323D

 29 29  0     1  0  0  0  0  0999 V2000
   -3.6042   -3.5728    1.4576 H   0  0  0  0  0  0  0  0  0  0  0  0
   -3.5202   -2.6488    0.8866 C   0  0  0  0  0  0  0  0  0  0  0  0
   -4.2052   -1.9048    1.2896 H   0  0  0  0  0  0  0  0  0  0  0  0
   -3.7552   -2.8428   -0.1584 H   0  0  0  0  0  0  0  0  0  0  0  0
   -2.1052   -2.1358    0.9946 C   0  0  0  0  0  0  0  0  0  0  0  0
   -1.2852   -2.7288    1.6826 O   0  0  0  0  0  0  0  0  0  0  0  0
   -1.8202   -1.0288    0.3146 N   0  0  0  0  0  0  0  0  0  0  0  0
   -2.5542   -0.5788   -0.2104 H   0  0  0  0  0  0  0  0  0  0  0  0
   -0.5102   -0.3728    0.3086 C   0  0  1  0  0  0  0  0  0  0  0  0
   -0.5739    0.5403    0.9023 H   0  0  0  0  0  0  0  0  0  0  0  0
    0.5233   -1.3028    0.9705 C   0  0  0  0  0  0  0  0  0  0  0  0
    0.5395   -2.2553    0.4379 H   0  0  0  0  0  0  0  0  0  0  0  0
    1.5139   -0.8528    0.8835 H   0  0  0  0  0  0  0  0  0  0  0  0
    0.2470   -1.5727    2.4269 C   0  0  0  0  0  0  0  0  0  0  0  0
    0.4574   -0.6996    3.4725 N   0  0  0  0  0  0  0  0  0  0  0  0
    0.8955    0.2074    3.4114 H   0  0  0  0  0  0  0  0  0  0  0  0
   -0.0186   -1.2698    4.5922 C   0  0  0  0  0  0  0  0  0  0  0  0
    0.0087   -0.8272    5.5804 H   0  0  0  0  0  0  0  0  0  0  0  0
   -0.5411   -2.4732    4.3145 N   0  0  0  0  0  0  0  0  0  0  0  0
   -0.3745   -2.6787    2.9425 C   0  0  0  0  0  0  0  0  0  0  0  0
   -0.7091   -3.5408    2.3802 H   0  0  0  0  0  0  0  0  0  0  0  0
   -0.1036    0.0230   -1.1210 C   0  0  0  0  0  0  0  0  0  0  0  0
    0.2955   -0.8328   -1.9104 O   0  0  0  0  0  0  0  0  0  0  0  0
   -0.1874    1.3185   -1.4487 N   0  0  0  0  0  0  0  0  0  0  0  0
   -0.4721    1.9665   -0.7290 H   0  0  0  0  0  0  0  0  0  0  0  0
    0.1530    1.8614   -2.7612 C   0  0  0  0  0  0  0  0  0  0  0  0
   -0.4771    1.4016   -3.5259 H   0  0  0  0  0  0  0  0  0  0  0  0
   -0.0004    2.9409   -2.7716 H   0  0  0  0  0  0  0  0  0  0  0  0
    1.1967    1.6437   -2.9933 H   0  0  0  0  0  0  0  0  0  0  0  0
  5  6  2  0  0  0  0
  5  7  1  0  0  0  0
  2  3  1  0  0  0  0
  2  4  1  0  0  0  0
  2  5  1  0  0  0  0
  1  2  1  0  0  0  0
 22 23  2  0  0  0  0
 22 24  1  0  0  0  0
 20 21  1  0  0  0  0
 19 20  1  0  0  0  0
 17 18  1  0  0  0  0
 17 19  2  0  0  0  0
 15 16  1  0  0  0  0
 15 17  1  0  0  0  0
 14 15  1  0  0  0  0
 14 20  2  0  0  0  0
 11 12  1  0  0  0  0
 11 13  1  0  0  0  0
 11 14  1  0  0  0  0
  9 10  1  0  0  0  0
  9 11  1  0  0  0  0
  9 22  1  0  0  0  0
  7  8  1  0  0  0  0
  7  9  1  0  0  0  0
 26 27  1  0  0  0  0
 26 28  1  0  0  0  0
 26 29  1  0  0  0  0
 24 25  1  0  0  0  0
 24 26  1  0  0  0  0
M  END
$$$$
default_name
  -OEChem-01062215323D

 29 29  0     1  0  0  0  0  0999 V2000
   -3.6042   -3.5728    1.4576 H   0  0  0  0  0  0  0  0  0  0  0  0
   -3.5202   -2.6488    0.8866 C   0  0  0  0  0  0  0  0  0  0  0  0
   -4.2052   -1.9048    1.2896 H   0  0  0  0  0  0  0  0  0  0  0  0
   -3.7552   -2.8428   -0.1584 H   0  0  0  0  0  0  0  0  0  0  0  0
   -2.1052   -2.1358    0.9946 C   0  0  0  0  0  0  0  0  0  0  0  0
   -1.2852   -2.7288    1.6826 O   0  0  0  0  0  0  0  0  0  0  0  0
   -1.8202   -1.0288    0.3146 N   0  0  0  0  0  0  0  0  0  0  0  0
   -2.5542   -0.5788   -0.2104 H   0  0  0  0  0  0  0  0  0  0  0  0
   -0.5102   -0.3728    0.3086 C   0  0  1  0  0  0  0  0  0  0  0  0
   -0.5739    0.5403    0.9023 H   0  0  0  0  0  0  0  0  0  0  0  0
    0.5233   -1.3028    0.9705 C   0  0  0  0  0  0  0  0  0  0  0  0
    0.5395   -2.2553    0.4379 H   0  0  0  0  0  0  0  0  0  0  0  0
    1.5139   -0.8528    0.8835 H   0  0  0  0  0  0  0  0  0  0  0  0
    0.2470   -1.5727    2.4269 C   0  0  0  0  0  0  0  0  0  0  0  0
    0.4574   -0.6996    3.4725 N   0  0  0  0  0  0  0  0  0  0  0  0
    0.8955    0.2074    3.4114 H   0  0  0  0  0  0  0  0  0  0  0  0
   -0.0186   -1.2698    4.5922 C   0  0  0  0  0  0  0  0  0  0  0  0
    0.0087   -0.8272    5.5804 H   0  0  0  0  0  0  0  0  0  0  0  0
   -0.5411   -2.4732    4.3145 N   0  0  0  0  0  0  0  0  0  0  0  0
   -0.3745   -2.6787    2.9425 C   0  0  0  0  0  0  0  0  0  0  0  0
   -0.7091   -3.5408    2.3802 H   0  0  0  0  0  0  0  0  0  0  0  0
   -0.1036    0.0230   -1.1210 C   0  0  0  0  0  0  0  0  0  0  0  0
    0.0290   -0.8402   -1.9882 O   0  0  0  0  0  0  0  0  0  0  0  0
    0.1108    1.3223   -1.3628 N   0  0  0  0  0  0  0  0  0  0  0  0
    0.0344    1.9624   -0.5861 H   0  0  0  0  0  0  0  0  0  0  0  0
    0.4959    1.8673   -2.6620 C   0  0  0  0  0  0  0  0  0  0  0  0
   -0.2704    1.6308   -3.4037 H   0  0  0  0  0  0  0  0  0  0  0  0
    0.6089    2.9498   -2.5958 H   0  0  0  0  0  0  0  0  0  0  0  0
    1.4401    1.4257   -2.9844 H   0  0  0  0  0  0  0  0  0  0  0  0
  5  6  2  0  0  0  0
  5  7  1  0  0  0  0
  2  3  1  0  0  0  0
  2  4  1  0  0  0  0
  2  5  1  0  0  0  0
  1  2  1  0  0  0  0
 22 23  2  0  0  0  0
 22 24  1  0  0  0  0
 20 21  1  0  0  0  0
 19 20  1  0  0  0  0
 17 18  1  0  0  0  0
 17 19  2  0  0  0  0
 15 16  1  0  0  0  0
 15 17  1  0  0  0  0
 14 15  1  0  0  0  0
 14 20  2  0  0  0  0
 11 12  1  0  0  0  0
 11 13  1  0  0  0  0
 11 14  1  0  0  0  0
  9 10  1  0  0  0  0
  9 11  1  0  0  0  0
  9 22  1  0  0  0  0
  7  8  1  0  0  0  0
  7  9  1  0  0  0  0
 26 27  1  0  0  0  0
 26 28  1  0  0  0  0
 26 29  1  0  0  0  0
 24 25  1  0  0  0  0
 24 26  1  0  0  0  0
M  END
$$$$
default_name
  -OEChem-01062215323D

 29 29  0     1  0  0  0  0  0999 V2000
   -3.6042   -3.5728    1.4576 H   0  0  0  0  0  0  0  0  0  0  0  0
   -3.5202   -2.6488    0.8866 C   0  0  0  0  0  0  0  0  0  0  0  0
   -4.2052   -1.9048    1.2896 H   0  0  0  0  0  0  0  0  0  0  0  0
   -3.7552   -2.8428   -0.1584 H   0  0  0  0  0  0  0  0  0  0  0  0
   -2.1052   -2.1358    0.9946 C   0  0  0  0  0  0  0  0  0  0  0  0
   -1.2852   -2.7288    1.6826 O   0  0  0  0  0  0  0  0  0  0  0  0
   -1.8202   -1.0288    0.3146 N   0  0  0  0  0  0  0  0  0  0  0  0
   -2.5542   -0.5788   -0.2104 H   0  0  0  0  0  0  0  0  0  0  0  0
   -0.5102   -0.3728    0.3086 C   0  0  1  0  0  0  0  0  0  0  0  0
   -0.5739    0.5403    0.9023 H   0  0  0  0  0  0  0  0  0  0  0  0
    0.5233   -1.3028    0.9705 C   0  0  0  0  0  0  0  0  0  0  0  0
    0.5395   -2.2553    0.4379 H   0  0  0  0  0  0  0  0  0  0  0  0
    1.5139   -0.8528    0.8835 H   0  0  0  0  0  0  0  0  0  0  0  0
    0.2470   -1.5727    2.4269 C   0  0  0  0  0  0  0  0  0  0  0  0
    0.4574   -0.6996    3.4725 N   0  0  0  0  0  0  0  0  0  0  0  0
    0.8955    0.2074    3.4114 H   0  0  0  0  0  0  0  0  0  0  0  0
   -0.0186   -1.2698    4.5922 C   0  0  0  0  0  0  0  0  0  0  0  0
    0.0087   -0.8272    5.5804 H   0  0  0  0  0  0  0  0  0  0  0  0
   -0.5411   -2.4732    4.3145 N   0  0  0  0  0  0  0  0  0  0  0  0
   -0.3745   -2.6787    2.9425 C   0  0  0  0  0  0  0  0  0  0  0  0
   -0.7091   -3.5408    2.3802 H   0  0  0  0  0  0  0  0  0  0  0  0
   -0.1036    0.0230   -1.1210 C   0  0  0  0  0  0  0  0  0  0  0  0
   -0.2353   -0.7779   -2.0462 O   0  0  0  0  0  0  0  0  0  0  0  0
    0.4055    1.2484   -1.2995 N   0  0  0  0  0  0  0  0  0  0  0  0
    0.5322    1.8269   -0.4820 H   0  0  0  0  0  0  0  0  0  0  0  0
    0.8351    1.7838   -2.5887 C   0  0  0  0  0  0  0  0  0  0  0  0
   -0.0076    1.7942   -3.2837 H   0  0  0  0  0  0  0  0  0  0  0  0
    1.2113    2.7998   -2.4660 H   0  0  0  0  0  0  0  0  0  0  0  0
    1.6233    1.1559   -3.0070 H   0  0  0  0  0  0  0  0  0  0  0  0
  5  6  2  0  0  0  0
  5  7  1  0  0  0  0
  2  3  1  0  0  0  0
  2  4  1  0  0  0  0
  2  5  1  0  0  0  0
  1  2  1  0  0  0  0
 22 23  2  0  0  0  0
 22 24  1  0  0  0  0
 20 21  1  0  0  0  0
 19 20  1  0  0  0  0
 17 18  1  0  0  0  0
 17 19  2  0  0  0  0
 15 16  1  0  0  0  0
 15 17  1  0  0  0  0
 14 15  1  0  0  0  0
 14 20  2  0  0  0  0
 11 12  1  0  0  0  0
 11 13  1  0  0  0  0
 11 14  1  0  0  0  0
  9 10  1  0  0  0  0
  9 11  1  0  0  0  0
  9 22  1  0  0  0  0
  7  8  1  0  0  0  0
  7  9  1  0  0  0  0
 26 27  1  0  0  0  0
 26 28  1  0  0  0  0
 26 29  1  0  0  0  0
 24 25  1  0  0  0  0
 24 26  1  0  0  0  0
M  END
$$$$
default_name
  -OEChem-01062215323D

 29 29  0     1  0  0  0  0  0999 V2000
   -3.6042   -3.5728    1.4576 H   0  0  0  0  0  0  0  0  0  0  0  0
   -3.5202   -2.6488    0.8866 C   0  0  0  0  0  0  0  0  0  0  0  0
   -4.2052   -1.9048    1.2896 H   0  0  0  0  0  0  0  0  0  0  0  0
   -3.7552   -2.8428   -0.1584 H   0  0  0  0  0  0  0  0  0  0  0  0
   -2.1052   -2.1358    0.9946 C   0  0  0  0  0  0  0  0  0  0  0  0
   -1.2852   -2.7288    1.6826 O   0  0  0  0  0  0  0  0  0  0  0  0
   -1.8202   -1.0288    0.3146 N   0  0  0  0  0  0  0  0  0  0  0  0
   -2.5542   -0.5788   -0.2104 H   0  0  0  0  0  0  0  0  0  0  0  0
   -0.5102   -0.3728    0.3086 C   0  0  1  0  0  0  0  0  0  0  0  0
   -0.5739    0.5403    0.9023 H   0  0  0  0  0  0  0  0  0  0  0  0
    0.5233   -1.3028    0.9705 C   0  0  0  0  0  0  0  0  0  0  0  0
    0.5395   -2.2553    0.4379 H   0  0  0  0  0  0  0  0  0  0  0  0
    1.5139   -0.8528    0.8835 H   0  0  0  0  0  0  0  0  0  0  0  0
    0.2470   -1.5727    2.4269 C   0  0  0  0  0  0  0  0  0  0  0  0
    0.4574   -0.6996    3.4725 N   0  0  0  0  0  0  0  0  0  0  0  0
    0.8955    0.2074    3.4114 H   0  0  0  0  0  0  0  0  0  0  0  0
   -0.0186   -1.2698    4.5922 C   0  0  0  0  0  0  0  0  0  0  0  0
    0.0087   -0.8272    5.5804 H   0  0  0  0  0  0  0  0  0  0  0  0
   -0.5411   -2.4732    4.3145 N   0  0  0  0  0  0  0  0  0  0  0  0
   -0.3745   -2.6787    2.9425 C   0  0  0  0  0  0  0  0  0  0  0  0
   -0.7091   -3.5408    2.3802 H   0  0  0  0  0  0  0  0  0  0  0  0
   -0.1036    0.0230   -1.1210 C   0  0  0  0  0  0  0  0  0  0  0  0
   -0.4796   -0.6502   -2.0803 O   0  0  0  0  0  0  0  0  0  0  0  0
    0.6766    1.1018   -1.2630 N   0  0  0  0  0  0  0  0  0  0  0  0
    0.9874    1.5691   -0.4239 H   0  0  0  0  0  0  0  0  0  0  0  0
    1.1475    1.6165   -2.5461 C   0  0  0  0  0  0  0  0  0  0  0  0
    0.2936    1.8805   -3.1741 H   0  0  0  0  0  0  0  0  0  0  0  0
    1.7658    2.5012   -2.3910 H   0  0  0  0  0  0  0  0  0  0  0  0
    1.7339    0.8529   -3.0594 H   0  0  0  0  0  0  0  0  0  0  0  0
  5  6  2  0  0  0  0
  5  7  1  0  0  0  0
  2  3  1  0  0  0  0
  2  4  1  0  0  0  0
  2  5  1  0  0  0  0
  1  2  1  0  0  0  0
 22 23  2  0  0  0  0
 22 24  1  0  0  0  0
 20 21  1  0  0  0  0
 19 20  1  0  0  0  0
 17 18  1  0  0  0  0
 17 19  2  0  0  0  0
 15 16  1  0  0  0  0
 15 17  1  0  0  0  0
 14 15  1  0  0  0  0
 14 20  2  0  0  0  0
 11 12  1  0  0  0  0
 11 13  1  0  0  0  0
 11 14  1  0  0  0  0
  9 10  1  0  0  0  0
  9 11  1  0  0  0  0
  9 22  1  0  0  0  0
  7  8  1  0  0  0  0
  7  9  1  0  0  0  0
 26 27  1  0  0  0  0
 26 28  1  0  0  0  0
 26 29  1  0  0  0  0
 24 25  1  0  0  0  0
 24 26  1  0  0  0  0
M  END
$$$$
default_name
  -OEChem-01062215323D

 29 29  0     1  0  0  0  0  0999 V2000
   -3.6042   -3.5728    1.4576 H   0  0  0  0  0  0  0  0  0  0  0  0
   -3.5202   -2.6488    0.8866 C   0  0  0  0  0  0  0  0  0  0  0  0
   -4.2052   -1.9048    1.2896 H   0  0  0  0  0  0  0  0  0  0  0  0
   -3.7552   -2.8428   -0.1584 H   0  0  0  0  0  0  0  0  0  0  0  0
   -2.1052   -2.1358    0.9946 C   0  0  0  0  0  0  0  0  0  0  0  0
   -1.2852   -2.7288    1.6826 O   0  0  0  0  0  0  0  0  0  0  0  0
   -1.8202   -1.0288    0.3146 N   0  0  0  0  0  0  0  0  0  0  0  0
   -2.5542   -0.5788   -0.2104 H   0  0  0  0  0  0  0  0  0  0  0  0
   -0.5102   -0.3728    0.3086 C   0  0  1  0  0  0  0  0  0  0  0  0
   -0.5739    0.5403    0.9023 H   0  0  0  0  0  0  0  0  0  0  0  0
    0.5233   -1.3028    0.9705 C   0  0  0  0  0  0  0  0  0  0  0  0
    0.5395   -2.2553    0.4379 H   0  0  0  0  0  0  0  0  0  0  0  0
    1.5139   -0.8528    0.8835 H   0  0  0  0  0  0  0  0  0  0  0  0
    0.2470   -1.5727    2.4269 C   0  0  0  0  0  0  0  0  0  0  0  0
    0.4574   -0.6996    3.4725 N   0  0  0  0  0  0  0  0  0  0  0  0
    0.8955    0.2074    3.4114 H   0  0  0  0  0  0  0  0  0  0  0  0
   -0.0186   -1.2698    4.5922 C   0  0  0  0  0  0  0  0  0  0  0  0
    0.0087   -0.8272    5.5804 H   0  0  0  0  0  0  0  0  0  0  0  0
   -0.5411   -2.4732    4.3145 N   0  0  0  0  0  0  0  0  0  0  0  0
   -0.3745   -2.6787    2.9425 C   0  0  0  0  0  0  0  0  0  0  0  0
   -0.7091   -3.5408    2.3802 H   0  0  0  0  0  0  0  0  0  0  0  0
   -0.1036    0.0230   -1.1210 C   0  0  0  0  0  0  0  0  0  0  0  0
   -0.6870   -0.4658   -2.0882 O   0  0  0  0  0  0  0  0  0  0  0  0
    0.9056    0.8924   -1.2558 N   0  0  0  0  0  0  0  0  0  0  0  0
    1.3689    1.2066   -0.4158 H   0  0  0  0  0  0  0  0  0  0  0  0
    1.4119    1.3769   -2.5373 C   0  0  0  0  0  0  0  0  0  0  0  0
    0.6126    1.8840   -3.0824 H   0  0  0  0  0  0  0  0  0  0  0  0
    2.2345    2.0742   -2.3759 H   0  0  0  0  0  0  0  0  0  0  0  0
    1.7644    0.5371   -3.1382 H   0  0  0  0  0  0  0  0  0  0  0  0
  5  6  2  0  0  0  0
  5  7  1  0  0  0  0
  2  3  1  0  0  0  0
  2  4  1  0  0  0  0
  2  5  1  0  0  0  0
  1  2  1  0  0  0  0
 22 23  2  0  0  0  0
 22 24  1  0  0  0  0
 20 21  1  0  0  0  0
 19 20  1  0  0  0  0
 17 18  1  0  0  0  0
 17 19  2  0  0  0  0
 15 16  1  0  0  0  0
 15 17  1  0  0  0  0
 14 15  1  0  0  0  0
 14 20  2  0  0  0  0
 11 12  1  0  0  0  0
 11 13  1  0  0  0  0
 11 14  1  0  0  0  0
  9 10  1  0  0  0  0
  9 11  1  0  0  0  0
  9 22  1  0  0  0  0
  7  8  1  0  0  0  0
  7  9  1  0  0  0  0
 26 27  1  0  0  0  0
 26 28  1  0  0  0  0
 26 29  1  0  0  0  0
 24 25  1  0  0  0  0
 24 26  1  0  0  0  0
M  END
$$$$
default_name
  -OEChem-01062215323D

 29 29  0     1  0  0  0  0  0999 V2000
   -3.6042   -3.5728    1.4576 H   0  0  0  0  0  0  0  0  0  0  0  0
   -3.5202   -2.6488    0.8866 C   0  0  0  0  0  0  0  0  0  0  0  0
   -4.2052   -1.9048    1.2896 H   0  0  0  0  0  0  0  0  0  0  0  0
   -3.7552   -2.8428   -0.1584 H   0  0  0  0  0  0  0  0  0  0  0  0
   -2.1052   -2.1358    0.9946 C   0  0  0  0  0  0  0  0  0  0  0  0
   -1.2852   -2.7288    1.6826 O   0  0  0  0  0  0  0  0  0  0  0  0
   -1.8202   -1.0288    0.3146 N   0  0  0  0  0  0  0  0  0  0  0  0
   -2.5542   -0.5788   -0.2104 H   0  0  0  0  0  0  0  0  0  0  0  0
   -0.5102   -0.3728    0.3086 C   0  0  1  0  0  0  0  0  0  0  0  0
   -0.4913    0.3772    1.1007 H   0  0  0  0  0  0  0  0  0  0  0  0
    0.5791   -1.4177    0.6128 C   0  0  0  0  0  0  0  0  0  0  0  0
    0.5197   -2.2208   -0.1239 H   0  0  0  0  0  0  0  0  0  0  0  0
    1.5596   -0.9473    0.5181 H   0  0  0  0  0  0  0  0  0  0  0  0
    0.4694   -2.0208    1.9892 C   0  0  0  0  0  0  0  0  0  0  0  0
    0.8123   -1.4109    3.1769 N   0  0  0  0  0  0  0  0  0  0  0  0
    1.2536   -0.5090    3.2768 H   0  0  0  0  0  0  0  0  0  0  0  0
    0.4607   -2.2307    4.1817 C   0  0  0  0  0  0  0  0  0  0  0  0
    0.6088   -2.0286    5.2355 H   0  0  0  0  0  0  0  0  0  0  0  0
   -0.1080   -3.3437    3.6957 N   0  0  0  0  0  0  0  0  0  0  0  0
   -0.1044   -3.2238    2.3035 C   0  0  0  0  0  0  0  0  0  0  0  0
   -0.5146   -3.9365    1.5997 H   0  0  0  0  0  0  0  0  0  0  0  0
   -0.2661    0.3483   -1.0279 C   0  0  0  0  0  0  0  0  0  0  0  0
   -1.1146    0.3054   -1.9184 O   0  0  0  0  0  0  0  0  0  0  0  0
    0.8972    0.9946   -1.1754 N   0  0  0  0  0  0  0  0  0  0  0  0
    1.5640    0.9378   -0.4197 H   0  0  0  0  0  0  0  0  0  0  0  0
    1.2847    1.7329   -2.3745 C   0  0  0  0  0  0  0  0  0  0  0  0
    0.5652    2.5324   -2.5647 H   0  0  0  0  0  0  0  0  0  0  0  0
    2.2765    2.1666   -2.2435 H   0  0  0  0  0  0  0  0  0  0  0  0
    1.2957    1.0627   -3.2355 H   0  0  0  0  0  0  0  0  0  0  0  0
  5  6  2  0  0  0  0
  5  7  1  0  0  0  0
  2  3  1  0  0  0  0
  2  4  1  0  0  0  0
  2  5  1  0  0  0  0
  1  2  1  0  0  0  0
 22 23  2  0  0  0  0
 22 24  1  0  0  0  0
 20 21  1  0  0  0  0
 19 20  1  0  0  0  0
 17 18  1  0  0  0  0
 17 19  2  0  0  0  0
 15 16  1  0  0  0  0
 15 17  1  0  0  0  0
 14 15  1  0  0  0  0
 14 20  2  0  0  0  0
 11 12  1  0  0  0  0
 11 13  1  0  0  0  0
 11 14  1  0  0  0  0
  9 10  1  0  0  0  0
  9 11  1  0  0  0  0
  9 22  1  0  0  0  0
  7  8  1  0  0  0  0
  7  9  1  0  0  0  0
 26 27  1  0  0  0  0
 26 28  1  0  0  0  0
 26 29  1  0  0  0  0
 24 25  1  0  0  0  0
 24 26  1  0  0  0  0
M  END
$$$$
default_name
  -OEChem-01062215323D

 29 29  0     1  0  0  0  0  0999 V2000
   -3.6042   -3.5728    1.4576 H   0  0  0  0  0  0  0  0  0  0  0  0
   -3.5202   -2.6488    0.8866 C   0  0  0  0  0  0  0  0  0  0  0  0
   -4.2052   -1.9048    1.2896 H   0  0  0  0  0  0  0  0  0  0  0  0
   -3.7552   -2.8428   -0.1584 H   0  0  0  0  0  0  0  0  0  0  0  0
   -2.1052   -2.1358    0.9946 C   0  0  0  0  0  0  0  0  0  0  0  0
   -1.2852   -2.7288    1.6826 O   0  0  0  0  0  0  0  0  0  0  0  0
   -1.8202   -1.0288    0.3146 N   0  0  0  0  0  0  0  0  0  0  0  0
   -2.5542   -0.5788   -0.2104 H   0  0  0  0  0  0  0  0  0  0  0  0
   -0.5102   -0.3728    0.3086 C   0  0  1  0  0  0  0  0  0  0  0  0
   -0.4913    0.3772    1.1007 H   0  0  0  0  0  0  0  0  0  0  0  0
    0.5791   -1.4177    0.6128 C   0  0  0  0  0  0  0  0  0  0  0  0
    0.5197   -2.2208   -0.1239 H   0  0  0  0  0  0  0  0  0  0  0  0
    1.5596   -0.9473    0.5181 H   0  0  0  0  0  0  0  0  0  0  0  0
    0.4694   -2.0208    1.9892 C   0  0  0  0  0  0  0  0  0  0  0  0
    0.8123   -1.4109    3.1769 N   0  0  0  0  0  0  0  0  0  0  0  0
    1.2536   -0.5090    3.2768 H   0  0  0  0  0  0  0  0  0  0  0  0
    0.4607   -2.2307    4.1817 C   0  0  0  0  0  0  0  0  0  0  0  0
    0.6088   -2.0286    5.2355 H   0  0  0  0  0  0  0  0  0  0  0  0
   -0.1080   -3.3437    3.6957 N   0  0  0  0  0  0  0  0  0  0  0  0
   -0.1044   -3.2238    2.3035 C   0  0  0  0  0  0  0  0  0  0  0  0
   -0.5146   -3.9365    1.5997 H   0  0  0  0  0  0  0  0  0  0  0  0
   -0.2661    0.3483   -1.0279 C   0  0  0  0  0  0  0  0  0  0  0  0
   -1.2001    0.5442   -1.8052 O   0  0  0  0  0  0  0  0  0  0  0  0
    0.9883    0.7268   -1.3032 N   0  0  0  0  0  0  0  0  0  0  0  0
    1.7082    0.4818   -0.6394 H   0  0  0  0  0  0  0  0  0  0  0  0
    1.3910    1.4253   -2.5211 C   0  0  0  0  0  0  0  0  0  0  0  0
    0.8550    2.3740   -2.5973 H   0  0  0  0  0  0  0  0  0  0  0  0
    2.4638    1.6197   -2.5043 H   0  0  0  0  0  0  0  0  0  0  0  0
    1.1488    0.8177   -3.3944 H   0  0  0  0  0  0  0  0  0  0  0  0
  5  6  2  0  0  0  0
  5  7  1  0  0  0  0
  2  3  1  0  0  0  0
  2  4  1  0  0  0  0
  2  5  1  0  0  0  0
  1  2  1  0  0  0  0
 22 23  2  0  0  0  0
 22 24  1  0  0  0  0
 20 21  1  0  0  0  0
 19 20  1  0  0  0  0
 17 18  1  0  0  0  0
 17 19  2  0  0  0  0
 15 16  1  0  0  0  0
 15 17  1  0  0  0  0
 14 15  1  0  0  0  0
 14 20  2  0  0  0  0
 11 12  1  0  0  0  0
 11 13  1  0  0  0  0
 11 14  1  0  0  0  0
  9 10  1  0  0  0  0
  9 11  1  0  0  0  0
  9 22  1  0  0  0  0
  7  8  1  0  0  0  0
  7  9  1  0  0  0  0
 26 27  1  0  0  0  0
 26 28  1  0  0  0  0
 26 29  1  0  0  0  0
 24 25  1  0  0  0  0
 24 26  1  0  0  0  0
M  END
$$$$
default_name
  -OEChem-01062215323D

 29 29  0     1  0  0  0  0  0999 V2000
   -3.6042   -3.5728    1.4576 H   0  0  0  0  0  0  0  0  0  0  0  0
   -3.5202   -2.6488    0.8866 C   0  0  0  0  0  0  0  0  0  0  0  0
   -4.2052   -1.9048    1.2896 H   0  0  0  0  0  0  0  0  0  0  0  0
   -3.7552   -2.8428   -0.1584 H   0  0  0  0  0  0  0  0  0  0  0  0
   -2.1052   -2.1358    0.9946 C   0  0  0  0  0  0  0  0  0  0  0  0
   -1.2852   -2.7288    1.6826 O   0  0  0  0  0  0  0  0  0  0  0  0
   -1.8202   -1.0288    0.3146 N   0  0  0  0  0  0  0  0  0  0  0  0
   -2.5542   -0.5788   -0.2104 H   0  0  0  0  0  0  0  0  0  0  0  0
   -0.5102   -0.3728    0.3086 C   0  0  1  0  0  0  0  0  0  0  0  0
   -0.4913    0.3772    1.1007 H   0  0  0  0  0  0  0  0  0  0  0  0
    0.5791   -1.4177    0.6128 C   0  0  0  0  0  0  0  0  0  0  0  0
    0.5197   -2.2208   -0.1239 H   0  0  0  0  0  0  0  0  0  0  0  0
    1.5596   -0.9473    0.5181 H   0  0  0  0  0  0  0  0  0  0  0  0
    0.4694   -2.0208    1.9892 C   0  0  0  0  0  0  0  0  0  0  0  0
    0.8123   -1.4109    3.1769 N   0  0  0  0  0  0  0  0  0  0  0  0
    1.2536   -0.5090    3.2768 H   0  0  0  0  0  0  0  0  0  0  0  0
    0.4607   -2.2307    4.1817 C   0  0  0  0  0  0  0  0  0  0  0  0
    0.6088   -2.0286    5.2355 H   0  0  0  0  0  0  0  0  0  0  0  0
   -0.1080   -3.3437    3.6957 N   0  0  0  0  0  0  0  0  0  0  0  0
   -0.1044   -3.2238    2.3035 C   0  0  0  0  0  0  0  0  0  0  0  0
   -0.5146   -3.9365    1.5997 H   0  0  0  0  0  0  0  0  0  0  0  0
   -0.2661    0.3483   -1.0279 C   0  0  0  0  0  0  0  0  0  0  0  0
   -1.2151    0.7893   -1.6757 O   0  0  0  0  0  0  0  0  0  0  0  0
    1.0006    0.4530   -1.4487 N   0  0  0  0  0  0  0  0  0  0  0  0
    1.7183    0.0179   -0.8878 H   0  0  0  0  0  0  0  0  0  0  0  0
    1.4068    1.1102   -2.6881 C   0  0  0  0  0  0  0  0  0  0  0  0
    1.0955    2.1571   -2.6703 H   0  0  0  0  0  0  0  0  0  0  0  0
    2.4901    1.0601   -2.8014 H   0  0  0  0  0  0  0  0  0  0  0  0
    0.9325    0.6207   -3.5402 H   0  0  0  0  0  0  0  0  0  0  0  0
  5  6  2  0  0  0  0
  5  7  1  0  0  0  0
  2  3  1  0  0  0  0
  2  4  1  0  0  0  0
  2  5  1  0  0  0  0
  1  2  1  0  0  0  0
 22 23  2  0  0  0  0
 22 24  1  0  0  0  0
 20 21  1  0  0  0  0
 19 20  1  0  0  0  0
 17 18  1  0  0  0  0
 17 19  2  0  0  0  0
 15 16  1  0  0  0  0
 15 17  1  0  0  0  0
 14 15  1  0  0  0  0
 14 20  2  0  0  0  0
 11 12  1  0  0  0  0
 11 13  1  0  0  0  0
 11 14  1  0  0  0  0
  9 10  1  0  0  0  0
  9 11  1  0  0  0  0
  9 22  1  0  0  0  0
  7  8  1  0  0  0  0
  7  9  1  0  0  0  0
 26 27  1  0  0  0  0
 26 28  1  0  0  0  0
 26 29  1  0  0  0  0
 24 25  1  0  0  0  0
 24 26  1  0  0  0  0
M  END
$$$$
default_name
  -OEChem-01062215323D

 29 29  0     1  0  0  0  0  0999 V2000
   -3.6042   -3.5728    1.4576 H   0  0  0  0  0  0  0  0  0  0  0  0
   -3.5202   -2.6488    0.8866 C   0  0  0  0  0  0  0  0  0  0  0  0
   -4.2052   -1.9048    1.2896 H   0  0  0  0  0  0  0  0  0  0  0  0
   -3.7552   -2.8428   -0.1584 H   0  0  0  0  0  0  0  0  0  0  0  0
   -2.1052   -2.1358    0.9946 C   0  0  0  0  0  0  0  0  0  0  0  0
   -1.2852   -2.7288    1.6826 O   0  0  0  0  0  0  0  0  0  0  0  0
   -1.8202   -1.0288    0.3146 N   0  0  0  0  0  0  0  0  0  0  0  0
   -2.5542   -0.5788   -0.2104 H   0  0  0  0  0  0  0  0  0  0  0  0
   -0.5102   -0.3728    0.3086 C   0  0  1  0  0  0  0  0  0  0  0  0
   -0.4913    0.3772    1.1007 H   0  0  0  0  0  0  0  0  0  0  0  0
    0.5791   -1.4177    0.6128 C   0  0  0  0  0  0  0  0  0  0  0  0
    0.5197   -2.2208   -0.1239 H   0  0  0  0  0  0  0  0  0  0  0  0
    1.5596   -0.9473    0.5181 H   0  0  0  0  0  0  0  0  0  0  0  0
    0.4694   -2.0208    1.9892 C   0  0  0  0  0  0  0  0  0  0  0  0
    0.8123   -1.4109    3.1769 N   0  0  0  0  0  0  0  0  0  0  0  0
    1.2536   -0.5090    3.2768 H   0  0  0  0  0  0  0  0  0  0  0  0
    0.4607   -2.2307    4.1817 C   0  0  0  0  0  0  0  0  0  0  0  0
    0.6088   -2.0286    5.2355 H   0  0  0  0  0  0  0  0  0  0  0  0
   -0.1080   -3.3437    3.6957 N   0  0  0  0  0  0  0  0  0  0  0  0
   -0.1044   -3.2238    2.3035 C   0  0  0  0  0  0  0  0  0  0  0  0
   -0.5146   -3.9365    1.5997 H   0  0  0  0  0  0  0  0  0  0  0  0
   -0.2661    0.3483   -1.0279 C   0  0  0  0  0  0  0  0  0  0  0  0
   -1.1589    1.0243   -1.5386 O   0  0  0  0  0  0  0  0  0  0  0  0
    0.9333    0.1917   -1.6020 N   0  0  0  0  0  0  0  0  0  0  0  0
    1.5935   -0.4223   -1.1481 H   0  0  0  0  0  0  0  0  0  0  0  0
    1.3309    0.8092   -2.8644 C   0  0  0  0  0  0  0  0  0  0  0  0
    1.2700    1.8965   -2.7790 H   0  0  0  0  0  0  0  0  0  0  0  0
    2.3536    0.5258   -3.1147 H   0  0  0  0  0  0  0  0  0  0  0  0
    0.6617    0.4851   -3.6629 H   0  0  0  0  0  0  0  0  0  0  0  0
  5  6  2  0  0  0  0
  5  7  1  0  0  0  0
  2  3  1  0  0  0  0
  2  4  1  0  0  0  0
  2  5  1  0  0  0  0
  1  2  1  0  0  0  0
 22 23  2  0  0  0  0
 22 24  1  0  0  0  0
 20 21  1  0  0  0  0
 19 20  1  0  0  0  0
 17 18  1  0  0  0  0
 17 19  2  0  0  0  0
 15 16  1  0  0  0  0
 15 17  1  0  0  0  0
 14 15  1  0  0  0  0
 14 20  2  0  0  0  0
 11 12  1  0  0  0  0
 11 13  1  0  0  0  0
 11 14  1  0  0  0  0
  9 10  1  0  0  0  0
  9 11  1  0  0  0  0
  9 22  1  0  0  0  0
  7  8  1  0  0  0  0
  7  9  1  0  0  0  0
 26 27  1  0  0  0  0
 26 28  1  0  0  0  0
 26 29  1  0  0  0  0
 24 25  1  0  0  0  0
 24 26  1  0  0  0  0
M  END
$$$$
default_name
  -OEChem-01062215323D

 29 29  0     1  0  0  0  0  0999 V2000
   -3.6042   -3.5728    1.4576 H   0  0  0  0  0  0  0  0  0  0  0  0
   -3.5202   -2.6488    0.8866 C   0  0  0  0  0  0  0  0  0  0  0  0
   -4.2052   -1.9048    1.2896 H   0  0  0  0  0  0  0  0  0  0  0  0
   -3.7552   -2.8428   -0.1584 H   0  0  0  0  0  0  0  0  0  0  0  0
   -2.1052   -2.1358    0.9946 C   0  0  0  0  0  0  0  0  0  0  0  0
   -1.2852   -2.7288    1.6826 O   0  0  0  0  0  0  0  0  0  0  0  0
   -1.8202   -1.0288    0.3146 N   0  0  0  0  0  0  0  0  0  0  0  0
   -2.5542   -0.5788   -0.2104 H   0  0  0  0  0  0  0  0  0  0  0  0
   -0.5102   -0.3728    0.3086 C   0  0  1  0  0  0  0  0  0  0  0  0
   -0.4913    0.3772    1.1007 H   0  0  0  0  0  0  0  0  0  0  0  0
    0.5791   -1.4177    0.6128 C   0  0  0  0  0  0  0  0  0  0  0  0
    0.5197   -2.2208   -0.1239 H   0  0  0  0  0  0  0  0  0  0  0  0
    1.5596   -0.9473    0.5181 H   0  0  0  0  0  0  0  0  0  0  0  0
    0.4694   -2.0208    1.9892 C   0  0  0  0  0  0  0  0  0  0  0  0
    0.8123   -1.4109    3.1769 N   0  0  0  0  0  0  0  0  0  0  0  0
    1.2536   -0.5090    3.2768 H   0  0  0  0  0  0  0  0  0  0  0  0
    0.4607   -2.2307    4.1817 C   0  0  0  0  0  0  0  0  0  0  0  0
    0.6088   -2.0286    5.2355 H   0  0  0  0  0  0  0  0  0  0  0  0
   -0.1080   -3.3437    3.6957 N   0  0  0  0  0  0  0  0  0  0  0  0
   -0.1044   -3.2238    2.3035 C   0  0  0  0  0  0  0  0  0  0  0  0
   -0.5146   -3.9365    1.5997 H   0  0  0  0  0  0  0  0  0  0  0  0
   -0.2661    0.3483   -1.0279 C   0  0  0  0  0  0  0  0  0  0  0  0
   -1.0350    1.2329   -1.4035 O   0  0  0  0  0  0  0  0  0  0  0  0
    0.7908   -0.0393   -1.7526 N   0  0  0  0  0  0  0  0  0  0  0  0
    1.3425   -0.8087   -1.4024 H   0  0  0  0  0  0  0  0  0  0  0  0
    1.1684    0.5428   -3.0378 C   0  0  0  0  0  0  0  0  0  0  0  0
    1.3669    1.6101   -2.9159 H   0  0  0  0  0  0  0  0  0  0  0  0
    2.0635    0.0532   -3.4226 H   0  0  0  0  0  0  0  0  0  0  0  0
    0.3546    0.4200   -3.7541 H   0  0  0  0  0  0  0  0  0  0  0  0
  5  6  2  0  0  0  0
  5  7  1  0  0  0  0
  2  3  1  0  0  0  0
  2  4  1  0  0  0  0
  2  5  1  0  0  0  0
  1  2  1  0  0  0  0
 22 23  2  0  0  0  0
 22 24  1  0  0  0  0
 20 21  1  0  0  0  0
 19 20  1  0  0  0  0
 17 18  1  0  0  0  0
 17 19  2  0  0  0  0
 15 16  1  0  0  0  0
 15 17  1  0  0  0  0
 14 15  1  0  0  0  0
 14 20  2  0  0  0  0
 11 12  1  0  0  0  0
 11 13  1  0  0  0  0
 11 14  1  0  0  0  0
  9 10  1  0  0  0  0
  9 11  1  0  0  0  0
  9 22  1  0  0  0  0
  7  8  1  0  0  0  0
  7  9  1  0  0  0  0
 26 27  1  0  0  0  0
 26 28  1  0  0  0  0
 26 29  1  0  0  0  0
 24 25  1  0  0  0  0
 24 26  1  0  0  0  0
M  END
$$$$
default_name
  -OEChem-01062215323D

 29 29  0     1  0  0  0  0  0999 V2000
   -3.6042   -3.5728    1.4576 H   0  0  0  0  0  0  0  0  0  0  0  0
   -3.5202   -2.6488    0.8866 C   0  0  0  0  0  0  0  0  0  0  0  0
   -4.2052   -1.9048    1.2896 H   0  0  0  0  0  0  0  0  0  0  0  0
   -3.7552   -2.8428   -0.1584 H   0  0  0  0  0  0  0  0  0  0  0  0
   -2.1052   -2.1358    0.9946 C   0  0  0  0  0  0  0  0  0  0  0  0
   -1.2852   -2.7288    1.6826 O   0  0  0  0  0  0  0  0  0  0  0  0
   -1.8202   -1.0288    0.3146 N   0  0  0  0  0  0  0  0  0  0  0  0
   -2.5542   -0.5788   -0.2104 H   0  0  0  0  0  0  0  0  0  0  0  0
   -0.5102   -0.3728    0.3086 C   0  0  1  0  0  0  0  0  0  0  0  0
   -0.4913    0.3772    1.1007 H   0  0  0  0  0  0  0  0  0  0  0  0
    0.5791   -1.4177    0.6128 C   0  0  0  0  0  0  0  0  0  0  0  0
    0.5197   -2.2208   -0.1239 H   0  0  0  0  0  0  0  0  0  0  0  0
    1.5596   -0.9473    0.5181 H   0  0  0  0  0  0  0  0  0  0  0  0
    0.4694   -2.0208    1.9892 C   0  0  0  0  0  0  0  0  0  0  0  0
    0.8123   -1.4109    3.1769 N   0  0  0  0  0  0  0  0  0  0  0  0
    1.2536   -0.5090    3.2768 H   0  0  0  0  0  0  0  0  0  0  0  0
    0.4607   -2.2307    4.1817 C   0  0  0  0  0  0  0  0  0  0  0  0
    0.6088   -2.0286    5.2355 H   0  0  0  0  0  0  0  0  0  0  0  0
   -0.1080   -3.3437    3.6957 N   0  0  0  0  0  0  0  0  0  0  0  0
   -0.1044   -3.2238    2.3035 C   0  0  0  0  0  0  0  0  0  0  0  0
   -0.5146   -3.9365    1.5997 H   0  0  0  0  0  0  0  0  0  0  0  0
   -0.2661    0.3483   -1.0279 C   0  0  0  0  0  0  0  0  0  0  0  0
   -0.8521    1.4010   -1.2793 O   0  0  0  0  0  0  0  0  0  0  0  0
    0.5831   -0.2242   -1.8903 N   0  0  0  0  0  0  0  0  0  0  0  0
    0.9823   -1.1150   -1.6335 H   0  0  0  0  0  0  0  0  0  0  0  0
    0.9306    0.3292   -3.1965 C   0  0  0  0  0  0  0  0  0  0  0  0
    1.3794    1.3172   -3.0716 H   0  0  0  0  0  0  0  0  0  0  0  0
    1.6398   -0.3253   -3.7042 H   0  0  0  0  0  0  0  0  0  0  0  0
    0.0323    0.4299   -3.8077 H   0  0  0  0  0  0  0  0  0  0  0  0
  5  6  2  0  0  0  0
  5  7  1  0  0  0  0
  2  3  1  0  0  0  0
  2  4  1  0  0  0  0
  2  5  1  0  0  0  0
  1  2  1  0  0  0  0
 22 23  2  0  0  0  0
 22 24  1  0  0  0  0
 20 21  1  0  0  0  0
 19 20  1  0  0  0  0
 17 18  1  0  0  0  0
 17 19  2  0  0  0  0
 15 16  1  0  0  0  0
 15 17  1  0  0  0  0
 14 15  1  0  0  0  0
 14 20  2  0  0  0  0
 11 12  1  0  0  0  0
 11 13  1  0  0  0  0
 11 14  1  0  0  0  0
  9 10  1  0  0  0  0
  9 11  1  0  0  0  0
  9 22  1  0  0  0  0
  7  8  1  0  0  0  0
  7  9  1  0  0  0  0
 26 27  1  0  0  0  0
 26 28  1  0  0  0  0
 26 29  1  0  0  0  0
 24 25  1  0  0  0  0
 24 26  1  0  0  0  0
M  END
$$$$
default_name
  -OEChem-01062215323D

 29 29  0     1  0  0  0  0  0999 V2000
   -3.6042   -3.5728    1.4576 H   0  0  0  0  0  0  0  0  0  0  0  0
   -3.5202   -2.6488    0.8866 C   0  0  0  0  0  0  0  0  0  0  0  0
   -4.2052   -1.9048    1.2896 H   0  0  0  0  0  0  0  0  0  0  0  0
   -3.7552   -2.8428   -0.1584 H   0  0  0  0  0  0  0  0  0  0  0  0
   -2.1052   -2.1358    0.9946 C   0  0  0  0  0  0  0  0  0  0  0  0
   -1.2852   -2.7288    1.6826 O   0  0  0  0  0  0  0  0  0  0  0  0
   -1.8202   -1.0288    0.3146 N   0  0  0  0  0  0  0  0  0  0  0  0
   -2.5542   -0.5788   -0.2104 H   0  0  0  0  0  0  0  0  0  0  0  0
   -0.5102   -0.3728    0.3086 C   0  0  1  0  0  0  0  0  0  0  0  0
   -0.4913    0.3772    1.1007 H   0  0  0  0  0  0  0  0  0  0  0  0
    0.5791   -1.4177    0.6128 C   0  0  0  0  0  0  0  0  0  0  0  0
    0.5197   -2.2208   -0.1239 H   0  0  0  0  0  0  0  0  0  0  0  0
    1.5596   -0.9473    0.5181 H   0  0  0  0  0  0  0  0  0  0  0  0
    0.4694   -2.0208    1.9892 C   0  0  0  0  0  0  0  0  0  0  0  0
    0.8123   -1.4109    3.1769 N   0  0  0  0  0  0  0  0  0  0  0  0
    1.2536   -0.5090    3.2768 H   0  0  0  0  0  0  0  0  0  0  0  0
    0.4607   -2.2307    4.1817 C   0  0  0  0  0  0  0  0  0  0  0  0
    0.6088   -2.0286    5.2355 H   0  0  0  0  0  0  0  0  0  0  0  0
   -0.1080   -3.3437    3.6957 N   0  0  0  0  0  0  0  0  0  0  0  0
   -0.1044   -3.2238    2.3035 C   0  0  0  0  0  0  0  0  0  0  0  0
   -0.5146   -3.9365    1.5997 H   0  0  0  0  0  0  0  0  0  0  0  0
   -0.2661    0.3483   -1.0279 C   0  0  0  0  0  0  0  0  0  0  0  0
   -0.6226    1.5171   -1.1747 O   0  0  0  0  0  0  0  0  0  0  0  0
    0.3241   -0.3504   -2.0057 N   0  0  0  0  0  0  0  0  0  0  0  0
    0.5373   -1.3204   -1.8256 H   0  0  0  0  0  0  0  0  0  0  0  0
    0.6336    0.1828   -3.3298 C   0  0  0  0  0  0  0  0  0  0  0  0
    1.3067    1.0379   -3.2356 H   0  0  0  0  0  0  0  0  0  0  0  0
    1.1111   -0.5841   -3.9404 H   0  0  0  0  0  0  0  0  0  0  0  0
   -0.2833    0.5141   -3.8198 H   0  0  0  0  0  0  0  0  0  0  0  0
  5  6  2  0  0  0  0
  5  7  1  0  0  0  0
  2  3  1  0  0  0  0
  2  4  1  0  0  0  0
  2  5  1  0  0  0  0
  1  2  1  0  0  0  0
 22 23  2  0  0  0  0
 22 24  1  0  0  0  0
 20 21  1  0  0  0  0
 19 20  1  0  0  0  0
 17 18  1  0  0  0  0
 17 19  2  0  0  0  0
 15 16  1  0  0  0  0
 15 17  1  0  0  0  0
 14 15  1  0  0  0  0
 14 20  2  0  0  0  0
 11 12  1  0  0  0  0
 11 13  1  0  0  0  0
 11 14  1  0  0  0  0
  9 10  1  0  0  0  0
  9 11  1  0  0  0  0
  9 22  1  0  0  0  0
  7  8  1  0  0  0  0
  7  9  1  0  0  0  0
 26 27  1  0  0  0  0
 26 28  1  0  0  0  0
 26 29  1  0  0  0  0
 24 25  1  0  0  0  0
 24 26  1  0  0  0  0
M  END
$$$$
default_name
  -OEChem-01062215323D

 29 29  0     1  0  0  0  0  0999 V2000
   -3.6042   -3.5728    1.4576 H   0  0  0  0  0  0  0  0  0  0  0  0
   -3.5202   -2.6488    0.8866 C   0  0  0  0  0  0  0  0  0  0  0  0
   -4.2052   -1.9048    1.2896 H   0  0  0  0  0  0  0  0  0  0  0  0
   -3.7552   -2.8428   -0.1584 H   0  0  0  0  0  0  0  0  0  0  0  0
   -2.1052   -2.1358    0.9946 C   0  0  0  0  0  0  0  0  0  0  0  0
   -1.2852   -2.7288    1.6826 O   0  0  0  0  0  0  0  0  0  0  0  0
   -1.8202   -1.0288    0.3146 N   0  0  0  0  0  0  0  0  0  0  0  0
   -2.5542   -0.5788   -0.2104 H   0  0  0  0  0  0  0  0  0  0  0  0
   -0.5102   -0.3728    0.3086 C   0  0  1  0  0  0  0  0  0  0  0  0
   -0.4913    0.3772    1.1007 H   0  0  0  0  0  0  0  0  0  0  0  0
    0.5791   -1.4177    0.6128 C   0  0  0  0  0  0  0  0  0  0  0  0
    0.5197   -2.2208   -0.1239 H   0  0  0  0  0  0  0  0  0  0  0  0
    1.5596   -0.9473    0.5181 H   0  0  0  0  0  0  0  0  0  0  0  0
    0.4694   -2.0208    1.9892 C   0  0  0  0  0  0  0  0  0  0  0  0
    0.8123   -1.4109    3.1769 N   0  0  0  0  0  0  0  0  0  0  0  0
    1.2536   -0.5090    3.2768 H   0  0  0  0  0  0  0  0  0  0  0  0
    0.4607   -2.2307    4.1817 C   0  0  0  0  0  0  0  0  0  0  0  0
    0.6088   -2.0286    5.2355 H   0  0  0  0  0  0  0  0  0  0  0  0
   -0.1080   -3.3437    3.6957 N   0  0  0  0  0  0  0  0  0  0  0  0
   -0.1044   -3.2238    2.3035 C   0  0  0  0  0  0  0  0  0  0  0  0
   -0.5146   -3.9365    1.5997 H   0  0  0  0  0  0  0  0  0  0  0  0
   -0.2661    0.3483   -1.0279 C   0  0  0  0  0  0  0  0  0  0  0  0
   -0.3620    1.5734   -1.0968 O   0  0  0  0  0  0  0  0  0  0  0  0
    0.0315   -0.4093   -2.0909 N   0  0  0  0  0  0  0  0  0  0  0  0
    0.0381   -1.4109   -1.9656 H   0  0  0  0  0  0  0  0  0  0  0  0
    0.2976    0.1136   -3.4285 C   0  0  0  0  0  0  0  0  0  0  0  0
    1.1538    0.7911   -3.3966 H   0  0  0  0  0  0  0  0  0  0  0  0
    0.5136   -0.7054   -4.1150 H   0  0  0  0  0  0  0  0  0  0  0  0
   -0.5706    0.6670   -3.7899 H   0  0  0  0  0  0  0  0  0  0  0  0
  5  6  2  0  0  0  0
  5  7  1  0  0  0  0
  2  3  1  0  0  0  0
  2  4  1  0  0  0  0
  2  5  1  0  0  0  0
  1  2  1  0  0  0  0
 22 23  2  0  0  0  0
 22 24  1  0  0  0  0
 20 21  1  0  0  0  0
 19 20  1  0  0  0  0
 17 18  1  0  0  0  0
 17 19  2  0  0  0  0
 15 16  1  0  0  0  0
 15 17  1  0  0  0  0
 14 15  1  0  0  0  0
 14 20  2  0  0  0  0
 11 12  1  0  0  0  0
 11 13  1  0  0  0  0
 11 14  1  0  0  0  0
  9 10  1  0  0  0  0
  9 11  1  0  0  0  0
  9 22  1  0  0  0  0
  7  8  1  0  0  0  0
  7  9  1  0  0  0  0
 26 27  1  0  0  0  0
 26 28  1  0  0  0  0
 26 29  1  0  0  0  0
 24 25  1  0  0  0  0
 24 26  1  0  0  0  0
M  END
$$$$
default_name
  -OEChem-01062215323D

 29 29  0     1  0  0  0  0  0999 V2000
   -3.6042   -3.5728    1.4576 H   0  0  0  0  0  0  0  0  0  0  0  0
   -3.5202   -2.6488    0.8866 C   0  0  0  0  0  0  0  0  0  0  0  0
   -4.2052   -1.9048    1.2896 H   0  0  0  0  0  0  0  0  0  0  0  0
   -3.7552   -2.8428   -0.1584 H   0  0  0  0  0  0  0  0  0  0  0  0
   -2.1052   -2.1358    0.9946 C   0  0  0  0  0  0  0  0  0  0  0  0
   -1.2852   -2.7288    1.6826 O   0  0  0  0  0  0  0  0  0  0  0  0
   -1.8202   -1.0288    0.3146 N   0  0  0  0  0  0  0  0  0  0  0  0
   -2.5542   -0.5788   -0.2104 H   0  0  0  0  0  0  0  0  0  0  0  0
   -0.5102   -0.3728    0.3086 C   0  0  1  0  0  0  0  0  0  0  0  0
   -0.4913    0.3772    1.1007 H   0  0  0  0  0  0  0  0  0  0  0  0
    0.5791   -1.4177    0.6128 C   0  0  0  0  0  0  0  0  0  0  0  0
    0.5197   -2.2208   -0.1239 H   0  0  0  0  0  0  0  0  0  0  0  0
    1.5596   -0.9473    0.5181 H   0  0  0  0  0  0  0  0  0  0  0  0
    0.4694   -2.0208    1.9892 C   0  0  0  0  0  0  0  0  0  0  0  0
    0.8123   -1.4109    3.1769 N   0  0  0  0  0  0  0  0  0  0  0  0
    1.2536   -0.5090    3.2768 H   0  0  0  0  0  0  0  0  0  0  0  0
    0.4607   -2.2307    4.1817 C   0  0  0  0  0  0  0  0  0  0  0  0
    0.6088   -2.0286    5.2355 H   0  0  0  0  0  0  0  0  0  0  0  0
   -0.1080   -3.3437    3.6957 N   0  0  0  0  0  0  0  0  0  0  0  0
   -0.1044   -3.2238    2.3035 C   0  0  0  0  0  0  0  0  0  0  0  0
   -0.5146   -3.9365    1.5997 H   0  0  0  0  0  0  0  0  0  0  0  0
   -0.2661    0.3483   -1.0279 C   0  0  0  0  0  0  0  0  0  0  0  0
   -0.0883    1.5659   -1.0508 O   0  0  0  0  0  0  0  0  0  0  0  0
   -0.2747   -0.3969   -2.1402 N   0  0  0  0  0  0  0  0  0  0  0  0
   -0.4815   -1.3802   -2.0440 H   0  0  0  0  0  0  0  0  0  0  0  0
   -0.0545    0.1265   -3.4858 C   0  0  0  0  0  0  0  0  0  0  0  0
    0.9311    0.5938   -3.5438 H   0  0  0  0  0  0  0  0  0  0  0  0
   -0.1120   -0.6811   -4.2162 H   0  0  0  0  0  0  0  0  0  0  0  0
   -0.8101    0.8780   -3.7198 H   0  0  0  0  0  0  0  0  0  0  0  0
  5  6  2  0  0  0  0
  5  7  1  0  0  0  0
  2  3  1  0  0  0  0
  2  4  1  0  0  0  0
  2  5  1  0  0  0  0
  1  2  1  0  0  0  0
 22 23  2  0  0  0  0
 22 24  1  0  0  0  0
 20 21  1  0  0  0  0
 19 20  1  0  0  0  0
 17 18  1  0  0  0  0
 17 19  2  0  0  0  0
 15 16  1  0  0  0  0
 15 17  1  0  0  0  0
 14 15  1  0  0  0  0
 14 20  2  0  0  0  0
 11 12  1  0  0  0  0
 11 13  1  0  0  0  0
 11 14  1  0  0  0  0
  9 10  1  0  0  0  0
  9 11  1  0  0  0  0
  9 22  1  0  0  0  0
  7  8  1  0  0  0  0
  7  9  1  0  0  0  0
 26 27  1  0  0  0  0
 26 28  1  0  0  0  0
 26 29  1  0  0  0  0
 24 25  1  0  0  0  0
 24 26  1  0  0  0  0
M  END
$$$$
default_name
  -OEChem-01062215323D

 29 29  0     1  0  0  0  0  0999 V2000
   -3.6042   -3.5728    1.4576 H   0  0  0  0  0  0  0  0  0  0  0  0
   -3.5202   -2.6488    0.8866 C   0  0  0  0  0  0  0  0  0  0  0  0
   -4.2052   -1.9048    1.2896 H   0  0  0  0  0  0  0  0  0  0  0  0
   -3.7552   -2.8428   -0.1584 H   0  0  0  0  0  0  0  0  0  0  0  0
   -2.1052   -2.1358    0.9946 C   0  0  0  0  0  0  0  0  0  0  0  0
   -1.2852   -2.7288    1.6826 O   0  0  0  0  0  0  0  0  0  0  0  0
   -1.8202   -1.0288    0.3146 N   0  0  0  0  0  0  0  0  0  0  0  0
   -2.5542   -0.5788   -0.2104 H   0  0  0  0  0  0  0  0  0  0  0  0
   -0.5102   -0.3728    0.3086 C   0  0  1  0  0  0  0  0  0  0  0  0
   -0.4913    0.3772    1.1007 H   0  0  0  0  0  0  0  0  0  0  0  0
    0.5791   -1.4177    0.6128 C   0  0  0  0  0  0  0  0  0  0  0  0
    0.5197   -2.2208   -0.1239 H   0  0  0  0  0  0  0  0  0  0  0  0
    1.5596   -0.9473    0.5181 H   0  0  0  0  0  0  0  0  0  0  0  0
    0.4694   -2.0208    1.9892 C   0  0  0  0  0  0  0  0  0  0  0  0
    0.8123   -1.4109    3.1769 N   0  0  0  0  0  0  0  0  0  0  0  0
    1.2536   -0.5090    3.2768 H   0  0  0  0  0  0  0  0  0  0  0  0
    0.4607   -2.2307    4.1817 C   0  0  0  0  0  0  0  0  0  0  0  0
    0.6088   -2.0286    5.2355 H   0  0  0  0  0  0  0  0  0  0  0  0
   -0.1080   -3.3437    3.6957 N   0  0  0  0  0  0  0  0  0  0  0  0
   -0.1044   -3.2238    2.3035 C   0  0  0  0  0  0  0  0  0  0  0  0
   -0.5146   -3.9365    1.5997 H   0  0  0  0  0  0  0  0  0  0  0  0
   -0.2661    0.3483   -1.0279 C   0  0  0  0  0  0  0  0  0  0  0  0
    0.1801    1.4953   -1.0399 O   0  0  0  0  0  0  0  0  0  0  0  0
   -0.5736   -0.3140   -2.1501 N   0  0  0  0  0  0  0  0  0  0  0  0
   -0.9859   -1.2305   -2.0554 H   0  0  0  0  0  0  0  0  0  0  0  0
   -0.3987    0.2204   -3.4980 C   0  0  0  0  0  0  0  0  0  0  0  0
    0.6537    0.4594   -3.6670 H   0  0  0  0  0  0  0  0  0  0  0  0
   -0.7231   -0.5128   -4.2370 H   0  0  0  0  0  0  0  0  0  0  0  0
   -0.9856    1.1329   -3.6143 H   0  0  0  0  0  0  0  0  0  0  0  0
  5  6  2  0  0  0  0
  5  7  1  0  0  0  0
  2  3  1  0  0  0  0
  2  4  1  0  0  0  0
  2  5  1  0  0  0  0
  1  2  1  0  0  0  0
 22 23  2  0  0  0  0
 22 24  1  0  0  0  0
 20 21  1  0  0  0  0
 19 20  1  0  0  0  0
 17 18  1  0  0  0  0
 17 19  2  0  0  0  0
 15 16  1  0  0  0  0
 15 17  1  0  0  0  0
 14 15  1  0  0  0  0
 14 20  2  0  0  0  0
 11 12  1  0  0  0  0
 11 13  1  0  0  0  0
 11 14  1  0  0  0  0
  9 10  1  0  0  0  0
  9 11  1  0  0  0  0
  9 22  1  0  0  0  0
  7  8  1  0  0  0  0
  7  9  1  0  0  0  0
 26 27  1  0  0  0  0
 26 28  1  0  0  0  0
 26 29  1  0  0  0  0
 24 25  1  0  0  0  0
 24 26  1  0  0  0  0
M  END
$$$$
default_name
  -OEChem-01062215323D

 29 29  0     1  0  0  0  0  0999 V2000
   -3.6042   -3.5728    1.4576 H   0  0  0  0  0  0  0  0  0  0  0  0
   -3.5202   -2.6488    0.8866 C   0  0  0  0  0  0  0  0  0  0  0  0
   -4.2052   -1.9048    1.2896 H   0  0  0  0  0  0  0  0  0  0  0  0
   -3.7552   -2.8428   -0.1584 H   0  0  0  0  0  0  0  0  0  0  0  0
   -2.1052   -2.1358    0.9946 C   0  0  0  0  0  0  0  0  0  0  0  0
   -1.2852   -2.7288    1.6826 O   0  0  0  0  0  0  0  0  0  0  0  0
   -1.8202   -1.0288    0.3146 N   0  0  0  0  0  0  0  0  0  0  0  0
   -2.5542   -0.5788   -0.2104 H   0  0  0  0  0  0  0  0  0  0  0  0
   -0.5102   -0.3728    0.3086 C   0  0  1  0  0  0  0  0  0  0  0  0
   -0.4913    0.3772    1.1007 H   0  0  0  0  0  0  0  0  0  0  0  0
    0.5791   -1.4177    0.6128 C   0  0  0  0  0  0  0  0  0  0  0  0
    0.5197   -2.2208   -0.1239 H   0  0  0  0  0  0  0  0  0  0  0  0
    1.5596   -0.9473    0.5181 H   0  0  0  0  0  0  0  0  0  0  0  0
    0.4694   -2.0208    1.9892 C   0  0  0  0  0  0  0  0  0  0  0  0
    0.8123   -1.4109    3.1769 N   0  0  0  0  0  0  0  0  0  0  0  0
    1.2536   -0.5090    3.2768 H   0  0  0  0  0  0  0  0  0  0  0  0
    0.4607   -2.2307    4.1817 C   0  0  0  0  0  0  0  0  0  0  0  0
    0.6088   -2.0286    5.2355 H   0  0  0  0  0  0  0  0  0  0  0  0
   -0.1080   -3.3437    3.6957 N   0  0  0  0  0  0  0  0  0  0  0  0
   -0.1044   -3.2238    2.3035 C   0  0  0  0  0  0  0  0  0  0  0  0
   -0.5146   -3.9365    1.5997 H   0  0  0  0  0  0  0  0  0  0  0  0
   -0.2661    0.3483   -1.0279 C   0  0  0  0  0  0  0  0  0  0  0  0
    0.4247    1.3663   -1.0648 O   0  0  0  0  0  0  0  0  0  0  0  0
   -0.8449   -0.1664   -2.1200 N   0  0  0  0  0  0  0  0  0  0  0  0
   -1.4409   -0.9720   -1.9990 H   0  0  0  0  0  0  0  0  0  0  0  0
   -0.7114    0.3891   -3.4642 C   0  0  0  0  0  0  0  0  0  0  0  0
    0.3406    0.3970   -3.7579 H   0  0  0  0  0  0  0  0  0  0  0  0
   -1.2781   -0.2119   -4.1761 H   0  0  0  0  0  0  0  0  0  0  0  0
   -1.0849    1.4142   -3.4807 H   0  0  0  0  0  0  0  0  0  0  0  0
  5  6  2  0  0  0  0
  5  7  1  0  0  0  0
  2  3  1  0  0  0  0
  2  4  1  0  0  0  0
  2  5  1  0  0  0  0
  1  2  1  0  0  0  0
 22 23  2  0  0  0  0
 22 24  1  0  0  0  0
 20 21  1  0  0  0  0
 19 20  1  0  0  0  0
 17 18  1  0  0  0  0
 17 19  2  0  0  0  0
 15 16  1  0  0  0  0
 15 17  1  0  0  0  0
 14 15  1  0  0  0  0
 14 20  2  0  0  0  0
 11 12  1  0  0  0  0
 11 13  1  0  0  0  0
 11 14  1  0  0  0  0
  9 10  1  0  0  0  0
  9 11  1  0  0  0  0
  9 22  1  0  0  0  0
  7  8  1  0  0  0  0
  7  9  1  0  0  0  0
 26 27  1  0  0  0  0
 26 28  1  0  0  0  0
 26 29  1  0  0  0  0
 24 25  1  0  0  0  0
 24 26  1  0  0  0  0
M  END
$$$$
default_name
  -OEChem-01062215323D

 29 29  0     1  0  0  0  0  0999 V2000
   -3.6042   -3.5728    1.4576 H   0  0  0  0  0  0  0  0  0  0  0  0
   -3.5202   -2.6488    0.8866 C   0  0  0  0  0  0  0  0  0  0  0  0
   -4.2052   -1.9048    1.2896 H   0  0  0  0  0  0  0  0  0  0  0  0
   -3.7552   -2.8428   -0.1584 H   0  0  0  0  0  0  0  0  0  0  0  0
   -2.1052   -2.1358    0.9946 C   0  0  0  0  0  0  0  0  0  0  0  0
   -1.2852   -2.7288    1.6826 O   0  0  0  0  0  0  0  0  0  0  0  0
   -1.8202   -1.0288    0.3146 N   0  0  0  0  0  0  0  0  0  0  0  0
   -2.5542   -0.5788   -0.2104 H   0  0  0  0  0  0  0  0  0  0  0  0
   -0.5102   -0.3728    0.3086 C   0  0  1  0  0  0  0  0  0  0  0  0
   -0.4913    0.3772    1.1007 H   0  0  0  0  0  0  0  0  0  0  0  0
    0.5791   -1.4177    0.6128 C   0  0  0  0  0  0  0  0  0  0  0  0
    0.5197   -2.2208   -0.1239 H   0  0  0  0  0  0  0  0  0  0  0  0
    1.5596   -0.9473    0.5181 H   0  0  0  0  0  0  0  0  0  0  0  0
    0.4694   -2.0208    1.9892 C   0  0  0  0  0  0  0  0  0  0  0  0
    0.8123   -1.4109    3.1769 N   0  0  0  0  0  0  0  0  0  0  0  0
    1.2536   -0.5090    3.2768 H   0  0  0  0  0  0  0  0  0  0  0  0
    0.4607   -2.2307    4.1817 C   0  0  0  0  0  0  0  0  0  0  0  0
    0.6088   -2.0286    5.2355 H   0  0  0  0  0  0  0  0  0  0  0  0
   -0.1080   -3.3437    3.6957 N   0  0  0  0  0  0  0  0  0  0  0  0
   -0.1044   -3.2238    2.3035 C   0  0  0  0  0  0  0  0  0  0  0  0
   -0.5146   -3.9365    1.5997 H   0  0  0  0  0  0  0  0  0  0  0  0
   -0.2661    0.3483   -1.0279 C   0  0  0  0  0  0  0  0  0  0  0  0
    0.6290    1.1876   -1.1239 O   0  0  0  0  0  0  0  0  0  0  0  0
   -1.0701    0.0360   -2.0519 N   0  0  0  0  0  0  0  0  0  0  0  0
   -1.8154   -0.6223   -1.8787 H   0  0  0  0  0  0  0  0  0  0  0  0
   -0.9715    0.6209   -3.3866 C   0  0  0  0  0  0  0  0  0  0  0  0
    0.0131    0.4108   -3.8102 H   0  0  0  0  0  0  0  0  0  0  0  0
   -1.7390    0.2011   -4.0375 H   0  0  0  0  0  0  0  0  0  0  0  0
   -1.1014    1.7027   -3.3280 H   0  0  0  0  0  0  0  0  0  0  0  0
  5  6  2  0  0  0  0
  5  7  1  0  0  0  0
  2  3  1  0  0  0  0
  2  4  1  0  0  0  0
  2  5  1  0  0  0  0
  1  2  1  0  0  0  0
 22 23  2  0  0  0  0
 22 24  1  0  0  0  0
 20 21  1  0  0  0  0
 19 20  1  0  0  0  0
 17 18  1  0  0  0  0
 17 19  2  0  0  0  0
 15 16  1  0  0  0  0
 15 17  1  0  0  0  0
 14 15  1  0  0  0  0
 14 20  2  0  0  0  0
 11 12  1  0  0  0  0
 11 13  1  0  0  0  0
 11 14  1  0  0  0  0
  9 10  1  0  0  0  0
  9 11  1  0  0  0  0
  9 22  1  0  0  0  0
  7  8  1  0  0  0  0
  7  9  1  0  0  0  0
 26 27  1  0  0  0  0
 26 28  1  0  0  0  0
 26 29  1  0  0  0  0
 24 25  1  0  0  0  0
 24 26  1  0  0  0  0
M  END
$$$$
default_name
  -OEChem-01062215323D

 29 29  0     1  0  0  0  0  0999 V2000
   -3.6042   -3.5728    1.4576 H   0  0  0  0  0  0  0  0  0  0  0  0
   -3.5202   -2.6488    0.8866 C   0  0  0  0  0  0  0  0  0  0  0  0
   -4.2052   -1.9048    1.2896 H   0  0  0  0  0  0  0  0  0  0  0  0
   -3.7552   -2.8428   -0.1584 H   0  0  0  0  0  0  0  0  0  0  0  0
   -2.1052   -2.1358    0.9946 C   0  0  0  0  0  0  0  0  0  0  0  0
   -1.2852   -2.7288    1.6826 O   0  0  0  0  0  0  0  0  0  0  0  0
   -1.8202   -1.0288    0.3146 N   0  0  0  0  0  0  0  0  0  0  0  0
   -2.5542   -0.5788   -0.2104 H   0  0  0  0  0  0  0  0  0  0  0  0
   -0.5102   -0.3728    0.3086 C   0  0  1  0  0  0  0  0  0  0  0  0
   -0.4913    0.3772    1.1007 H   0  0  0  0  0  0  0  0  0  0  0  0
    0.5791   -1.4177    0.6128 C   0  0  0  0  0  0  0  0  0  0  0  0
    0.5197   -2.2208   -0.1239 H   0  0  0  0  0  0  0  0  0  0  0  0
    1.5596   -0.9473    0.5181 H   0  0  0  0  0  0  0  0  0  0  0  0
    0.4694   -2.0208    1.9892 C   0  0  0  0  0  0  0  0  0  0  0  0
    0.8123   -1.4109    3.1769 N   0  0  0  0  0  0  0  0  0  0  0  0
    1.2536   -0.5090    3.2768 H   0  0  0  0  0  0  0  0  0  0  0  0
    0.4607   -2.2307    4.1817 C   0  0  0  0  0  0  0  0  0  0  0  0
    0.6088   -2.0286    5.2355 H   0  0  0  0  0  0  0  0  0  0  0  0
   -0.1080   -3.3437    3.6957 N   0  0  0  0  0  0  0  0  0  0  0  0
   -0.1044   -3.2238    2.3035 C   0  0  0  0  0  0  0  0  0  0  0  0
   -0.5146   -3.9365    1.5997 H   0  0  0  0  0  0  0  0  0  0  0  0
   -0.2661    0.3483   -1.0279 C   0  0  0  0  0  0  0  0  0  0  0  0
    0.7789    0.9715   -1.2131 O   0  0  0  0  0  0  0  0  0  0  0  0
   -1.2338    0.2794   -1.9505 N   0  0  0  0  0  0  0  0  0  0  0  0
   -2.0840   -0.2052   -1.7028 H   0  0  0  0  0  0  0  0  0  0  0  0
   -1.1612    0.9002   -3.2706 C   0  0  0  0  0  0  0  0  0  0  0  0
   -0.3064    0.5000   -3.8205 H   0  0  0  0  0  0  0  0  0  0  0  0
   -2.0746    0.6979   -3.8307 H   0  0  0  0  0  0  0  0  0  0  0  0
   -1.0339    1.9789   -3.1667 H   0  0  0  0  0  0  0  0  0  0  0  0
  5  6  2  0  0  0  0
  5  7  1  0  0  0  0
  2  3  1  0  0  0  0
  2  4  1  0  0  0  0
  2  5  1  0  0  0  0
  1  2  1  0  0  0  0
 22 23  2  0  0  0  0
 22 24  1  0  0  0  0
 20 21  1  0  0  0  0
 19 20  1  0  0  0  0
 17 18  1  0  0  0  0
 17 19  2  0  0  0  0
 15 16  1  0  0  0  0
 15 17  1  0  0  0  0
 14 15  1  0  0  0  0
 14 20  2  0  0  0  0
 11 12  1  0  0  0  0
 11 13  1  0  0  0  0
 11 14  1  0  0  0  0
  9 10  1  0  0  0  0
  9 11  1  0  0  0  0
  9 22  1  0  0  0  0
  7  8  1  0  0  0  0
  7  9  1  0  0  0  0
 26 27  1  0  0  0  0
 26 28  1  0  0  0  0
 26 29  1  0  0  0  0
 24 25  1  0  0  0  0
 24 26  1  0  0  0  0
M  END
$$$$
default_name
  -OEChem-01062215323D

 29 29  0     1  0  0  0  0  0999 V2000
   -3.6042   -3.5728    1.4576 H   0  0  0  0  0  0  0  0  0  0  0  0
   -3.5202   -2.6488    0.8866 C   0  0  0  0  0  0  0  0  0  0  0  0
   -4.2052   -1.9048    1.2896 H   0  0  0  0  0  0  0  0  0  0  0  0
   -3.7552   -2.8428   -0.1584 H   0  0  0  0  0  0  0  0  0  0  0  0
   -2.1052   -2.1358    0.9946 C   0  0  0  0  0  0  0  0  0  0  0  0
   -1.2852   -2.7288    1.6826 O   0  0  0  0  0  0  0  0  0  0  0  0
   -1.8202   -1.0288    0.3146 N   0  0  0  0  0  0  0  0  0  0  0  0
   -2.5542   -0.5788   -0.2104 H   0  0  0  0  0  0  0  0  0  0  0  0
   -0.5102   -0.3728    0.3086 C   0  0  1  0  0  0  0  0  0  0  0  0
   -0.4913    0.3772    1.1007 H   0  0  0  0  0  0  0  0  0  0  0  0
    0.5791   -1.4177    0.6128 C   0  0  0  0  0  0  0  0  0  0  0  0
    0.5197   -2.2208   -0.1239 H   0  0  0  0  0  0  0  0  0  0  0  0
    1.5596   -0.9473    0.5181 H   0  0  0  0  0  0  0  0  0  0  0  0
    0.4694   -2.0208    1.9892 C   0  0  0  0  0  0  0  0  0  0  0  0
    0.8123   -1.4109    3.1769 N   0  0  0  0  0  0  0  0  0  0  0  0
    1.2536   -0.5090    3.2768 H   0  0  0  0  0  0  0  0  0  0  0  0
    0.4607   -2.2307    4.1817 C   0  0  0  0  0  0  0  0  0  0  0  0
    0.6088   -2.0286    5.2355 H   0  0  0  0  0  0  0  0  0  0  0  0
   -0.1080   -3.3437    3.6957 N   0  0  0  0  0  0  0  0  0  0  0  0
   -0.1044   -3.2238    2.3035 C   0  0  0  0  0  0  0  0  0  0  0  0
   -0.5146   -3.9365    1.5997 H   0  0  0  0  0  0  0  0  0  0  0  0
   -0.2661    0.3483   -1.0279 C   0  0  0  0  0  0  0  0  0  0  0  0
    0.8644    0.7328   -1.3263 O   0  0  0  0  0  0  0  0  0  0  0  0
   -1.3250    0.5471   -1.8228 N   0  0  0  0  0  0  0  0  0  0  0  0
   -2.2282    0.2508   -1.4831 H   0  0  0  0  0  0  0  0  0  0  0  0
   -1.2675    1.2078   -3.1240 C   0  0  0  0  0  0  0  0  0  0  0  0
   -0.5963    0.6584   -3.7880 H   0  0  0  0  0  0  0  0  0  0  0  0
   -2.2619    1.2448   -3.5699 H   0  0  0  0  0  0  0  0  0  0  0  0
   -0.8870    2.2238   -3.0077 H   0  0  0  0  0  0  0  0  0  0  0  0
  5  6  2  0  0  0  0
  5  7  1  0  0  0  0
  2  3  1  0  0  0  0
  2  4  1  0  0  0  0
  2  5  1  0  0  0  0
  1  2  1  0  0  0  0
 22 23  2  0  0  0  0
 22 24  1  0  0  0  0
 20 21  1  0  0  0  0
 19 20  1  0  0  0  0
 17 18  1  0  0  0  0
 17 19  2  0  0  0  0
 15 16  1  0  0  0  0
 15 17  1  0  0  0  0
 14 15  1  0  0  0  0
 14 20  2  0  0  0  0
 11 12  1  0  0  0  0
 11 13  1  0  0  0  0
 11 14  1  0  0  0  0
  9 10  1  0  0  0  0
  9 11  1  0  0  0  0
  9 22  1  0  0  0  0
  7  8  1  0  0  0  0
  7  9  1  0  0  0  0
 26 27  1  0  0  0  0
 26 28  1  0  0  0  0
 26 29  1  0  0  0  0
 24 25  1  0  0  0  0
 24 26  1  0  0  0  0
M  END
$$$$
default_name
  -OEChem-01062215323D

 29 29  0     1  0  0  0  0  0999 V2000
   -3.6042   -3.5728    1.4576 H   0  0  0  0  0  0  0  0  0  0  0  0
   -3.5202   -2.6488    0.8866 C   0  0  0  0  0  0  0  0  0  0  0  0
   -4.2052   -1.9048    1.2896 H   0  0  0  0  0  0  0  0  0  0  0  0
   -3.7552   -2.8428   -0.1584 H   0  0  0  0  0  0  0  0  0  0  0  0
   -2.1052   -2.1358    0.9946 C   0  0  0  0  0  0  0  0  0  0  0  0
   -1.2852   -2.7288    1.6826 O   0  0  0  0  0  0  0  0  0  0  0  0
   -1.8202   -1.0288    0.3146 N   0  0  0  0  0  0  0  0  0  0  0  0
   -2.5542   -0.5788   -0.2104 H   0  0  0  0  0  0  0  0  0  0  0  0
   -0.5102   -0.3728    0.3086 C   0  0  1  0  0  0  0  0  0  0  0  0
   -0.4913    0.3772    1.1007 H   0  0  0  0  0  0  0  0  0  0  0  0
    0.5791   -1.4177    0.6128 C   0  0  0  0  0  0  0  0  0  0  0  0
    0.5197   -2.2208   -0.1239 H   0  0  0  0  0  0  0  0  0  0  0  0
    1.5596   -0.9473    0.5181 H   0  0  0  0  0  0  0  0  0  0  0  0
    0.4694   -2.0208    1.9892 C   0  0  0  0  0  0  0  0  0  0  0  0
    0.8123   -1.4109    3.1769 N   0  0  0  0  0  0  0  0  0  0  0  0
    1.2536   -0.5090    3.2768 H   0  0  0  0  0  0  0  0  0  0  0  0
    0.4607   -2.2307    4.1817 C   0  0  0  0  0  0  0  0  0  0  0  0
    0.6088   -2.0286    5.2355 H   0  0  0  0  0  0  0  0  0  0  0  0
   -0.1080   -3.3437    3.6957 N   0  0  0  0  0  0  0  0  0  0  0  0
   -0.1044   -3.2238    2.3035 C   0  0  0  0  0  0  0  0  0  0  0  0
   -0.5146   -3.9365    1.5997 H   0  0  0  0  0  0  0  0  0  0  0  0
   -0.2661    0.3483   -1.0279 C   0  0  0  0  0  0  0  0  0  0  0  0
    0.8795    0.4876   -1.4558 O   0  0  0  0  0  0  0  0  0  0  0  0
   -1.3373    0.8210   -1.6773 N   0  0  0  0  0  0  0  0  0  0  0  0
   -2.2383    0.7147   -1.2346 H   0  0  0  0  0  0  0  0  0  0  0  0
   -1.2833    1.5229   -2.9569 C   0  0  0  0  0  0  0  0  0  0  0  0
   -0.8367    0.8753   -3.7149 H   0  0  0  0  0  0  0  0  0  0  0  0
   -2.2882    1.8045   -3.2727 H   0  0  0  0  0  0  0  0  0  0  0  0
   -0.6707    2.4208   -2.8619 H   0  0  0  0  0  0  0  0  0  0  0  0
  5  6  2  0  0  0  0
  5  7  1  0  0  0  0
  2  3  1  0  0  0  0
  2  4  1  0  0  0  0
  2  5  1  0  0  0  0
  1  2  1  0  0  0  0
 22 23  2  0  0  0  0
 22 24  1  0  0  0  0
 20 21  1  0  0  0  0
 19 20  1  0  0  0  0
 17 18  1  0  0  0  0
 17 19  2  0  0  0  0
 15 16  1  0  0  0  0
 15 17  1  0  0  0  0
 14 15  1  0  0  0  0
 14 20  2  0  0  0  0
 11 12  1  0  0  0  0
 11 13  1  0  0  0  0
 11 14  1  0  0  0  0
  9 10  1  0  0  0  0
  9 11  1  0  0  0  0
  9 22  1  0  0  0  0
  7  8  1  0  0  0  0
  7  9  1  0  0  0  0
 26 27  1  0  0  0  0
 26 28  1  0  0  0  0
 26 29  1  0  0  0  0
 24 25  1  0  0  0  0
 24 26  1  0  0  0  0
M  END
$$$$
default_name
  -OEChem-01062215323D

 29 29  0     1  0  0  0  0  0999 V2000
   -3.6042   -3.5728    1.4576 H   0  0  0  0  0  0  0  0  0  0  0  0
   -3.5202   -2.6488    0.8866 C   0  0  0  0  0  0  0  0  0  0  0  0
   -4.2052   -1.9048    1.2896 H   0  0  0  0  0  0  0  0  0  0  0  0
   -3.7552   -2.8428   -0.1584 H   0  0  0  0  0  0  0  0  0  0  0  0
   -2.1052   -2.1358    0.9946 C   0  0  0  0  0  0  0  0  0  0  0  0
   -1.2852   -2.7288    1.6826 O   0  0  0  0  0  0  0  0  0  0  0  0
   -1.8202   -1.0288    0.3146 N   0  0  0  0  0  0  0  0  0  0  0  0
   -2.5542   -0.5788   -0.2104 H   0  0  0  0  0  0  0  0  0  0  0  0
   -0.5102   -0.3728    0.3086 C   0  0  1  0  0  0  0  0  0  0  0  0
   -0.4913    0.3772    1.1007 H   0  0  0  0  0  0  0  0  0  0  0  0
    0.5791   -1.4177    0.6128 C   0  0  0  0  0  0  0  0  0  0  0  0
    0.5197   -2.2208   -0.1239 H   0  0  0  0  0  0  0  0  0  0  0  0
    1.5596   -0.9473    0.5181 H   0  0  0  0  0  0  0  0  0  0  0  0
    0.4694   -2.0208    1.9892 C   0  0  0  0  0  0  0  0  0  0  0  0
    0.8123   -1.4109    3.1769 N   0  0  0  0  0  0  0  0  0  0  0  0
    1.2536   -0.5090    3.2768 H   0  0  0  0  0  0  0  0  0  0  0  0
    0.4607   -2.2307    4.1817 C   0  0  0  0  0  0  0  0  0  0  0  0
    0.6088   -2.0286    5.2355 H   0  0  0  0  0  0  0  0  0  0  0  0
   -0.1080   -3.3437    3.6957 N   0  0  0  0  0  0  0  0  0  0  0  0
   -0.1044   -3.2238    2.3035 C   0  0  0  0  0  0  0  0  0  0  0  0
   -0.5146   -3.9365    1.5997 H   0  0  0  0  0  0  0  0  0  0  0  0
   -0.2661    0.3483   -1.0279 C   0  0  0  0  0  0  0  0  0  0  0  0
    0.8232    0.2527   -1.5928 O   0  0  0  0  0  0  0  0  0  0  0  0
   -1.2699    1.0823   -1.5240 N   0  0  0  0  0  0  0  0  0  0  0  0
   -2.1135    1.1549   -0.9744 H   0  0  0  0  0  0  0  0  0  0  0  0
   -1.2073    1.8238   -2.7807 C   0  0  0  0  0  0  0  0  0  0  0  0
   -1.0113    1.1359   -3.6062 H   0  0  0  0  0  0  0  0  0  0  0  0
   -2.1517    2.3388   -2.9595 H   0  0  0  0  0  0  0  0  0  0  0  0
   -0.3998    2.5565   -2.7393 H   0  0  0  0  0  0  0  0  0  0  0  0
  5  6  2  0  0  0  0
  5  7  1  0  0  0  0
  2  3  1  0  0  0  0
  2  4  1  0  0  0  0
  2  5  1  0  0  0  0
  1  2  1  0  0  0  0
 22 23  2  0  0  0  0
 22 24  1  0  0  0  0
 20 21  1  0  0  0  0
 19 20  1  0  0  0  0
 17 18  1  0  0  0  0
 17 19  2  0  0  0  0
 15 16  1  0  0  0  0
 15 17  1  0  0  0  0
 14 15  1  0  0  0  0
 14 20  2  0  0  0  0
 11 12  1  0  0  0  0
 11 13  1  0  0  0  0
 11 14  1  0  0  0  0
  9 10  1  0  0  0  0
  9 11  1  0  0  0  0
  9 22  1  0  0  0  0
  7  8  1  0  0  0  0
  7  9  1  0  0  0  0
 26 27  1  0  0  0  0
 26 28  1  0  0  0  0
 26 29  1  0  0  0  0
 24 25  1  0  0  0  0
 24 26  1  0  0  0  0
M  END
$$$$
default_name
  -OEChem-01062215323D

 29 29  0     1  0  0  0  0  0999 V2000
   -3.6042   -3.5728    1.4576 H   0  0  0  0  0  0  0  0  0  0  0  0
   -3.5202   -2.6488    0.8866 C   0  0  0  0  0  0  0  0  0  0  0  0
   -4.2052   -1.9048    1.2896 H   0  0  0  0  0  0  0  0  0  0  0  0
   -3.7552   -2.8428   -0.1584 H   0  0  0  0  0  0  0  0  0  0  0  0
   -2.1052   -2.1358    0.9946 C   0  0  0  0  0  0  0  0  0  0  0  0
   -1.2852   -2.7288    1.6826 O   0  0  0  0  0  0  0  0  0  0  0  0
   -1.8202   -1.0288    0.3146 N   0  0  0  0  0  0  0  0  0  0  0  0
   -2.5542   -0.5788   -0.2104 H   0  0  0  0  0  0  0  0  0  0  0  0
   -0.5102   -0.3728    0.3086 C   0  0  1  0  0  0  0  0  0  0  0  0
   -0.4913    0.3772    1.1007 H   0  0  0  0  0  0  0  0  0  0  0  0
    0.5791   -1.4177    0.6128 C   0  0  0  0  0  0  0  0  0  0  0  0
    0.5197   -2.2208   -0.1239 H   0  0  0  0  0  0  0  0  0  0  0  0
    1.5596   -0.9473    0.5181 H   0  0  0  0  0  0  0  0  0  0  0  0
    0.4694   -2.0208    1.9892 C   0  0  0  0  0  0  0  0  0  0  0  0
    0.8123   -1.4109    3.1769 N   0  0  0  0  0  0  0  0  0  0  0  0
    1.2536   -0.5090    3.2768 H   0  0  0  0  0  0  0  0  0  0  0  0
    0.4607   -2.2307    4.1817 C   0  0  0  0  0  0  0  0  0  0  0  0
    0.6088   -2.0286    5.2355 H   0  0  0  0  0  0  0  0  0  0  0  0
   -0.1080   -3.3437    3.6957 N   0  0  0  0  0  0  0  0  0  0  0  0
   -0.1044   -3.2238    2.3035 C   0  0  0  0  0  0  0  0  0  0  0  0
   -0.5146   -3.9365    1.5997 H   0  0  0  0  0  0  0  0  0  0  0  0
   -0.2661    0.3483   -1.0279 C   0  0  0  0  0  0  0  0  0  0  0  0
    0.6994    0.0441   -1.7280 O   0  0  0  0  0  0  0  0  0  0  0  0
   -1.1275    1.3133   -1.3733 N   0  0  0  0  0  0  0  0  0  0  0  0
   -1.8625    1.5413   -0.7201 H   0  0  0  0  0  0  0  0  0  0  0  0
   -1.0449    2.0902   -2.6073 C   0  0  0  0  0  0  0  0  0  0  0  0
   -1.1082    1.4223   -3.4693 H   0  0  0  0  0  0  0  0  0  0  0  0
   -1.8616    2.8113   -2.6516 H   0  0  0  0  0  0  0  0  0  0  0  0
   -0.0928    2.6216   -2.6480 H   0  0  0  0  0  0  0  0  0  0  0  0
  5  6  2  0  0  0  0
  5  7  1  0  0  0  0
  2  3  1  0  0  0  0
  2  4  1  0  0  0  0
  2  5  1  0  0  0  0
  1  2  1  0  0  0  0
 22 23  2  0  0  0  0
 22 24  1  0  0  0  0
 20 21  1  0  0  0  0
 19 20  1  0  0  0  0
 17 18  1  0  0  0  0
 17 19  2  0  0  0  0
 15 16  1  0  0  0  0
 15 17  1  0  0  0  0
 14 15  1  0  0  0  0
 14 20  2  0  0  0  0
 11 12  1  0  0  0  0
 11 13  1  0  0  0  0
 11 14  1  0  0  0  0
  9 10  1  0  0  0  0
  9 11  1  0  0  0  0
  9 22  1  0  0  0  0
  7  8  1  0  0  0  0
  7  9  1  0  0  0  0
 26 27  1  0  0  0  0
 26 28  1  0  0  0  0
 26 29  1  0  0  0  0
 24 25  1  0  0  0  0
 24 26  1  0  0  0  0
M  END
$$$$
default_name
  -OEChem-01062215323D

 29 29  0     1  0  0  0  0  0999 V2000
   -3.6042   -3.5728    1.4576 H   0  0  0  0  0  0  0  0  0  0  0  0
   -3.5202   -2.6488    0.8866 C   0  0  0  0  0  0  0  0  0  0  0  0
   -4.2052   -1.9048    1.2896 H   0  0  0  0  0  0  0  0  0  0  0  0
   -3.7552   -2.8428   -0.1584 H   0  0  0  0  0  0  0  0  0  0  0  0
   -2.1052   -2.1358    0.9946 C   0  0  0  0  0  0  0  0  0  0  0  0
   -1.2852   -2.7288    1.6826 O   0  0  0  0  0  0  0  0  0  0  0  0
   -1.8202   -1.0288    0.3146 N   0  0  0  0  0  0  0  0  0  0  0  0
   -2.5542   -0.5788   -0.2104 H   0  0  0  0  0  0  0  0  0  0  0  0
   -0.5102   -0.3728    0.3086 C   0  0  1  0  0  0  0  0  0  0  0  0
   -0.4913    0.3772    1.1007 H   0  0  0  0  0  0  0  0  0  0  0  0
    0.5791   -1.4177    0.6128 C   0  0  0  0  0  0  0  0  0  0  0  0
    0.5197   -2.2208   -0.1239 H   0  0  0  0  0  0  0  0  0  0  0  0
    1.5596   -0.9473    0.5181 H   0  0  0  0  0  0  0  0  0  0  0  0
    0.4694   -2.0208    1.9892 C   0  0  0  0  0  0  0  0  0  0  0  0
    0.8123   -1.4109    3.1769 N   0  0  0  0  0  0  0  0  0  0  0  0
    1.2536   -0.5090    3.2768 H   0  0  0  0  0  0  0  0  0  0  0  0
    0.4607   -2.2307    4.1817 C   0  0  0  0  0  0  0  0  0  0  0  0
    0.6088   -2.0286    5.2355 H   0  0  0  0  0  0  0  0  0  0  0  0
   -0.1080   -3.3437    3.6957 N   0  0  0  0  0  0  0  0  0  0  0  0
   -0.1044   -3.2238    2.3035 C   0  0  0  0  0  0  0  0  0  0  0  0
   -0.5146   -3.9365    1.5997 H   0  0  0  0  0  0  0  0  0  0  0  0
   -0.2661    0.3483   -1.0279 C   0  0  0  0  0  0  0  0  0  0  0  0
    0.5165   -0.1240   -1.8521 O   0  0  0  0  0  0  0  0  0  0  0  0
   -0.9197    1.4981   -1.2356 N   0  0  0  0  0  0  0  0  0  0  0  0
   -1.5023    1.8476   -0.4890 H   0  0  0  0  0  0  0  0  0  0  0  0
   -0.8071    2.3039   -2.4486 C   0  0  0  0  0  0  0  0  0  0  0  0
   -1.1207    1.7152   -3.3136 H   0  0  0  0  0  0  0  0  0  0  0  0
   -1.4379    3.1899   -2.3699 H   0  0  0  0  0  0  0  0  0  0  0  0
    0.2295    2.6117   -2.5945 H   0  0  0  0  0  0  0  0  0  0  0  0
  5  6  2  0  0  0  0
  5  7  1  0  0  0  0
  2  3  1  0  0  0  0
  2  4  1  0  0  0  0
  2  5  1  0  0  0  0
  1  2  1  0  0  0  0
 22 23  2  0  0  0  0
 22 24  1  0  0  0  0
 20 21  1  0  0  0  0
 19 20  1  0  0  0  0
 17 18  1  0  0  0  0
 17 19  2  0  0  0  0
 15 16  1  0  0  0  0
 15 17  1  0  0  0  0
 14 15  1  0  0  0  0
 14 20  2  0  0  0  0
 11 12  1  0  0  0  0
 11 13  1  0  0  0  0
 11 14  1  0  0  0  0
  9 10  1  0  0  0  0
  9 11  1  0  0  0  0
  9 22  1  0  0  0  0
  7  8  1  0  0  0  0
  7  9  1  0  0  0  0
 26 27  1  0  0  0  0
 26 28  1  0  0  0  0
 26 29  1  0  0  0  0
 24 25  1  0  0  0  0
 24 26  1  0  0  0  0
M  END
$$$$
default_name
  -OEChem-01062215323D

 29 29  0     1  0  0  0  0  0999 V2000
   -3.6042   -3.5728    1.4576 H   0  0  0  0  0  0  0  0  0  0  0  0
   -3.5202   -2.6488    0.8866 C   0  0  0  0  0  0  0  0  0  0  0  0
   -4.2052   -1.9048    1.2896 H   0  0  0  0  0  0  0  0  0  0  0  0
   -3.7552   -2.8428   -0.1584 H   0  0  0  0  0  0  0  0  0  0  0  0
   -2.1052   -2.1358    0.9946 C   0  0  0  0  0  0  0  0  0  0  0  0
   -1.2852   -2.7288    1.6826 O   0  0  0  0  0  0  0  0  0  0  0  0
   -1.8202   -1.0288    0.3146 N   0  0  0  0  0  0  0  0  0  0  0  0
   -2.5542   -0.5788   -0.2104 H   0  0  0  0  0  0  0  0  0  0  0  0
   -0.5102   -0.3728    0.3086 C   0  0  1  0  0  0  0  0  0  0  0  0
   -0.4913    0.3772    1.1007 H   0  0  0  0  0  0  0  0  0  0  0  0
    0.5791   -1.4177    0.6128 C   0  0  0  0  0  0  0  0  0  0  0  0
    0.5197   -2.2208   -0.1239 H   0  0  0  0  0  0  0  0  0  0  0  0
    1.5596   -0.9473    0.5181 H   0  0  0  0  0  0  0  0  0  0  0  0
    0.4694   -2.0208    1.9892 C   0  0  0  0  0  0  0  0  0  0  0  0
    0.8123   -1.4109    3.1769 N   0  0  0  0  0  0  0  0  0  0  0  0
    1.2536   -0.5090    3.2768 H   0  0  0  0  0  0  0  0  0  0  0  0
    0.4607   -2.2307    4.1817 C   0  0  0  0  0  0  0  0  0  0  0  0
    0.6088   -2.0286    5.2355 H   0  0  0  0  0  0  0  0  0  0  0  0
   -0.1080   -3.3437    3.6957 N   0  0  0  0  0  0  0  0  0  0  0  0
   -0.1044   -3.2238    2.3035 C   0  0  0  0  0  0  0  0  0  0  0  0
   -0.5146   -3.9365    1.5997 H   0  0  0  0  0  0  0  0  0  0  0  0
   -0.2661    0.3483   -1.0279 C   0  0  0  0  0  0  0  0  0  0  0  0
    0.2869   -0.2402   -1.9567 O   0  0  0  0  0  0  0  0  0  0  0  0
   -0.6607    1.6243   -1.1202 N   0  0  0  0  0  0  0  0  0  0  0  0
   -1.0573    2.0530   -0.2969 H   0  0  0  0  0  0  0  0  0  0  0  0
   -0.5101    2.4503   -2.3153 C   0  0  0  0  0  0  0  0  0  0  0  0
   -1.0480    1.9945   -3.1496 H   0  0  0  0  0  0  0  0  0  0  0  0
   -0.9092    3.4487   -2.1338 H   0  0  0  0  0  0  0  0  0  0  0  0
    0.5451    2.5274   -2.5823 H   0  0  0  0  0  0  0  0  0  0  0  0
  5  6  2  0  0  0  0
  5  7  1  0  0  0  0
  2  3  1  0  0  0  0
  2  4  1  0  0  0  0
  2  5  1  0  0  0  0
  1  2  1  0  0  0  0
 22 23  2  0  0  0  0
 22 24  1  0  0  0  0
 20 21  1  0  0  0  0
 19 20  1  0  0  0  0
 17 18  1  0  0  0  0
 17 19  2  0  0  0  0
 15 16  1  0  0  0  0
 15 17  1  0  0  0  0
 14 15  1  0  0  0  0
 14 20  2  0  0  0  0
 11 12  1  0  0  0  0
 11 13  1  0  0  0  0
 11 14  1  0  0  0  0
  9 10  1  0  0  0  0
  9 11  1  0  0  0  0
  9 22  1  0  0  0  0
  7  8  1  0  0  0  0
  7  9  1  0  0  0  0
 26 27  1  0  0  0  0
 26 28  1  0  0  0  0
 26 29  1  0  0  0  0
 24 25  1  0  0  0  0
 24 26  1  0  0  0  0
M  END
$$$$
default_name
  -OEChem-01062215323D

 29 29  0     1  0  0  0  0  0999 V2000
   -3.6042   -3.5728    1.4576 H   0  0  0  0  0  0  0  0  0  0  0  0
   -3.5202   -2.6488    0.8866 C   0  0  0  0  0  0  0  0  0  0  0  0
   -4.2052   -1.9048    1.2896 H   0  0  0  0  0  0  0  0  0  0  0  0
   -3.7552   -2.8428   -0.1584 H   0  0  0  0  0  0  0  0  0  0  0  0
   -2.1052   -2.1358    0.9946 C   0  0  0  0  0  0  0  0  0  0  0  0
   -1.2852   -2.7288    1.6826 O   0  0  0  0  0  0  0  0  0  0  0  0
   -1.8202   -1.0288    0.3146 N   0  0  0  0  0  0  0  0  0  0  0  0
   -2.5542   -0.5788   -0.2104 H   0  0  0  0  0  0  0  0  0  0  0  0
   -0.5102   -0.3728    0.3086 C   0  0  1  0  0  0  0  0  0  0  0  0
   -0.4913    0.3772    1.1007 H   0  0  0  0  0  0  0  0  0  0  0  0
    0.5791   -1.4177    0.6128 C   0  0  0  0  0  0  0  0  0  0  0  0
    0.5197   -2.2208   -0.1239 H   0  0  0  0  0  0  0  0  0  0  0  0
    1.5596   -0.9473    0.5181 H   0  0  0  0  0  0  0  0  0  0  0  0
    0.4694   -2.0208    1.9892 C   0  0  0  0  0  0  0  0  0  0  0  0
    0.8123   -1.4109    3.1769 N   0  0  0  0  0  0  0  0  0  0  0  0
    1.2536   -0.5090    3.2768 H   0  0  0  0  0  0  0  0  0  0  0  0
    0.4607   -2.2307    4.1817 C   0  0  0  0  0  0  0  0  0  0  0  0
    0.6088   -2.0286    5.2355 H   0  0  0  0  0  0  0  0  0  0  0  0
   -0.1080   -3.3437    3.6957 N   0  0  0  0  0  0  0  0  0  0  0  0
   -0.1044   -3.2238    2.3035 C   0  0  0  0  0  0  0  0  0  0  0  0
   -0.5146   -3.9365    1.5997 H   0  0  0  0  0  0  0  0  0  0  0  0
   -0.2661    0.3483   -1.0279 C   0  0  0  0  0  0  0  0  0  0  0  0
    0.0264   -0.2965   -2.0347 O   0  0  0  0  0  0  0  0  0  0  0  0
   -0.3682    1.6832   -1.0350 N   0  0  0  0  0  0  0  0  0  0  0  0
   -0.5581    2.1434   -0.1569 H   0  0  0  0  0  0  0  0  0  0  0  0
   -0.1740    2.5194   -2.2166 C   0  0  0  0  0  0  0  0  0  0  0  0
   -0.8951    2.2413   -2.9886 H   0  0  0  0  0  0  0  0  0  0  0  0
   -0.3117    3.5700   -1.9591 H   0  0  0  0  0  0  0  0  0  0  0  0
    0.8324    2.3745   -2.6123 H   0  0  0  0  0  0  0  0  0  0  0  0
  5  6  2  0  0  0  0
  5  7  1  0  0  0  0
  2  3  1  0  0  0  0
  2  4  1  0  0  0  0
  2  5  1  0  0  0  0
  1  2  1  0  0  0  0
 22 23  2  0  0  0  0
 22 24  1  0  0  0  0
 20 21  1  0  0  0  0
 19 20  1  0  0  0  0
 17 18  1  0  0  0  0
 17 19  2  0  0  0  0
 15 16  1  0  0  0  0
 15 17  1  0  0  0  0
 14 15  1  0  0  0  0
 14 20  2  0  0  0  0
 11 12  1  0  0  0  0
 11 13  1  0  0  0  0
 11 14  1  0  0  0  0
  9 10  1  0  0  0  0
  9 11  1  0  0  0  0
  9 22  1  0  0  0  0
  7  8  1  0  0  0  0
  7  9  1  0  0  0  0
 26 27  1  0  0  0  0
 26 28  1  0  0  0  0
 26 29  1  0  0  0  0
 24 25  1  0  0  0  0
 24 26  1  0  0  0  0
M  END
$$$$
default_name
  -OEChem-01062215323D

 29 29  0     1  0  0  0  0  0999 V2000
   -3.6042   -3.5728    1.4576 H   0  0  0  0  0  0  0  0  0  0  0  0
   -3.5202   -2.6488    0.8866 C   0  0  0  0  0  0  0  0  0  0  0  0
   -4.2052   -1.9048    1.2896 H   0  0  0  0  0  0  0  0  0  0  0  0
   -3.7552   -2.8428   -0.1584 H   0  0  0  0  0  0  0  0  0  0  0  0
   -2.1052   -2.1358    0.9946 C   0  0  0  0  0  0  0  0  0  0  0  0
   -1.2852   -2.7288    1.6826 O   0  0  0  0  0  0  0  0  0  0  0  0
   -1.8202   -1.0288    0.3146 N   0  0  0  0  0  0  0  0  0  0  0  0
   -2.5542   -0.5788   -0.2104 H   0  0  0  0  0  0  0  0  0  0  0  0
   -0.5102   -0.3728    0.3086 C   0  0  1  0  0  0  0  0  0  0  0  0
   -0.4913    0.3772    1.1007 H   0  0  0  0  0  0  0  0  0  0  0  0
    0.5791   -1.4177    0.6128 C   0  0  0  0  0  0  0  0  0  0  0  0
    0.5197   -2.2208   -0.1239 H   0  0  0  0  0  0  0  0  0  0  0  0
    1.5596   -0.9473    0.5181 H   0  0  0  0  0  0  0  0  0  0  0  0
    0.4694   -2.0208    1.9892 C   0  0  0  0  0  0  0  0  0  0  0  0
    0.8123   -1.4109    3.1769 N   0  0  0  0  0  0  0  0  0  0  0  0
    1.2536   -0.5090    3.2768 H   0  0  0  0  0  0  0  0  0  0  0  0
    0.4607   -2.2307    4.1817 C   0  0  0  0  0  0  0  0  0  0  0  0
    0.6088   -2.0286    5.2355 H   0  0  0  0  0  0  0  0  0  0  0  0
   -0.1080   -3.3437    3.6957 N   0  0  0  0  0  0  0  0  0  0  0  0
   -0.1044   -3.2238    2.3035 C   0  0  0  0  0  0  0  0  0  0  0  0
   -0.5146   -3.9365    1.5997 H   0  0  0  0  0  0  0  0  0  0  0  0
   -0.2661    0.3483   -1.0279 C   0  0  0  0  0  0  0  0  0  0  0  0
   -0.2474   -0.2890   -2.0807 O   0  0  0  0  0  0  0  0  0  0  0  0
   -0.0620    1.6708   -0.9858 N   0  0  0  0  0  0  0  0  0  0  0  0
   -0.0385    2.1128   -0.0785 H   0  0  0  0  0  0  0  0  0  0  0  0
    0.1780    2.5066   -2.1592 C   0  0  0  0  0  0  0  0  0  0  0  0
   -0.6724    2.4386   -2.8414 H   0  0  0  0  0  0  0  0  0  0  0  0
    0.3139    3.5457   -1.8580 H   0  0  0  0  0  0  0  0  0  0  0  0
    1.0720    2.1635   -2.6824 H   0  0  0  0  0  0  0  0  0  0  0  0
  5  6  2  0  0  0  0
  5  7  1  0  0  0  0
  2  3  1  0  0  0  0
  2  4  1  0  0  0  0
  2  5  1  0  0  0  0
  1  2  1  0  0  0  0
 22 23  2  0  0  0  0
 22 24  1  0  0  0  0
 20 21  1  0  0  0  0
 19 20  1  0  0  0  0
 17 18  1  0  0  0  0
 17 19  2  0  0  0  0
 15 16  1  0  0  0  0
 15 17  1  0  0  0  0
 14 15  1  0  0  0  0
 14 20  2  0  0  0  0
 11 12  1  0  0  0  0
 11 13  1  0  0  0  0
 11 14  1  0  0  0  0
  9 10  1  0  0  0  0
  9 11  1  0  0  0  0
  9 22  1  0  0  0  0
  7  8  1  0  0  0  0
  7  9  1  0  0  0  0
 26 27  1  0  0  0  0
 26 28  1  0  0  0  0
 26 29  1  0  0  0  0
 24 25  1  0  0  0  0
 24 26  1  0  0  0  0
M  END
$$$$
default_name
  -OEChem-01062215323D

 29 29  0     1  0  0  0  0  0999 V2000
   -3.6042   -3.5728    1.4576 H   0  0  0  0  0  0  0  0  0  0  0  0
   -3.5202   -2.6488    0.8866 C   0  0  0  0  0  0  0  0  0  0  0  0
   -4.2052   -1.9048    1.2896 H   0  0  0  0  0  0  0  0  0  0  0  0
   -3.7552   -2.8428   -0.1584 H   0  0  0  0  0  0  0  0  0  0  0  0
   -2.1052   -2.1358    0.9946 C   0  0  0  0  0  0  0  0  0  0  0  0
   -1.2852   -2.7288    1.6826 O   0  0  0  0  0  0  0  0  0  0  0  0
   -1.8202   -1.0288    0.3146 N   0  0  0  0  0  0  0  0  0  0  0  0
   -2.5542   -0.5788   -0.2104 H   0  0  0  0  0  0  0  0  0  0  0  0
   -0.5102   -0.3728    0.3086 C   0  0  1  0  0  0  0  0  0  0  0  0
   -0.4913    0.3772    1.1007 H   0  0  0  0  0  0  0  0  0  0  0  0
    0.5791   -1.4177    0.6128 C   0  0  0  0  0  0  0  0  0  0  0  0
    0.5197   -2.2208   -0.1239 H   0  0  0  0  0  0  0  0  0  0  0  0
    1.5596   -0.9473    0.5181 H   0  0  0  0  0  0  0  0  0  0  0  0
    0.4694   -2.0208    1.9892 C   0  0  0  0  0  0  0  0  0  0  0  0
    0.8123   -1.4109    3.1769 N   0  0  0  0  0  0  0  0  0  0  0  0
    1.2536   -0.5090    3.2768 H   0  0  0  0  0  0  0  0  0  0  0  0
    0.4607   -2.2307    4.1817 C   0  0  0  0  0  0  0  0  0  0  0  0
    0.6088   -2.0286    5.2355 H   0  0  0  0  0  0  0  0  0  0  0  0
   -0.1080   -3.3437    3.6957 N   0  0  0  0  0  0  0  0  0  0  0  0
   -0.1044   -3.2238    2.3035 C   0  0  0  0  0  0  0  0  0  0  0  0
   -0.5146   -3.9365    1.5997 H   0  0  0  0  0  0  0  0  0  0  0  0
   -0.2661    0.3483   -1.0279 C   0  0  0  0  0  0  0  0  0  0  0  0
   -0.5158   -0.2184   -2.0916 O   0  0  0  0  0  0  0  0  0  0  0  0
    0.2369    1.5880   -0.9759 N   0  0  0  0  0  0  0  0  0  0  0  0
    0.4659    1.9631   -0.0671 H   0  0  0  0  0  0  0  0  0  0  0  0
    0.5222    2.4126   -2.1471 C   0  0  0  0  0  0  0  0  0  0  0  0
   -0.3950    2.5730   -2.7182 H   0  0  0  0  0  0  0  0  0  0  0  0
    0.9250    3.3773   -1.8371 H   0  0  0  0  0  0  0  0  0  0  0  0
    1.2474    1.9086   -2.7879 H   0  0  0  0  0  0  0  0  0  0  0  0
  5  6  2  0  0  0  0
  5  7  1  0  0  0  0
  2  3  1  0  0  0  0
  2  4  1  0  0  0  0
  2  5  1  0  0  0  0
  1  2  1  0  0  0  0
 22 23  2  0  0  0  0
 22 24  1  0  0  0  0
 20 21  1  0  0  0  0
 19 20  1  0  0  0  0
 17 18  1  0  0  0  0
 17 19  2  0  0  0  0
 15 16  1  0  0  0  0
 15 17  1  0  0  0  0
 14 15  1  0  0  0  0
 14 20  2  0  0  0  0
 11 12  1  0  0  0  0
 11 13  1  0  0  0  0
 11 14  1  0  0  0  0
  9 10  1  0  0  0  0
  9 11  1  0  0  0  0
  9 22  1  0  0  0  0
  7  8  1  0  0  0  0
  7  9  1  0  0  0  0
 26 27  1  0  0  0  0
 26 28  1  0  0  0  0
 26 29  1  0  0  0  0
 24 25  1  0  0  0  0
 24 26  1  0  0  0  0
M  END
$$$$
default_name
  -OEChem-01062215323D

 29 29  0     1  0  0  0  0  0999 V2000
   -3.6042   -3.5728    1.4576 H   0  0  0  0  0  0  0  0  0  0  0  0
   -3.5202   -2.6488    0.8866 C   0  0  0  0  0  0  0  0  0  0  0  0
   -4.2052   -1.9048    1.2896 H   0  0  0  0  0  0  0  0  0  0  0  0
   -3.7552   -2.8428   -0.1584 H   0  0  0  0  0  0  0  0  0  0  0  0
   -2.1052   -2.1358    0.9946 C   0  0  0  0  0  0  0  0  0  0  0  0
   -1.2852   -2.7288    1.6826 O   0  0  0  0  0  0  0  0  0  0  0  0
   -1.8202   -1.0288    0.3146 N   0  0  0  0  0  0  0  0  0  0  0  0
   -2.5542   -0.5788   -0.2104 H   0  0  0  0  0  0  0  0  0  0  0  0
   -0.5102   -0.3728    0.3086 C   0  0  1  0  0  0  0  0  0  0  0  0
   -0.4913    0.3772    1.1007 H   0  0  0  0  0  0  0  0  0  0  0  0
    0.5791   -1.4177    0.6128 C   0  0  0  0  0  0  0  0  0  0  0  0
    0.5197   -2.2208   -0.1239 H   0  0  0  0  0  0  0  0  0  0  0  0
    1.5596   -0.9473    0.5181 H   0  0  0  0  0  0  0  0  0  0  0  0
    0.4694   -2.0208    1.9892 C   0  0  0  0  0  0  0  0  0  0  0  0
    0.8123   -1.4109    3.1769 N   0  0  0  0  0  0  0  0  0  0  0  0
    1.2536   -0.5090    3.2768 H   0  0  0  0  0  0  0  0  0  0  0  0
    0.4607   -2.2307    4.1817 C   0  0  0  0  0  0  0  0  0  0  0  0
    0.6088   -2.0286    5.2355 H   0  0  0  0  0  0  0  0  0  0  0  0
   -0.1080   -3.3437    3.6957 N   0  0  0  0  0  0  0  0  0  0  0  0
   -0.1044   -3.2238    2.3035 C   0  0  0  0  0  0  0  0  0  0  0  0
   -0.5146   -3.9365    1.5997 H   0  0  0  0  0  0  0  0  0  0  0  0
   -0.2661    0.3483   -1.0279 C   0  0  0  0  0  0  0  0  0  0  0  0
   -0.7604   -0.0893   -2.0666 O   0  0  0  0  0  0  0  0  0  0  0  0
    0.5082    1.4403   -1.0060 N   0  0  0  0  0  0  0  0  0  0  0  0
    0.9209    1.7046   -0.1235 H   0  0  0  0  0  0  0  0  0  0  0  0
    0.8350    2.2440   -2.1809 C   0  0  0  0  0  0  0  0  0  0  0  0
   -0.0819    2.6354   -2.6274 H   0  0  0  0  0  0  0  0  0  0  0  0
    1.4800    3.0764   -1.8981 H   0  0  0  0  0  0  0  0  0  0  0  0
    1.3467    1.6274   -2.9215 H   0  0  0  0  0  0  0  0  0  0  0  0
  5  6  2  0  0  0  0
  5  7  1  0  0  0  0
  2  3  1  0  0  0  0
  2  4  1  0  0  0  0
  2  5  1  0  0  0  0
  1  2  1  0  0  0  0
 22 23  2  0  0  0  0
 22 24  1  0  0  0  0
 20 21  1  0  0  0  0
 19 20  1  0  0  0  0
 17 18  1  0  0  0  0
 17 19  2  0  0  0  0
 15 16  1  0  0  0  0
 15 17  1  0  0  0  0
 14 15  1  0  0  0  0
 14 20  2  0  0  0  0
 11 12  1  0  0  0  0
 11 13  1  0  0  0  0
 11 14  1  0  0  0  0
  9 10  1  0  0  0  0
  9 11  1  0  0  0  0
  9 22  1  0  0  0  0
  7  8  1  0  0  0  0
  7  9  1  0  0  0  0
 26 27  1  0  0  0  0
 26 28  1  0  0  0  0
 26 29  1  0  0  0  0
 24 25  1  0  0  0  0
 24 26  1  0  0  0  0
M  END
$$$$
default_name
  -OEChem-01062215323D

 29 29  0     1  0  0  0  0  0999 V2000
   -3.6042   -3.5728    1.4576 H   0  0  0  0  0  0  0  0  0  0  0  0
   -3.5202   -2.6488    0.8866 C   0  0  0  0  0  0  0  0  0  0  0  0
   -4.2052   -1.9048    1.2896 H   0  0  0  0  0  0  0  0  0  0  0  0
   -3.7552   -2.8428   -0.1584 H   0  0  0  0  0  0  0  0  0  0  0  0
   -2.1052   -2.1358    0.9946 C   0  0  0  0  0  0  0  0  0  0  0  0
   -1.2852   -2.7288    1.6826 O   0  0  0  0  0  0  0  0  0  0  0  0
   -1.8202   -1.0288    0.3146 N   0  0  0  0  0  0  0  0  0  0  0  0
   -2.5542   -0.5788   -0.2104 H   0  0  0  0  0  0  0  0  0  0  0  0
   -0.5102   -0.3728    0.3086 C   0  0  1  0  0  0  0  0  0  0  0  0
   -0.4913    0.3772    1.1007 H   0  0  0  0  0  0  0  0  0  0  0  0
    0.5791   -1.4177    0.6128 C   0  0  0  0  0  0  0  0  0  0  0  0
    0.5197   -2.2208   -0.1239 H   0  0  0  0  0  0  0  0  0  0  0  0
    1.5596   -0.9473    0.5181 H   0  0  0  0  0  0  0  0  0  0  0  0
    0.4694   -2.0208    1.9892 C   0  0  0  0  0  0  0  0  0  0  0  0
    0.8123   -1.4109    3.1769 N   0  0  0  0  0  0  0  0  0  0  0  0
    1.2536   -0.5090    3.2768 H   0  0  0  0  0  0  0  0  0  0  0  0
    0.4607   -2.2307    4.1817 C   0  0  0  0  0  0  0  0  0  0  0  0
    0.6088   -2.0286    5.2355 H   0  0  0  0  0  0  0  0  0  0  0  0
   -0.1080   -3.3437    3.6957 N   0  0  0  0  0  0  0  0  0  0  0  0
   -0.1044   -3.2238    2.3035 C   0  0  0  0  0  0  0  0  0  0  0  0
   -0.5146   -3.9365    1.5997 H   0  0  0  0  0  0  0  0  0  0  0  0
   -0.2661    0.3483   -1.0279 C   0  0  0  0  0  0  0  0  0  0  0  0
   -0.9647    0.0893   -2.0076 O   0  0  0  0  0  0  0  0  0  0  0  0
    0.7334    1.2379   -1.0740 N   0  0  0  0  0  0  0  0  0  0  0  0
    1.2954    1.3549   -0.2437 H   0  0  0  0  0  0  0  0  0  0  0  0
    1.0950    2.0121   -2.2585 C   0  0  0  0  0  0  0  0  0  0  0  0
    0.2456    2.6216   -2.5750 H   0  0  0  0  0  0  0  0  0  0  0  0
    1.9409    2.6635   -2.0367 H   0  0  0  0  0  0  0  0  0  0  0  0
    1.3632    1.3388   -3.0741 H   0  0  0  0  0  0  0  0  0  0  0  0
  5  6  2  0  0  0  0
  5  7  1  0  0  0  0
  2  3  1  0  0  0  0
  2  4  1  0  0  0  0
  2  5  1  0  0  0  0
  1  2  1  0  0  0  0
 22 23  2  0  0  0  0
 22 24  1  0  0  0  0
 20 21  1  0  0  0  0
 19 20  1  0  0  0  0
 17 18  1  0  0  0  0
 17 19  2  0  0  0  0
 15 16  1  0  0  0  0
 15 17  1  0  0  0  0
 14 15  1  0  0  0  0
 14 20  2  0  0  0  0
 11 12  1  0  0  0  0
 11 13  1  0  0  0  0
 11 14  1  0  0  0  0
  9 10  1  0  0  0  0
  9 11  1  0  0  0  0
  9 22  1  0  0  0  0
  7  8  1  0  0  0  0
  7  9  1  0  0  0  0
 26 27  1  0  0  0  0
 26 28  1  0  0  0  0
 26 29  1  0  0  0  0
 24 25  1  0  0  0  0
 24 26  1  0  0  0  0
M  END
$$$$
default_name
  -OEChem-01062215323D

 29 29  0     1  0  0  0  0  0999 V2000
   -3.6042   -3.5728    1.4576 H   0  0  0  0  0  0  0  0  0  0  0  0
   -3.5202   -2.6488    0.8866 C   0  0  0  0  0  0  0  0  0  0  0  0
   -4.2052   -1.9048    1.2896 H   0  0  0  0  0  0  0  0  0  0  0  0
   -3.7552   -2.8428   -0.1584 H   0  0  0  0  0  0  0  0  0  0  0  0
   -2.1052   -2.1358    0.9946 C   0  0  0  0  0  0  0  0  0  0  0  0
   -1.2852   -2.7288    1.6826 O   0  0  0  0  0  0  0  0  0  0  0  0
   -1.8202   -1.0288    0.3146 N   0  0  0  0  0  0  0  0  0  0  0  0
   -2.5542   -0.5788   -0.2104 H   0  0  0  0  0  0  0  0  0  0  0  0
   -0.5102   -0.3728    0.3086 C   0  0  1  0  0  0  0  0  0  0  0  0
   -0.3887    0.1737    1.2450 H   0  0  0  0  0  0  0  0  0  0  0  0
    0.5916   -1.4459    0.2343 C   0  0  0  0  0  0  0  0  0  0  0  0
    0.4354   -2.0574   -0.6562 H   0  0  0  0  0  0  0  0  0  0  0  0
    1.5612   -0.9541    0.1379 H   0  0  0  0  0  0  0  0  0  0  0  0
    0.6331   -2.3526    1.4370 C   0  0  0  0  0  0  0  0  0  0  0  0
    1.1200   -2.0299    2.6855 N   0  0  0  0  0  0  0  0  0  0  0  0
    1.5832   -1.1702    2.9395 H   0  0  0  0  0  0  0  0  0  0  0  0
    0.8751   -3.0645    3.5072 C   0  0  0  0  0  0  0  0  0  0  0  0
    1.1472   -3.1099    4.5547 H   0  0  0  0  0  0  0  0  0  0  0  0
    0.2376   -4.0417    2.8463 N   0  0  0  0  0  0  0  0  0  0  0  0
    0.0819   -3.6029    1.5288 C   0  0  0  0  0  0  0  0  0  0  0  0
   -0.4175   -4.1383    0.7317 H   0  0  0  0  0  0  0  0  0  0  0  0
   -0.4119    0.6411   -0.8439 C   0  0  0  0  0  0  0  0  0  0  0  0
   -1.3583    0.7948   -1.6155 O   0  0  0  0  0  0  0  0  0  0  0  0
    0.7358    1.3185   -0.9718 N   0  0  0  0  0  0  0  0  0  0  0  0
    1.4848    1.0968   -0.3323 H   0  0  0  0  0  0  0  0  0  0  0  0
    0.9928    2.3192   -2.0042 C   0  0  0  0  0  0  0  0  0  0  0  0
    0.2679    3.1319   -1.9194 H   0  0  0  0  0  0  0  0  0  0  0  0
    1.9994    2.7233   -1.8923 H   0  0  0  0  0  0  0  0  0  0  0  0
    0.8942    1.8667   -2.9921 H   0  0  0  0  0  0  0  0  0  0  0  0
  5  6  2  0  0  0  0
  5  7  1  0  0  0  0
  2  3  1  0  0  0  0
  2  4  1  0  0  0  0
  2  5  1  0  0  0  0
  1  2  1  0  0  0  0
 22 23  2  0  0  0  0
 22 24  1  0  0  0  0
 20 21  1  0  0  0  0
 19 20  1  0  0  0  0
 17 18  1  0  0  0  0
 17 19  2  0  0  0  0
 15 16  1  0  0  0  0
 15 17  1  0  0  0  0
 14 15  1  0  0  0  0
 14 20  2  0  0  0  0
 11 12  1  0  0  0  0
 11 13  1  0  0  0  0
 11 14  1  0  0  0  0
  9 10  1  0  0  0  0
  9 11  1  0  0  0  0
  9 22  1  0  0  0  0
  7  8  1  0  0  0  0
  7  9  1  0  0  0  0
 26 27  1  0  0  0  0
 26 28  1  0  0  0  0
 26 29  1  0  0  0  0
 24 25  1  0  0  0  0
 24 26  1  0  0  0  0
M  END
$$$$
default_name
  -OEChem-01062215323D

 29 29  0     1  0  0  0  0  0999 V2000
   -3.6042   -3.5728    1.4576 H   0  0  0  0  0  0  0  0  0  0  0  0
   -3.5202   -2.6488    0.8866 C   0  0  0  0  0  0  0  0  0  0  0  0
   -4.2052   -1.9048    1.2896 H   0  0  0  0  0  0  0  0  0  0  0  0
   -3.7552   -2.8428   -0.1584 H   0  0  0  0  0  0  0  0  0  0  0  0
   -2.1052   -2.1358    0.9946 C   0  0  0  0  0  0  0  0  0  0  0  0
   -1.2852   -2.7288    1.6826 O   0  0  0  0  0  0  0  0  0  0  0  0
   -1.8202   -1.0288    0.3146 N   0  0  0  0  0  0  0  0  0  0  0  0
   -2.5542   -0.5788   -0.2104 H   0  0  0  0  0  0  0  0  0  0  0  0
   -0.5102   -0.3728    0.3086 C   0  0  1  0  0  0  0  0  0  0  0  0
   -0.3887    0.1737    1.2450 H   0  0  0  0  0  0  0  0  0  0  0  0
    0.5916   -1.4459    0.2343 C   0  0  0  0  0  0  0  0  0  0  0  0
    0.4354   -2.0574   -0.6562 H   0  0  0  0  0  0  0  0  0  0  0  0
    1.5612   -0.9541    0.1379 H   0  0  0  0  0  0  0  0  0  0  0  0
    0.6331   -2.3526    1.4370 C   0  0  0  0  0  0  0  0  0  0  0  0
    1.1200   -2.0299    2.6855 N   0  0  0  0  0  0  0  0  0  0  0  0
    1.5832   -1.1702    2.9395 H   0  0  0  0  0  0  0  0  0  0  0  0
    0.8751   -3.0645    3.5072 C   0  0  0  0  0  0  0  0  0  0  0  0
    1.1472   -3.1099    4.5547 H   0  0  0  0  0  0  0  0  0  0  0  0
    0.2376   -4.0417    2.8463 N   0  0  0  0  0  0  0  0  0  0  0  0
    0.0819   -3.6029    1.5288 C   0  0  0  0  0  0  0  0  0  0  0  0
   -0.4175   -4.1383    0.7317 H   0  0  0  0  0  0  0  0  0  0  0  0
   -0.4119    0.6411   -0.8439 C   0  0  0  0  0  0  0  0  0  0  0  0
   -1.4266    0.9998   -1.4410 O   0  0  0  0  0  0  0  0  0  0  0  0
    0.8076    1.0888   -1.1677 N   0  0  0  0  0  0  0  0  0  0  0  0
    1.5958    0.7058   -0.6668 H   0  0  0  0  0  0  0  0  0  0  0  0
    1.0769    2.0552   -2.2292 C   0  0  0  0  0  0  0  0  0  0  0  0
    0.5497    2.9890   -2.0211 H   0  0  0  0  0  0  0  0  0  0  0  0
    2.1472    2.2540   -2.2925 H   0  0  0  0  0  0  0  0  0  0  0  0
    0.7263    1.6634   -3.1853 H   0  0  0  0  0  0  0  0  0  0  0  0
  5  6  2  0  0  0  0
  5  7  1  0  0  0  0
  2  3  1  0  0  0  0
  2  4  1  0  0  0  0
  2  5  1  0  0  0  0
  1  2  1  0  0  0  0
 22 23  2  0  0  0  0
 22 24  1  0  0  0  0
 20 21  1  0  0  0  0
 19 20  1  0  0  0  0
 17 18  1  0  0  0  0
 17 19  2  0  0  0  0
 15 16  1  0  0  0  0
 15 17  1  0  0  0  0
 14 15  1  0  0  0  0
 14 20  2  0  0  0  0
 11 12  1  0  0  0  0
 11 13  1  0  0  0  0
 11 14  1  0  0  0  0
  9 10  1  0  0  0  0
  9 11  1  0  0  0  0
  9 22  1  0  0  0  0
  7  8  1  0  0  0  0
  7  9  1  0  0  0  0
 26 27  1  0  0  0  0
 26 28  1  0  0  0  0
 26 29  1  0  0  0  0
 24 25  1  0  0  0  0
 24 26  1  0  0  0  0
M  END
$$$$
default_name
  -OEChem-01062215323D

 29 29  0     1  0  0  0  0  0999 V2000
   -3.6042   -3.5728    1.4576 H   0  0  0  0  0  0  0  0  0  0  0  0
   -3.5202   -2.6488    0.8866 C   0  0  0  0  0  0  0  0  0  0  0  0
   -4.2052   -1.9048    1.2896 H   0  0  0  0  0  0  0  0  0  0  0  0
   -3.7552   -2.8428   -0.1584 H   0  0  0  0  0  0  0  0  0  0  0  0
   -2.1052   -2.1358    0.9946 C   0  0  0  0  0  0  0  0  0  0  0  0
   -1.2852   -2.7288    1.6826 O   0  0  0  0  0  0  0  0  0  0  0  0
   -1.8202   -1.0288    0.3146 N   0  0  0  0  0  0  0  0  0  0  0  0
   -2.5542   -0.5788   -0.2104 H   0  0  0  0  0  0  0  0  0  0  0  0
   -0.5102   -0.3728    0.3086 C   0  0  1  0  0  0  0  0  0  0  0  0
   -0.3887    0.1737    1.2450 H   0  0  0  0  0  0  0  0  0  0  0  0
    0.5916   -1.4459    0.2343 C   0  0  0  0  0  0  0  0  0  0  0  0
    0.4354   -2.0574   -0.6562 H   0  0  0  0  0  0  0  0  0  0  0  0
    1.5612   -0.9541    0.1379 H   0  0  0  0  0  0  0  0  0  0  0  0
    0.6331   -2.3526    1.4370 C   0  0  0  0  0  0  0  0  0  0  0  0
    1.1200   -2.0299    2.6855 N   0  0  0  0  0  0  0  0  0  0  0  0
    1.5832   -1.1702    2.9395 H   0  0  0  0  0  0  0  0  0  0  0  0
    0.8751   -3.0645    3.5072 C   0  0  0  0  0  0  0  0  0  0  0  0
    1.1472   -3.1099    4.5547 H   0  0  0  0  0  0  0  0  0  0  0  0
    0.2376   -4.0417    2.8463 N   0  0  0  0  0  0  0  0  0  0  0  0
    0.0819   -3.6029    1.5288 C   0  0  0  0  0  0  0  0  0  0  0  0
   -0.4175   -4.1383    0.7317 H   0  0  0  0  0  0  0  0  0  0  0  0
   -0.4119    0.6411   -0.8439 C   0  0  0  0  0  0  0  0  0  0  0  0
   -1.4229    1.2081   -1.2574 O   0  0  0  0  0  0  0  0  0  0  0  0
    0.7990    0.8563   -1.3731 N   0  0  0  0  0  0  0  0  0  0  0  0
    1.5703    0.3122   -1.0152 H   0  0  0  0  0  0  0  0  0  0  0  0
    1.0686    1.7876   -2.4653 C   0  0  0  0  0  0  0  0  0  0  0  0
    0.7768    2.7980   -2.1698 H   0  0  0  0  0  0  0  0  0  0  0  0
    2.1307    1.7787   -2.7121 H   0  0  0  0  0  0  0  0  0  0  0  0
    0.4917    1.5028   -3.3466 H   0  0  0  0  0  0  0  0  0  0  0  0
  5  6  2  0  0  0  0
  5  7  1  0  0  0  0
  2  3  1  0  0  0  0
  2  4  1  0  0  0  0
  2  5  1  0  0  0  0
  1  2  1  0  0  0  0
 22 23  2  0  0  0  0
 22 24  1  0  0  0  0
 20 21  1  0  0  0  0
 19 20  1  0  0  0  0
 17 18  1  0  0  0  0
 17 19  2  0  0  0  0
 15 16  1  0  0  0  0
 15 17  1  0  0  0  0
 14 15  1  0  0  0  0
 14 20  2  0  0  0  0
 11 12  1  0  0  0  0
 11 13  1  0  0  0  0
 11 14  1  0  0  0  0
  9 10  1  0  0  0  0
  9 11  1  0  0  0  0
  9 22  1  0  0  0  0
  7  8  1  0  0  0  0
  7  9  1  0  0  0  0
 26 27  1  0  0  0  0
 26 28  1  0  0  0  0
 26 29  1  0  0  0  0
 24 25  1  0  0  0  0
 24 26  1  0  0  0  0
M  END
$$$$
default_name
  -OEChem-01062215323D

 29 29  0     1  0  0  0  0  0999 V2000
   -3.6042   -3.5728    1.4576 H   0  0  0  0  0  0  0  0  0  0  0  0
   -3.5202   -2.6488    0.8866 C   0  0  0  0  0  0  0  0  0  0  0  0
   -4.2052   -1.9048    1.2896 H   0  0  0  0  0  0  0  0  0  0  0  0
   -3.7552   -2.8428   -0.1584 H   0  0  0  0  0  0  0  0  0  0  0  0
   -2.1052   -2.1358    0.9946 C   0  0  0  0  0  0  0  0  0  0  0  0
   -1.2852   -2.7288    1.6826 O   0  0  0  0  0  0  0  0  0  0  0  0
   -1.8202   -1.0288    0.3146 N   0  0  0  0  0  0  0  0  0  0  0  0
   -2.5542   -0.5788   -0.2104 H   0  0  0  0  0  0  0  0  0  0  0  0
   -0.5102   -0.3728    0.3086 C   0  0  1  0  0  0  0  0  0  0  0  0
   -0.3887    0.1737    1.2450 H   0  0  0  0  0  0  0  0  0  0  0  0
    0.5916   -1.4459    0.2343 C   0  0  0  0  0  0  0  0  0  0  0  0
    0.4354   -2.0574   -0.6562 H   0  0  0  0  0  0  0  0  0  0  0  0
    1.5612   -0.9541    0.1379 H   0  0  0  0  0  0  0  0  0  0  0  0
    0.6331   -2.3526    1.4370 C   0  0  0  0  0  0  0  0  0  0  0  0
    1.1200   -2.0299    2.6855 N   0  0  0  0  0  0  0  0  0  0  0  0
    1.5832   -1.1702    2.9395 H   0  0  0  0  0  0  0  0  0  0  0  0
    0.8751   -3.0645    3.5072 C   0  0  0  0  0  0  0  0  0  0  0  0
    1.1472   -3.1099    4.5547 H   0  0  0  0  0  0  0  0  0  0  0  0
    0.2376   -4.0417    2.8463 N   0  0  0  0  0  0  0  0  0  0  0  0
    0.0819   -3.6029    1.5288 C   0  0  0  0  0  0  0  0  0  0  0  0
   -0.4175   -4.1383    0.7317 H   0  0  0  0  0  0  0  0  0  0  0  0
   -0.4119    0.6411   -0.8439 C   0  0  0  0  0  0  0  0  0  0  0  0
   -1.3477    1.4056   -1.0772 O   0  0  0  0  0  0  0  0  0  0  0  0
    0.7105    0.6367   -1.5738 N   0  0  0  0  0  0  0  0  0  0  0  0
    1.4098   -0.0573   -1.3540 H   0  0  0  0  0  0  0  0  0  0  0  0
    0.9683    1.5347   -2.6964 C   0  0  0  0  0  0  0  0  0  0  0  0
    0.9338    2.5718   -2.3553 H   0  0  0  0  0  0  0  0  0  0  0  0
    1.9509    1.3298   -3.1224 H   0  0  0  0  0  0  0  0  0  0  0  0
    0.2065    1.3958   -3.4651 H   0  0  0  0  0  0  0  0  0  0  0  0
  5  6  2  0  0  0  0
  5  7  1  0  0  0  0
  2  3  1  0  0  0  0
  2  4  1  0  0  0  0
  2  5  1  0  0  0  0
  1  2  1  0  0  0  0
 22 23  2  0  0  0  0
 22 24  1  0  0  0  0
 20 21  1  0  0  0  0
 19 20  1  0  0  0  0
 17 18  1  0  0  0  0
 17 19  2  0  0  0  0
 15 16  1  0  0  0  0
 15 17  1  0  0  0  0
 14 15  1  0  0  0  0
 14 20  2  0  0  0  0
 11 12  1  0  0  0  0
 11 13  1  0  0  0  0
 11 14  1  0  0  0  0
  9 10  1  0  0  0  0
  9 11  1  0  0  0  0
  9 22  1  0  0  0  0
  7  8  1  0  0  0  0
  7  9  1  0  0  0  0
 26 27  1  0  0  0  0
 26 28  1  0  0  0  0
 26 29  1  0  0  0  0
 24 25  1  0  0  0  0
 24 26  1  0  0  0  0
M  END
$$$$
default_name
  -OEChem-01062215323D

 29 29  0     1  0  0  0  0  0999 V2000
   -3.6042   -3.5728    1.4576 H   0  0  0  0  0  0  0  0  0  0  0  0
   -3.5202   -2.6488    0.8866 C   0  0  0  0  0  0  0  0  0  0  0  0
   -4.2052   -1.9048    1.2896 H   0  0  0  0  0  0  0  0  0  0  0  0
   -3.7552   -2.8428   -0.1584 H   0  0  0  0  0  0  0  0  0  0  0  0
   -2.1052   -2.1358    0.9946 C   0  0  0  0  0  0  0  0  0  0  0  0
   -1.2852   -2.7288    1.6826 O   0  0  0  0  0  0  0  0  0  0  0  0
   -1.8202   -1.0288    0.3146 N   0  0  0  0  0  0  0  0  0  0  0  0
   -2.5542   -0.5788   -0.2104 H   0  0  0  0  0  0  0  0  0  0  0  0
   -0.5102   -0.3728    0.3086 C   0  0  1  0  0  0  0  0  0  0  0  0
   -0.3887    0.1737    1.2450 H   0  0  0  0  0  0  0  0  0  0  0  0
    0.5916   -1.4459    0.2343 C   0  0  0  0  0  0  0  0  0  0  0  0
    0.4354   -2.0574   -0.6562 H   0  0  0  0  0  0  0  0  0  0  0  0
    1.5612   -0.9541    0.1379 H   0  0  0  0  0  0  0  0  0  0  0  0
    0.6331   -2.3526    1.4370 C   0  0  0  0  0  0  0  0  0  0  0  0
    1.1200   -2.0299    2.6855 N   0  0  0  0  0  0  0  0  0  0  0  0
    1.5832   -1.1702    2.9395 H   0  0  0  0  0  0  0  0  0  0  0  0
    0.8751   -3.0645    3.5072 C   0  0  0  0  0  0  0  0  0  0  0  0
    1.1472   -3.1099    4.5547 H   0  0  0  0  0  0  0  0  0  0  0  0
    0.2376   -4.0417    2.8463 N   0  0  0  0  0  0  0  0  0  0  0  0
    0.0819   -3.6029    1.5288 C   0  0  0  0  0  0  0  0  0  0  0  0
   -0.4175   -4.1383    0.7317 H   0  0  0  0  0  0  0  0  0  0  0  0
   -0.4119    0.6411   -0.8439 C   0  0  0  0  0  0  0  0  0  0  0  0
   -1.2060    1.5788   -0.9128 O   0  0  0  0  0  0  0  0  0  0  0  0
    0.5482    0.4451   -1.7562 N   0  0  0  0  0  0  0  0  0  0  0  0
    1.1254   -0.3775   -1.6599 H   0  0  0  0  0  0  0  0  0  0  0  0
    0.7831    1.3137   -2.9067 C   0  0  0  0  0  0  0  0  0  0  0  0
    1.0099    2.3261   -2.5651 H   0  0  0  0  0  0  0  0  0  0  0  0
    1.6203    0.9377   -3.4955 H   0  0  0  0  0  0  0  0  0  0  0  0
   -0.1099    1.3497   -3.5326 H   0  0  0  0  0  0  0  0  0  0  0  0
  5  6  2  0  0  0  0
  5  7  1  0  0  0  0
  2  3  1  0  0  0  0
  2  4  1  0  0  0  0
  2  5  1  0  0  0  0
  1  2  1  0  0  0  0
 22 23  2  0  0  0  0
 22 24  1  0  0  0  0
 20 21  1  0  0  0  0
 19 20  1  0  0  0  0
 17 18  1  0  0  0  0
 17 19  2  0  0  0  0
 15 16  1  0  0  0  0
 15 17  1  0  0  0  0
 14 15  1  0  0  0  0
 14 20  2  0  0  0  0
 11 12  1  0  0  0  0
 11 13  1  0  0  0  0
 11 14  1  0  0  0  0
  9 10  1  0  0  0  0
  9 11  1  0  0  0  0
  9 22  1  0  0  0  0
  7  8  1  0  0  0  0
  7  9  1  0  0  0  0
 26 27  1  0  0  0  0
 26 28  1  0  0  0  0
 26 29  1  0  0  0  0
 24 25  1  0  0  0  0
 24 26  1  0  0  0  0
M  END
$$$$
default_name
  -OEChem-01062215323D

 29 29  0     1  0  0  0  0  0999 V2000
   -3.6042   -3.5728    1.4576 H   0  0  0  0  0  0  0  0  0  0  0  0
   -3.5202   -2.6488    0.8866 C   0  0  0  0  0  0  0  0  0  0  0  0
   -4.2052   -1.9048    1.2896 H   0  0  0  0  0  0  0  0  0  0  0  0
   -3.7552   -2.8428   -0.1584 H   0  0  0  0  0  0  0  0  0  0  0  0
   -2.1052   -2.1358    0.9946 C   0  0  0  0  0  0  0  0  0  0  0  0
   -1.2852   -2.7288    1.6826 O   0  0  0  0  0  0  0  0  0  0  0  0
   -1.8202   -1.0288    0.3146 N   0  0  0  0  0  0  0  0  0  0  0  0
   -2.5542   -0.5788   -0.2104 H   0  0  0  0  0  0  0  0  0  0  0  0
   -0.5102   -0.3728    0.3086 C   0  0  1  0  0  0  0  0  0  0  0  0
   -0.3887    0.1737    1.2450 H   0  0  0  0  0  0  0  0  0  0  0  0
    0.5916   -1.4459    0.2343 C   0  0  0  0  0  0  0  0  0  0  0  0
    0.4354   -2.0574   -0.6562 H   0  0  0  0  0  0  0  0  0  0  0  0
    1.5612   -0.9541    0.1379 H   0  0  0  0  0  0  0  0  0  0  0  0
    0.6331   -2.3526    1.4370 C   0  0  0  0  0  0  0  0  0  0  0  0
    1.1200   -2.0299    2.6855 N   0  0  0  0  0  0  0  0  0  0  0  0
    1.5832   -1.1702    2.9395 H   0  0  0  0  0  0  0  0  0  0  0  0
    0.8751   -3.0645    3.5072 C   0  0  0  0  0  0  0  0  0  0  0  0
    1.1472   -3.1099    4.5547 H   0  0  0  0  0  0  0  0  0  0  0  0
    0.2376   -4.0417    2.8463 N   0  0  0  0  0  0  0  0  0  0  0  0
    0.0819   -3.6029    1.5288 C   0  0  0  0  0  0  0  0  0  0  0  0
   -0.4175   -4.1383    0.7317 H   0  0  0  0  0  0  0  0  0  0  0  0
   -0.4119    0.6411   -0.8439 C   0  0  0  0  0  0  0  0  0  0  0  0
   -1.0075    1.7159   -0.7752 O   0  0  0  0  0  0  0  0  0  0  0  0
    0.3232    0.2945   -1.9079 N   0  0  0  0  0  0  0  0  0  0  0  0
    0.7363   -0.6265   -1.9122 H   0  0  0  0  0  0  0  0  0  0  0  0
    0.5253    1.1395   -3.0819 C   0  0  0  0  0  0  0  0  0  0  0  0
    1.0000    2.0774   -2.7847 H   0  0  0  0  0  0  0  0  0  0  0  0
    1.1612    0.6294   -3.8059 H   0  0  0  0  0  0  0  0  0  0  0  0
   -0.4361    1.3677   -3.5446 H   0  0  0  0  0  0  0  0  0  0  0  0
  5  6  2  0  0  0  0
  5  7  1  0  0  0  0
  2  3  1  0  0  0  0
  2  4  1  0  0  0  0
  2  5  1  0  0  0  0
  1  2  1  0  0  0  0
 22 23  2  0  0  0  0
 22 24  1  0  0  0  0
 20 21  1  0  0  0  0
 19 20  1  0  0  0  0
 17 18  1  0  0  0  0
 17 19  2  0  0  0  0
 15 16  1  0  0  0  0
 15 17  1  0  0  0  0
 14 15  1  0  0  0  0
 14 20  2  0  0  0  0
 11 12  1  0  0  0  0
 11 13  1  0  0  0  0
 11 14  1  0  0  0  0
  9 10  1  0  0  0  0
  9 11  1  0  0  0  0
  9 22  1  0  0  0  0
  7  8  1  0  0  0  0
  7  9  1  0  0  0  0
 26 27  1  0  0  0  0
 26 28  1  0  0  0  0
 26 29  1  0  0  0  0
 24 25  1  0  0  0  0
 24 26  1  0  0  0  0
M  END
$$$$
default_name
  -OEChem-01062215323D

 29 29  0     1  0  0  0  0  0999 V2000
   -3.6042   -3.5728    1.4576 H   0  0  0  0  0  0  0  0  0  0  0  0
   -3.5202   -2.6488    0.8866 C   0  0  0  0  0  0  0  0  0  0  0  0
   -4.2052   -1.9048    1.2896 H   0  0  0  0  0  0  0  0  0  0  0  0
   -3.7552   -2.8428   -0.1584 H   0  0  0  0  0  0  0  0  0  0  0  0
   -2.1052   -2.1358    0.9946 C   0  0  0  0  0  0  0  0  0  0  0  0
   -1.2852   -2.7288    1.6826 O   0  0  0  0  0  0  0  0  0  0  0  0
   -1.8202   -1.0288    0.3146 N   0  0  0  0  0  0  0  0  0  0  0  0
   -2.5542   -0.5788   -0.2104 H   0  0  0  0  0  0  0  0  0  0  0  0
   -0.5102   -0.3728    0.3086 C   0  0  1  0  0  0  0  0  0  0  0  0
   -0.3887    0.1737    1.2450 H   0  0  0  0  0  0  0  0  0  0  0  0
    0.5916   -1.4459    0.2343 C   0  0  0  0  0  0  0  0  0  0  0  0
    0.4354   -2.0574   -0.6562 H   0  0  0  0  0  0  0  0  0  0  0  0
    1.5612   -0.9541    0.1379 H   0  0  0  0  0  0  0  0  0  0  0  0
    0.6331   -2.3526    1.4370 C   0  0  0  0  0  0  0  0  0  0  0  0
    1.1200   -2.0299    2.6855 N   0  0  0  0  0  0  0  0  0  0  0  0
    1.5832   -1.1702    2.9395 H   0  0  0  0  0  0  0  0  0  0  0  0
    0.8751   -3.0645    3.5072 C   0  0  0  0  0  0  0  0  0  0  0  0
    1.1472   -3.1099    4.5547 H   0  0  0  0  0  0  0  0  0  0  0  0
    0.2376   -4.0417    2.8463 N   0  0  0  0  0  0  0  0  0  0  0  0
    0.0819   -3.6029    1.5288 C   0  0  0  0  0  0  0  0  0  0  0  0
   -0.4175   -4.1383    0.7317 H   0  0  0  0  0  0  0  0  0  0  0  0
   -0.4119    0.6411   -0.8439 C   0  0  0  0  0  0  0  0  0  0  0  0
   -0.7657    1.8076   -0.6739 O   0  0  0  0  0  0  0  0  0  0  0  0
    0.0508    0.1952   -2.0185 N   0  0  0  0  0  0  0  0  0  0  0  0
    0.2692   -0.7874   -2.0937 H   0  0  0  0  0  0  0  0  0  0  0  0
    0.2127    1.0242   -3.2100 C   0  0  0  0  0  0  0  0  0  0  0  0
    0.9048    1.8427   -2.9993 H   0  0  0  0  0  0  0  0  0  0  0  0
    0.6050    0.4257   -4.0326 H   0  0  0  0  0  0  0  0  0  0  0  0
   -0.7497    1.4485   -3.5003 H   0  0  0  0  0  0  0  0  0  0  0  0
  5  6  2  0  0  0  0
  5  7  1  0  0  0  0
  2  3  1  0  0  0  0
  2  4  1  0  0  0  0
  2  5  1  0  0  0  0
  1  2  1  0  0  0  0
 22 23  2  0  0  0  0
 22 24  1  0  0  0  0
 20 21  1  0  0  0  0
 19 20  1  0  0  0  0
 17 18  1  0  0  0  0
 17 19  2  0  0  0  0
 15 16  1  0  0  0  0
 15 17  1  0  0  0  0
 14 15  1  0  0  0  0
 14 20  2  0  0  0  0
 11 12  1  0  0  0  0
 11 13  1  0  0  0  0
 11 14  1  0  0  0  0
  9 10  1  0  0  0  0
  9 11  1  0  0  0  0
  9 22  1  0  0  0  0
  7  8  1  0  0  0  0
  7  9  1  0  0  0  0
 26 27  1  0  0  0  0
 26 28  1  0  0  0  0
 26 29  1  0  0  0  0
 24 25  1  0  0  0  0
 24 26  1  0  0  0  0
M  END
$$$$
default_name
  -OEChem-01062215323D

 29 29  0     1  0  0  0  0  0999 V2000
   -3.6042   -3.5728    1.4576 H   0  0  0  0  0  0  0  0  0  0  0  0
   -3.5202   -2.6488    0.8866 C   0  0  0  0  0  0  0  0  0  0  0  0
   -4.2052   -1.9048    1.2896 H   0  0  0  0  0  0  0  0  0  0  0  0
   -3.7552   -2.8428   -0.1584 H   0  0  0  0  0  0  0  0  0  0  0  0
   -2.1052   -2.1358    0.9946 C   0  0  0  0  0  0  0  0  0  0  0  0
   -1.2852   -2.7288    1.6826 O   0  0  0  0  0  0  0  0  0  0  0  0
   -1.8202   -1.0288    0.3146 N   0  0  0  0  0  0  0  0  0  0  0  0
   -2.5542   -0.5788   -0.2104 H   0  0  0  0  0  0  0  0  0  0  0  0
   -0.5102   -0.3728    0.3086 C   0  0  1  0  0  0  0  0  0  0  0  0
   -0.3887    0.1737    1.2450 H   0  0  0  0  0  0  0  0  0  0  0  0
    0.5916   -1.4459    0.2343 C   0  0  0  0  0  0  0  0  0  0  0  0
    0.4354   -2.0574   -0.6562 H   0  0  0  0  0  0  0  0  0  0  0  0
    1.5612   -0.9541    0.1379 H   0  0  0  0  0  0  0  0  0  0  0  0
    0.6331   -2.3526    1.4370 C   0  0  0  0  0  0  0  0  0  0  0  0
    1.1200   -2.0299    2.6855 N   0  0  0  0  0  0  0  0  0  0  0  0
    1.5832   -1.1702    2.9395 H   0  0  0  0  0  0  0  0  0  0  0  0
    0.8751   -3.0645    3.5072 C   0  0  0  0  0  0  0  0  0  0  0  0
    1.1472   -3.1099    4.5547 H   0  0  0  0  0  0  0  0  0  0  0  0
    0.2376   -4.0417    2.8463 N   0  0  0  0  0  0  0  0  0  0  0  0
    0.0819   -3.6029    1.5288 C   0  0  0  0  0  0  0  0  0  0  0  0
   -0.4175   -4.1383    0.7317 H   0  0  0  0  0  0  0  0  0  0  0  0
   -0.4119    0.6411   -0.8439 C   0  0  0  0  0  0  0  0  0  0  0  0
   -0.4971    1.8476   -0.6158 O   0  0  0  0  0  0  0  0  0  0  0  0
   -0.2505    0.1540   -2.0805 N   0  0  0  0  0  0  0  0  0  0  0  0
   -0.2442   -0.8493   -2.1919 H   0  0  0  0  0  0  0  0  0  0  0  0
   -0.1334    0.9756   -3.2823 C   0  0  0  0  0  0  0  0  0  0  0  0
    0.7306    1.6381   -3.1942 H   0  0  0  0  0  0  0  0  0  0  0  0
   -0.0104    0.3405   -4.1601 H   0  0  0  0  0  0  0  0  0  0  0  0
   -1.0294    1.5866   -3.4027 H   0  0  0  0  0  0  0  0  0  0  0  0
  5  6  2  0  0  0  0
  5  7  1  0  0  0  0
  2  3  1  0  0  0  0
  2  4  1  0  0  0  0
  2  5  1  0  0  0  0
  1  2  1  0  0  0  0
 22 23  2  0  0  0  0
 22 24  1  0  0  0  0
 20 21  1  0  0  0  0
 19 20  1  0  0  0  0
 17 18  1  0  0  0  0
 17 19  2  0  0  0  0
 15 16  1  0  0  0  0
 15 17  1  0  0  0  0
 14 15  1  0  0  0  0
 14 20  2  0  0  0  0
 11 12  1  0  0  0  0
 11 13  1  0  0  0  0
 11 14  1  0  0  0  0
  9 10  1  0  0  0  0
  9 11  1  0  0  0  0
  9 22  1  0  0  0  0
  7  8  1  0  0  0  0
  7  9  1  0  0  0  0
 26 27  1  0  0  0  0
 26 28  1  0  0  0  0
 26 29  1  0  0  0  0
 24 25  1  0  0  0  0
 24 26  1  0  0  0  0
M  END
$$$$
default_name
  -OEChem-01062215323D

 29 29  0     1  0  0  0  0  0999 V2000
   -3.6042   -3.5728    1.4576 H   0  0  0  0  0  0  0  0  0  0  0  0
   -3.5202   -2.6488    0.8866 C   0  0  0  0  0  0  0  0  0  0  0  0
   -4.2052   -1.9048    1.2896 H   0  0  0  0  0  0  0  0  0  0  0  0
   -3.7552   -2.8428   -0.1584 H   0  0  0  0  0  0  0  0  0  0  0  0
   -2.1052   -2.1358    0.9946 C   0  0  0  0  0  0  0  0  0  0  0  0
   -1.2852   -2.7288    1.6826 O   0  0  0  0  0  0  0  0  0  0  0  0
   -1.8202   -1.0288    0.3146 N   0  0  0  0  0  0  0  0  0  0  0  0
   -2.5542   -0.5788   -0.2104 H   0  0  0  0  0  0  0  0  0  0  0  0
   -0.5102   -0.3728    0.3086 C   0  0  1  0  0  0  0  0  0  0  0  0
   -0.3887    0.1737    1.2450 H   0  0  0  0  0  0  0  0  0  0  0  0
    0.5916   -1.4459    0.2343 C   0  0  0  0  0  0  0  0  0  0  0  0
    0.4354   -2.0574   -0.6562 H   0  0  0  0  0  0  0  0  0  0  0  0
    1.5612   -0.9541    0.1379 H   0  0  0  0  0  0  0  0  0  0  0  0
    0.6331   -2.3526    1.4370 C   0  0  0  0  0  0  0  0  0  0  0  0
    1.1200   -2.0299    2.6855 N   0  0  0  0  0  0  0  0  0  0  0  0
    1.5832   -1.1702    2.9395 H   0  0  0  0  0  0  0  0  0  0  0  0
    0.8751   -3.0645    3.5072 C   0  0  0  0  0  0  0  0  0  0  0  0
    1.1472   -3.1099    4.5547 H   0  0  0  0  0  0  0  0  0  0  0  0
    0.2376   -4.0417    2.8463 N   0  0  0  0  0  0  0  0  0  0  0  0
    0.0819   -3.6029    1.5288 C   0  0  0  0  0  0  0  0  0  0  0  0
   -0.4175   -4.1383    0.7317 H   0  0  0  0  0  0  0  0  0  0  0  0
   -0.4119    0.6411   -0.8439 C   0  0  0  0  0  0  0  0  0  0  0  0
   -0.2200    1.8331   -0.6049 O   0  0  0  0  0  0  0  0  0  0  0  0
   -0.5601    0.1736   -2.0897 N   0  0  0  0  0  0  0  0  0  0  0  0
   -0.7688   -0.8078   -2.2002 H   0  0  0  0  0  0  0  0  0  0  0  0
   -0.4895    0.9970   -3.2939 C   0  0  0  0  0  0  0  0  0  0  0  0
    0.4895    1.4774   -3.3561 H   0  0  0  0  0  0  0  0  0  0  0  0
   -0.6431    0.3797   -4.1796 H   0  0  0  0  0  0  0  0  0  0  0  0
   -1.2560    1.7727   -3.2583 H   0  0  0  0  0  0  0  0  0  0  0  0
  5  6  2  0  0  0  0
  5  7  1  0  0  0  0
  2  3  1  0  0  0  0
  2  4  1  0  0  0  0
  2  5  1  0  0  0  0
  1  2  1  0  0  0  0
 22 23  2  0  0  0  0
 22 24  1  0  0  0  0
 20 21  1  0  0  0  0
 19 20  1  0  0  0  0
 17 18  1  0  0  0  0
 17 19  2  0  0  0  0
 15 16  1  0  0  0  0
 15 17  1  0  0  0  0
 14 15  1  0  0  0  0
 14 20  2  0  0  0  0
 11 12  1  0  0  0  0
 11 13  1  0  0  0  0
 11 14  1  0  0  0  0
  9 10  1  0  0  0  0
  9 11  1  0  0  0  0
  9 22  1  0  0  0  0
  7  8  1  0  0  0  0
  7  9  1  0  0  0  0
 26 27  1  0  0  0  0
 26 28  1  0  0  0  0
 26 29  1  0  0  0  0
 24 25  1  0  0  0  0
 24 26  1  0  0  0  0
M  END
$$$$
default_name
  -OEChem-01062215323D

 29 29  0     1  0  0  0  0  0999 V2000
   -3.6042   -3.5728    1.4576 H   0  0  0  0  0  0  0  0  0  0  0  0
   -3.5202   -2.6488    0.8866 C   0  0  0  0  0  0  0  0  0  0  0  0
   -4.2052   -1.9048    1.2896 H   0  0  0  0  0  0  0  0  0  0  0  0
   -3.7552   -2.8428   -0.1584 H   0  0  0  0  0  0  0  0  0  0  0  0
   -2.1052   -2.1358    0.9946 C   0  0  0  0  0  0  0  0  0  0  0  0
   -1.2852   -2.7288    1.6826 O   0  0  0  0  0  0  0  0  0  0  0  0
   -1.8202   -1.0288    0.3146 N   0  0  0  0  0  0  0  0  0  0  0  0
   -2.5542   -0.5788   -0.2104 H   0  0  0  0  0  0  0  0  0  0  0  0
   -0.5102   -0.3728    0.3086 C   0  0  1  0  0  0  0  0  0  0  0  0
   -0.3887    0.1737    1.2450 H   0  0  0  0  0  0  0  0  0  0  0  0
    0.5916   -1.4459    0.2343 C   0  0  0  0  0  0  0  0  0  0  0  0
    0.4354   -2.0574   -0.6562 H   0  0  0  0  0  0  0  0  0  0  0  0
    1.5612   -0.9541    0.1379 H   0  0  0  0  0  0  0  0  0  0  0  0
    0.6331   -2.3526    1.4370 C   0  0  0  0  0  0  0  0  0  0  0  0
    1.1200   -2.0299    2.6855 N   0  0  0  0  0  0  0  0  0  0  0  0
    1.5832   -1.1702    2.9395 H   0  0  0  0  0  0  0  0  0  0  0  0
    0.8751   -3.0645    3.5072 C   0  0  0  0  0  0  0  0  0  0  0  0
    1.1472   -3.1099    4.5547 H   0  0  0  0  0  0  0  0  0  0  0  0
    0.2376   -4.0417    2.8463 N   0  0  0  0  0  0  0  0  0  0  0  0
    0.0819   -3.6029    1.5288 C   0  0  0  0  0  0  0  0  0  0  0  0
   -0.4175   -4.1383    0.7317 H   0  0  0  0  0  0  0  0  0  0  0  0
   -0.4119    0.6411   -0.8439 C   0  0  0  0  0  0  0  0  0  0  0  0
    0.0467    1.7652   -0.6418 O   0  0  0  0  0  0  0  0  0  0  0  0
   -0.8569    0.2527   -2.0454 N   0  0  0  0  0  0  0  0  0  0  0  0
   -1.2689   -0.6659   -2.1181 H   0  0  0  0  0  0  0  0  0  0  0  0
   -0.8314    1.0869   -3.2440 C   0  0  0  0  0  0  0  0  0  0  0  0
    0.1978    1.3717   -3.4740 H   0  0  0  0  0  0  0  0  0  0  0  0
   -1.2499    0.5406   -4.0898 H   0  0  0  0  0  0  0  0  0  0  0  0
   -1.4143    1.9940   -3.0772 H   0  0  0  0  0  0  0  0  0  0  0  0
  5  6  2  0  0  0  0
  5  7  1  0  0  0  0
  2  3  1  0  0  0  0
  2  4  1  0  0  0  0
  2  5  1  0  0  0  0
  1  2  1  0  0  0  0
 22 23  2  0  0  0  0
 22 24  1  0  0  0  0
 20 21  1  0  0  0  0
 19 20  1  0  0  0  0
 17 18  1  0  0  0  0
 17 19  2  0  0  0  0
 15 16  1  0  0  0  0
 15 17  1  0  0  0  0
 14 15  1  0  0  0  0
 14 20  2  0  0  0  0
 11 12  1  0  0  0  0
 11 13  1  0  0  0  0
 11 14  1  0  0  0  0
  9 10  1  0  0  0  0
  9 11  1  0  0  0  0
  9 22  1  0  0  0  0
  7  8  1  0  0  0  0
  7  9  1  0  0  0  0
 26 27  1  0  0  0  0
 26 28  1  0  0  0  0
 26 29  1  0  0  0  0
 24 25  1  0  0  0  0
 24 26  1  0  0  0  0
M  END
$$$$
default_name
  -OEChem-01062215323D

 29 29  0     1  0  0  0  0  0999 V2000
   -3.6042   -3.5728    1.4576 H   0  0  0  0  0  0  0  0  0  0  0  0
   -3.5202   -2.6488    0.8866 C   0  0  0  0  0  0  0  0  0  0  0  0
   -4.2052   -1.9048    1.2896 H   0  0  0  0  0  0  0  0  0  0  0  0
   -3.7552   -2.8428   -0.1584 H   0  0  0  0  0  0  0  0  0  0  0  0
   -2.1052   -2.1358    0.9946 C   0  0  0  0  0  0  0  0  0  0  0  0
   -1.2852   -2.7288    1.6826 O   0  0  0  0  0  0  0  0  0  0  0  0
   -1.8202   -1.0288    0.3146 N   0  0  0  0  0  0  0  0  0  0  0  0
   -2.5542   -0.5788   -0.2104 H   0  0  0  0  0  0  0  0  0  0  0  0
   -0.5102   -0.3728    0.3086 C   0  0  1  0  0  0  0  0  0  0  0  0
   -0.3887    0.1737    1.2450 H   0  0  0  0  0  0  0  0  0  0  0  0
    0.5916   -1.4459    0.2343 C   0  0  0  0  0  0  0  0  0  0  0  0
    0.4354   -2.0574   -0.6562 H   0  0  0  0  0  0  0  0  0  0  0  0
    1.5612   -0.9541    0.1379 H   0  0  0  0  0  0  0  0  0  0  0  0
    0.6331   -2.3526    1.4370 C   0  0  0  0  0  0  0  0  0  0  0  0
    1.1200   -2.0299    2.6855 N   0  0  0  0  0  0  0  0  0  0  0  0
    1.5832   -1.1702    2.9395 H   0  0  0  0  0  0  0  0  0  0  0  0
    0.8751   -3.0645    3.5072 C   0  0  0  0  0  0  0  0  0  0  0  0
    1.1472   -3.1099    4.5547 H   0  0  0  0  0  0  0  0  0  0  0  0
    0.2376   -4.0417    2.8463 N   0  0  0  0  0  0  0  0  0  0  0  0
    0.0819   -3.6029    1.5288 C   0  0  0  0  0  0  0  0  0  0  0  0
   -0.4175   -4.1383    0.7317 H   0  0  0  0  0  0  0  0  0  0  0  0
   -0.4119    0.6411   -0.8439 C   0  0  0  0  0  0  0  0  0  0  0  0
    0.2849    1.6486   -0.7242 O   0  0  0  0  0  0  0  0  0  0  0  0
   -1.1207    0.3860   -1.9507 N   0  0  0  0  0  0  0  0  0  0  0  0
   -1.7105   -0.4332   -1.9510 H   0  0  0  0  0  0  0  0  0  0  0  0
   -1.1356    1.2391   -3.1360 C   0  0  0  0  0  0  0  0  0  0  0  0
   -0.1246    1.3280   -3.5399 H   0  0  0  0  0  0  0  0  0  0  0  0
   -1.7896    0.8122   -3.8969 H   0  0  0  0  0  0  0  0  0  0  0  0
   -1.4933    2.2354   -2.8715 H   0  0  0  0  0  0  0  0  0  0  0  0
  5  6  2  0  0  0  0
  5  7  1  0  0  0  0
  2  3  1  0  0  0  0
  2  4  1  0  0  0  0
  2  5  1  0  0  0  0
  1  2  1  0  0  0  0
 22 23  2  0  0  0  0
 22 24  1  0  0  0  0
 20 21  1  0  0  0  0
 19 20  1  0  0  0  0
 17 18  1  0  0  0  0
 17 19  2  0  0  0  0
 15 16  1  0  0  0  0
 15 17  1  0  0  0  0
 14 15  1  0  0  0  0
 14 20  2  0  0  0  0
 11 12  1  0  0  0  0
 11 13  1  0  0  0  0
 11 14  1  0  0  0  0
  9 10  1  0  0  0  0
  9 11  1  0  0  0  0
  9 22  1  0  0  0  0
  7  8  1  0  0  0  0
  7  9  1  0  0  0  0
 26 27  1  0  0  0  0
 26 28  1  0  0  0  0
 26 29  1  0  0  0  0
 24 25  1  0  0  0  0
 24 26  1  0  0  0  0
M  END
$$$$
default_name
  -OEChem-01062215323D

 29 29  0     1  0  0  0  0  0999 V2000
   -3.6042   -3.5728    1.4576 H   0  0  0  0  0  0  0  0  0  0  0  0
   -3.5202   -2.6488    0.8866 C   0  0  0  0  0  0  0  0  0  0  0  0
   -4.2052   -1.9048    1.2896 H   0  0  0  0  0  0  0  0  0  0  0  0
   -3.7552   -2.8428   -0.1584 H   0  0  0  0  0  0  0  0  0  0  0  0
   -2.1052   -2.1358    0.9946 C   0  0  0  0  0  0  0  0  0  0  0  0
   -1.2852   -2.7288    1.6826 O   0  0  0  0  0  0  0  0  0  0  0  0
   -1.8202   -1.0288    0.3146 N   0  0  0  0  0  0  0  0  0  0  0  0
   -2.5542   -0.5788   -0.2104 H   0  0  0  0  0  0  0  0  0  0  0  0
   -0.5102   -0.3728    0.3086 C   0  0  1  0  0  0  0  0  0  0  0  0
   -0.3887    0.1737    1.2450 H   0  0  0  0  0  0  0  0  0  0  0  0
    0.5916   -1.4459    0.2343 C   0  0  0  0  0  0  0  0  0  0  0  0
    0.4354   -2.0574   -0.6562 H   0  0  0  0  0  0  0  0  0  0  0  0
    1.5612   -0.9541    0.1379 H   0  0  0  0  0  0  0  0  0  0  0  0
    0.6331   -2.3526    1.4370 C   0  0  0  0  0  0  0  0  0  0  0  0
    1.1200   -2.0299    2.6855 N   0  0  0  0  0  0  0  0  0  0  0  0
    1.5832   -1.1702    2.9395 H   0  0  0  0  0  0  0  0  0  0  0  0
    0.8751   -3.0645    3.5072 C   0  0  0  0  0  0  0  0  0  0  0  0
    1.1472   -3.1099    4.5547 H   0  0  0  0  0  0  0  0  0  0  0  0
    0.2376   -4.0417    2.8463 N   0  0  0  0  0  0  0  0  0  0  0  0
    0.0819   -3.6029    1.5288 C   0  0  0  0  0  0  0  0  0  0  0  0
   -0.4175   -4.1383    0.7317 H   0  0  0  0  0  0  0  0  0  0  0  0
   -0.4119    0.6411   -0.8439 C   0  0  0  0  0  0  0  0  0  0  0  0
    0.4783    1.4910   -0.8462 O   0  0  0  0  0  0  0  0  0  0  0  0
   -1.3335    0.5643   -1.8120 N   0  0  0  0  0  0  0  0  0  0  0  0
   -2.0634   -0.1256   -1.7105 H   0  0  0  0  0  0  0  0  0  0  0  0
   -1.3815    1.4434   -2.9773 C   0  0  0  0  0  0  0  0  0  0  0  0
   -0.4557    1.3495   -3.5493 H   0  0  0  0  0  0  0  0  0  0  0  0
   -2.2253    1.1760   -3.6141 H   0  0  0  0  0  0  0  0  0  0  0  0
   -1.4878    2.4806   -2.6554 H   0  0  0  0  0  0  0  0  0  0  0  0
  5  6  2  0  0  0  0
  5  7  1  0  0  0  0
  2  3  1  0  0  0  0
  2  4  1  0  0  0  0
  2  5  1  0  0  0  0
  1  2  1  0  0  0  0
 22 23  2  0  0  0  0
 22 24  1  0  0  0  0
 20 21  1  0  0  0  0
 19 20  1  0  0  0  0
 17 18  1  0  0  0  0
 17 19  2  0  0  0  0
 15 16  1  0  0  0  0
 15 17  1  0  0  0  0
 14 15  1  0  0  0  0
 14 20  2  0  0  0  0
 11 12  1  0  0  0  0
 11 13  1  0  0  0  0
 11 14  1  0  0  0  0
  9 10  1  0  0  0  0
  9 11  1  0  0  0  0
  9 22  1  0  0  0  0
  7  8  1  0  0  0  0
  7  9  1  0  0  0  0
 26 27  1  0  0  0  0
 26 28  1  0  0  0  0
 26 29  1  0  0  0  0
 24 25  1  0  0  0  0
 24 26  1  0  0  0  0
M  END
$$$$
default_name
  -OEChem-01062215323D

 29 29  0     1  0  0  0  0  0999 V2000
   -3.6042   -3.5728    1.4576 H   0  0  0  0  0  0  0  0  0  0  0  0
   -3.5202   -2.6488    0.8866 C   0  0  0  0  0  0  0  0  0  0  0  0
   -4.2052   -1.9048    1.2896 H   0  0  0  0  0  0  0  0  0  0  0  0
   -3.7552   -2.8428   -0.1584 H   0  0  0  0  0  0  0  0  0  0  0  0
   -2.1052   -2.1358    0.9946 C   0  0  0  0  0  0  0  0  0  0  0  0
   -1.2852   -2.7288    1.6826 O   0  0  0  0  0  0  0  0  0  0  0  0
   -1.8202   -1.0288    0.3146 N   0  0  0  0  0  0  0  0  0  0  0  0
   -2.5542   -0.5788   -0.2104 H   0  0  0  0  0  0  0  0  0  0  0  0
   -0.5102   -0.3728    0.3086 C   0  0  1  0  0  0  0  0  0  0  0  0
   -0.3887    0.1737    1.2450 H   0  0  0  0  0  0  0  0  0  0  0  0
    0.5916   -1.4459    0.2343 C   0  0  0  0  0  0  0  0  0  0  0  0
    0.4354   -2.0574   -0.6562 H   0  0  0  0  0  0  0  0  0  0  0  0
    1.5612   -0.9541    0.1379 H   0  0  0  0  0  0  0  0  0  0  0  0
    0.6331   -2.3526    1.4370 C   0  0  0  0  0  0  0  0  0  0  0  0
    1.1200   -2.0299    2.6855 N   0  0  0  0  0  0  0  0  0  0  0  0
    1.5832   -1.1702    2.9395 H   0  0  0  0  0  0  0  0  0  0  0  0
    0.8751   -3.0645    3.5072 C   0  0  0  0  0  0  0  0  0  0  0  0
    1.1472   -3.1099    4.5547 H   0  0  0  0  0  0  0  0  0  0  0  0
    0.2376   -4.0417    2.8463 N   0  0  0  0  0  0  0  0  0  0  0  0
    0.0819   -3.6029    1.5288 C   0  0  0  0  0  0  0  0  0  0  0  0
   -0.4175   -4.1383    0.7317 H   0  0  0  0  0  0  0  0  0  0  0  0
   -0.4119    0.6411   -0.8439 C   0  0  0  0  0  0  0  0  0  0  0  0
    0.6137    1.3034   -0.9998 O   0  0  0  0  0  0  0  0  0  0  0  0
   -1.4808    0.7755   -1.6387 N   0  0  0  0  0  0  0  0  0  0  0  0
   -2.3036    0.2360   -1.4129 H   0  0  0  0  0  0  0  0  0  0  0  0
   -1.5524    1.6858   -2.7786 C   0  0  0  0  0  0  0  0  0  0  0  0
   -0.7730    1.4346   -3.5015 H   0  0  0  0  0  0  0  0  0  0  0  0
   -2.5273    1.6073   -3.2605 H   0  0  0  0  0  0  0  0  0  0  0  0
   -1.3980    2.7127   -2.4435 H   0  0  0  0  0  0  0  0  0  0  0  0
  5  6  2  0  0  0  0
  5  7  1  0  0  0  0
  2  3  1  0  0  0  0
  2  4  1  0  0  0  0
  2  5  1  0  0  0  0
  1  2  1  0  0  0  0
 22 23  2  0  0  0  0
 22 24  1  0  0  0  0
 20 21  1  0  0  0  0
 19 20  1  0  0  0  0
 17 18  1  0  0  0  0
 17 19  2  0  0  0  0
 15 16  1  0  0  0  0
 15 17  1  0  0  0  0
 14 15  1  0  0  0  0
 14 20  2  0  0  0  0
 11 12  1  0  0  0  0
 11 13  1  0  0  0  0
 11 14  1  0  0  0  0
  9 10  1  0  0  0  0
  9 11  1  0  0  0  0
  9 22  1  0  0  0  0
  7  8  1  0  0  0  0
  7  9  1  0  0  0  0
 26 27  1  0  0  0  0
 26 28  1  0  0  0  0
 26 29  1  0  0  0  0
 24 25  1  0  0  0  0
 24 26  1  0  0  0  0
M  END
$$$$
default_name
  -OEChem-01062215323D

 29 29  0     1  0  0  0  0  0999 V2000
   -3.6042   -3.5728    1.4576 H   0  0  0  0  0  0  0  0  0  0  0  0
   -3.5202   -2.6488    0.8866 C   0  0  0  0  0  0  0  0  0  0  0  0
   -4.2052   -1.9048    1.2896 H   0  0  0  0  0  0  0  0  0  0  0  0
   -3.7552   -2.8428   -0.1584 H   0  0  0  0  0  0  0  0  0  0  0  0
   -2.1052   -2.1358    0.9946 C   0  0  0  0  0  0  0  0  0  0  0  0
   -1.2852   -2.7288    1.6826 O   0  0  0  0  0  0  0  0  0  0  0  0
   -1.8202   -1.0288    0.3146 N   0  0  0  0  0  0  0  0  0  0  0  0
   -2.5542   -0.5788   -0.2104 H   0  0  0  0  0  0  0  0  0  0  0  0
   -0.5102   -0.3728    0.3086 C   0  0  1  0  0  0  0  0  0  0  0  0
   -0.3887    0.1737    1.2450 H   0  0  0  0  0  0  0  0  0  0  0  0
    0.5916   -1.4459    0.2343 C   0  0  0  0  0  0  0  0  0  0  0  0
    0.4354   -2.0574   -0.6562 H   0  0  0  0  0  0  0  0  0  0  0  0
    1.5612   -0.9541    0.1379 H   0  0  0  0  0  0  0  0  0  0  0  0
    0.6331   -2.3526    1.4370 C   0  0  0  0  0  0  0  0  0  0  0  0
    1.1200   -2.0299    2.6855 N   0  0  0  0  0  0  0  0  0  0  0  0
    1.5832   -1.1702    2.9395 H   0  0  0  0  0  0  0  0  0  0  0  0
    0.8751   -3.0645    3.5072 C   0  0  0  0  0  0  0  0  0  0  0  0
    1.1472   -3.1099    4.5547 H   0  0  0  0  0  0  0  0  0  0  0  0
    0.2376   -4.0417    2.8463 N   0  0  0  0  0  0  0  0  0  0  0  0
    0.0819   -3.6029    1.5288 C   0  0  0  0  0  0  0  0  0  0  0  0
   -0.4175   -4.1383    0.7317 H   0  0  0  0  0  0  0  0  0  0  0  0
   -0.4119    0.6411   -0.8439 C   0  0  0  0  0  0  0  0  0  0  0  0
    0.6820    1.0984   -1.1743 O   0  0  0  0  0  0  0  0  0  0  0  0
   -1.5526    1.0052   -1.4428 N   0  0  0  0  0  0  0  0  0  0  0  0
   -2.4147    0.6270   -1.0785 H   0  0  0  0  0  0  0  0  0  0  0  0
   -1.6365    1.9498   -2.5535 C   0  0  0  0  0  0  0  0  0  0  0  0
   -1.0548    1.5775   -3.3998 H   0  0  0  0  0  0  0  0  0  0  0  0
   -2.6751    2.0765   -2.8603 H   0  0  0  0  0  0  0  0  0  0  0  0
   -1.2301    2.9160   -2.2503 H   0  0  0  0  0  0  0  0  0  0  0  0
  5  6  2  0  0  0  0
  5  7  1  0  0  0  0
  2  3  1  0  0  0  0
  2  4  1  0  0  0  0
  2  5  1  0  0  0  0
  1  2  1  0  0  0  0
 22 23  2  0  0  0  0
 22 24  1  0  0  0  0
 20 21  1  0  0  0  0
 19 20  1  0  0  0  0
 17 18  1  0  0  0  0
 17 19  2  0  0  0  0
 15 16  1  0  0  0  0
 15 17  1  0  0  0  0
 14 15  1  0  0  0  0
 14 20  2  0  0  0  0
 11 12  1  0  0  0  0
 11 13  1  0  0  0  0
 11 14  1  0  0  0  0
  9 10  1  0  0  0  0
  9 11  1  0  0  0  0
  9 22  1  0  0  0  0
  7  8  1  0  0  0  0
  7  9  1  0  0  0  0
 26 27  1  0  0  0  0
 26 28  1  0  0  0  0
 26 29  1  0  0  0  0
 24 25  1  0  0  0  0
 24 26  1  0  0  0  0
M  END
$$$$
default_name
  -OEChem-01062215323D

 29 29  0     1  0  0  0  0  0999 V2000
   -3.6042   -3.5728    1.4576 H   0  0  0  0  0  0  0  0  0  0  0  0
   -3.5202   -2.6488    0.8866 C   0  0  0  0  0  0  0  0  0  0  0  0
   -4.2052   -1.9048    1.2896 H   0  0  0  0  0  0  0  0  0  0  0  0
   -3.7552   -2.8428   -0.1584 H   0  0  0  0  0  0  0  0  0  0  0  0
   -2.1052   -2.1358    0.9946 C   0  0  0  0  0  0  0  0  0  0  0  0
   -1.2852   -2.7288    1.6826 O   0  0  0  0  0  0  0  0  0  0  0  0
   -1.8202   -1.0288    0.3146 N   0  0  0  0  0  0  0  0  0  0  0  0
   -2.5542   -0.5788   -0.2104 H   0  0  0  0  0  0  0  0  0  0  0  0
   -0.5102   -0.3728    0.3086 C   0  0  1  0  0  0  0  0  0  0  0  0
   -0.3887    0.1737    1.2450 H   0  0  0  0  0  0  0  0  0  0  0  0
    0.5916   -1.4459    0.2343 C   0  0  0  0  0  0  0  0  0  0  0  0
    0.4354   -2.0574   -0.6562 H   0  0  0  0  0  0  0  0  0  0  0  0
    1.5612   -0.9541    0.1379 H   0  0  0  0  0  0  0  0  0  0  0  0
    0.6331   -2.3526    1.4370 C   0  0  0  0  0  0  0  0  0  0  0  0
    1.1200   -2.0299    2.6855 N   0  0  0  0  0  0  0  0  0  0  0  0
    1.5832   -1.1702    2.9395 H   0  0  0  0  0  0  0  0  0  0  0  0
    0.8751   -3.0645    3.5072 C   0  0  0  0  0  0  0  0  0  0  0  0
    1.1472   -3.1099    4.5547 H   0  0  0  0  0  0  0  0  0  0  0  0
    0.2376   -4.0417    2.8463 N   0  0  0  0  0  0  0  0  0  0  0  0
    0.0819   -3.6029    1.5288 C   0  0  0  0  0  0  0  0  0  0  0  0
   -0.4175   -4.1383    0.7317 H   0  0  0  0  0  0  0  0  0  0  0  0
   -0.4119    0.6411   -0.8439 C   0  0  0  0  0  0  0  0  0  0  0  0
    0.6784    0.8901   -1.3579 O   0  0  0  0  0  0  0  0  0  0  0  0
   -1.5440    1.2378   -1.2375 N   0  0  0  0  0  0  0  0  0  0  0  0
   -2.3891    1.0206   -0.7300 H   0  0  0  0  0  0  0  0  0  0  0  0
   -1.6281    2.2174   -2.3174 C   0  0  0  0  0  0  0  0  0  0  0  0
   -1.2819    1.7686   -3.2511 H   0  0  0  0  0  0  0  0  0  0  0  0
   -2.6586    2.5518   -2.4407 H   0  0  0  0  0  0  0  0  0  0  0  0
   -0.9956    3.0766   -2.0890 H   0  0  0  0  0  0  0  0  0  0  0  0
  5  6  2  0  0  0  0
  5  7  1  0  0  0  0
  2  3  1  0  0  0  0
  2  4  1  0  0  0  0
  2  5  1  0  0  0  0
  1  2  1  0  0  0  0
 22 23  2  0  0  0  0
 22 24  1  0  0  0  0
 20 21  1  0  0  0  0
 19 20  1  0  0  0  0
 17 18  1  0  0  0  0
 17 19  2  0  0  0  0
 15 16  1  0  0  0  0
 15 17  1  0  0  0  0
 14 15  1  0  0  0  0
 14 20  2  0  0  0  0
 11 12  1  0  0  0  0
 11 13  1  0  0  0  0
 11 14  1  0  0  0  0
  9 10  1  0  0  0  0
  9 11  1  0  0  0  0
  9 22  1  0  0  0  0
  7  8  1  0  0  0  0
  7  9  1  0  0  0  0
 26 27  1  0  0  0  0
 26 28  1  0  0  0  0
 26 29  1  0  0  0  0
 24 25  1  0  0  0  0
 24 26  1  0  0  0  0
M  END
$$$$
default_name
  -OEChem-01062215323D

 29 29  0     1  0  0  0  0  0999 V2000
   -3.6042   -3.5728    1.4576 H   0  0  0  0  0  0  0  0  0  0  0  0
   -3.5202   -2.6488    0.8866 C   0  0  0  0  0  0  0  0  0  0  0  0
   -4.2052   -1.9048    1.2896 H   0  0  0  0  0  0  0  0  0  0  0  0
   -3.7552   -2.8428   -0.1584 H   0  0  0  0  0  0  0  0  0  0  0  0
   -2.1052   -2.1358    0.9946 C   0  0  0  0  0  0  0  0  0  0  0  0
   -1.2852   -2.7288    1.6826 O   0  0  0  0  0  0  0  0  0  0  0  0
   -1.8202   -1.0288    0.3146 N   0  0  0  0  0  0  0  0  0  0  0  0
   -2.5542   -0.5788   -0.2104 H   0  0  0  0  0  0  0  0  0  0  0  0
   -0.5102   -0.3728    0.3086 C   0  0  1  0  0  0  0  0  0  0  0  0
   -0.3887    0.1737    1.2450 H   0  0  0  0  0  0  0  0  0  0  0  0
    0.5916   -1.4459    0.2343 C   0  0  0  0  0  0  0  0  0  0  0  0
    0.4354   -2.0574   -0.6562 H   0  0  0  0  0  0  0  0  0  0  0  0
    1.5612   -0.9541    0.1379 H   0  0  0  0  0  0  0  0  0  0  0  0
    0.6331   -2.3526    1.4370 C   0  0  0  0  0  0  0  0  0  0  0  0
    1.1200   -2.0299    2.6855 N   0  0  0  0  0  0  0  0  0  0  0  0
    1.5832   -1.1702    2.9395 H   0  0  0  0  0  0  0  0  0  0  0  0
    0.8751   -3.0645    3.5072 C   0  0  0  0  0  0  0  0  0  0  0  0
    1.1472   -3.1099    4.5547 H   0  0  0  0  0  0  0  0  0  0  0  0
    0.2376   -4.0417    2.8463 N   0  0  0  0  0  0  0  0  0  0  0  0
    0.0819   -3.6029    1.5288 C   0  0  0  0  0  0  0  0  0  0  0  0
   -0.4175   -4.1383    0.7317 H   0  0  0  0  0  0  0  0  0  0  0  0
   -0.4119    0.6411   -0.8439 C   0  0  0  0  0  0  0  0  0  0  0  0
    0.6032    0.6926   -1.5380 O   0  0  0  0  0  0  0  0  0  0  0  0
   -1.4555    1.4573   -1.0367 N   0  0  0  0  0  0  0  0  0  0  0  0
   -2.2287    1.3901   -0.3912 H   0  0  0  0  0  0  0  0  0  0  0  0
   -1.5279    2.4703   -2.0863 C   0  0  0  0  0  0  0  0  0  0  0  0
   -1.4389    1.9947   -3.0656 H   0  0  0  0  0  0  0  0  0  0  0  0
   -2.4789    3.0008   -2.0304 H   0  0  0  0  0  0  0  0  0  0  0  0
   -0.7104    3.1836   -1.9705 H   0  0  0  0  0  0  0  0  0  0  0  0
  5  6  2  0  0  0  0
  5  7  1  0  0  0  0
  2  3  1  0  0  0  0
  2  4  1  0  0  0  0
  2  5  1  0  0  0  0
  1  2  1  0  0  0  0
 22 23  2  0  0  0  0
 22 24  1  0  0  0  0
 20 21  1  0  0  0  0
 19 20  1  0  0  0  0
 17 18  1  0  0  0  0
 17 19  2  0  0  0  0
 15 16  1  0  0  0  0
 15 17  1  0  0  0  0
 14 15  1  0  0  0  0
 14 20  2  0  0  0  0
 11 12  1  0  0  0  0
 11 13  1  0  0  0  0
 11 14  1  0  0  0  0
  9 10  1  0  0  0  0
  9 11  1  0  0  0  0
  9 22  1  0  0  0  0
  7  8  1  0  0  0  0
  7  9  1  0  0  0  0
 26 27  1  0  0  0  0
 26 28  1  0  0  0  0
 26 29  1  0  0  0  0
 24 25  1  0  0  0  0
 24 26  1  0  0  0  0
M  END
$$$$
default_name
  -OEChem-01062215323D

 29 29  0     1  0  0  0  0  0999 V2000
   -3.6042   -3.5728    1.4576 H   0  0  0  0  0  0  0  0  0  0  0  0
   -3.5202   -2.6488    0.8866 C   0  0  0  0  0  0  0  0  0  0  0  0
   -4.2052   -1.9048    1.2896 H   0  0  0  0  0  0  0  0  0  0  0  0
   -3.7552   -2.8428   -0.1584 H   0  0  0  0  0  0  0  0  0  0  0  0
   -2.1052   -2.1358    0.9946 C   0  0  0  0  0  0  0  0  0  0  0  0
   -1.2852   -2.7288    1.6826 O   0  0  0  0  0  0  0  0  0  0  0  0
   -1.8202   -1.0288    0.3146 N   0  0  0  0  0  0  0  0  0  0  0  0
   -2.5542   -0.5788   -0.2104 H   0  0  0  0  0  0  0  0  0  0  0  0
   -0.5102   -0.3728    0.3086 C   0  0  1  0  0  0  0  0  0  0  0  0
   -0.3887    0.1737    1.2450 H   0  0  0  0  0  0  0  0  0  0  0  0
    0.5916   -1.4459    0.2343 C   0  0  0  0  0  0  0  0  0  0  0  0
    0.4354   -2.0574   -0.6562 H   0  0  0  0  0  0  0  0  0  0  0  0
    1.5612   -0.9541    0.1379 H   0  0  0  0  0  0  0  0  0  0  0  0
    0.6331   -2.3526    1.4370 C   0  0  0  0  0  0  0  0  0  0  0  0
    1.1200   -2.0299    2.6855 N   0  0  0  0  0  0  0  0  0  0  0  0
    1.5832   -1.1702    2.9395 H   0  0  0  0  0  0  0  0  0  0  0  0
    0.8751   -3.0645    3.5072 C   0  0  0  0  0  0  0  0  0  0  0  0
    1.1472   -3.1099    4.5547 H   0  0  0  0  0  0  0  0  0  0  0  0
    0.2376   -4.0417    2.8463 N   0  0  0  0  0  0  0  0  0  0  0  0
    0.0819   -3.6029    1.5288 C   0  0  0  0  0  0  0  0  0  0  0  0
   -0.4175   -4.1383    0.7317 H   0  0  0  0  0  0  0  0  0  0  0  0
   -0.4119    0.6411   -0.8439 C   0  0  0  0  0  0  0  0  0  0  0  0
    0.4615    0.5194   -1.7025 O   0  0  0  0  0  0  0  0  0  0  0  0
   -1.2932    1.6489   -0.8543 N   0  0  0  0  0  0  0  0  0  0  0  0
   -1.9442    1.7102   -0.0853 H   0  0  0  0  0  0  0  0  0  0  0  0
   -1.3426    2.6914   -1.8761 C   0  0  0  0  0  0  0  0  0  0  0  0
   -1.5150    2.2404   -2.8559 H   0  0  0  0  0  0  0  0  0  0  0  0
   -2.1483    3.3928   -1.6573 H   0  0  0  0  0  0  0  0  0  0  0  0
   -0.3939    3.2297   -1.9030 H   0  0  0  0  0  0  0  0  0  0  0  0
  5  6  2  0  0  0  0
  5  7  1  0  0  0  0
  2  3  1  0  0  0  0
  2  4  1  0  0  0  0
  2  5  1  0  0  0  0
  1  2  1  0  0  0  0
 22 23  2  0  0  0  0
 22 24  1  0  0  0  0
 20 21  1  0  0  0  0
 19 20  1  0  0  0  0
 17 18  1  0  0  0  0
 17 19  2  0  0  0  0
 15 16  1  0  0  0  0
 15 17  1  0  0  0  0
 14 15  1  0  0  0  0
 14 20  2  0  0  0  0
 11 12  1  0  0  0  0
 11 13  1  0  0  0  0
 11 14  1  0  0  0  0
  9 10  1  0  0  0  0
  9 11  1  0  0  0  0
  9 22  1  0  0  0  0
  7  8  1  0  0  0  0
  7  9  1  0  0  0  0
 26 27  1  0  0  0  0
 26 28  1  0  0  0  0
 26 29  1  0  0  0  0
 24 25  1  0  0  0  0
 24 26  1  0  0  0  0
M  END
$$$$
default_name
  -OEChem-01062215323D

 29 29  0     1  0  0  0  0  0999 V2000
   -3.6042   -3.5728    1.4576 H   0  0  0  0  0  0  0  0  0  0  0  0
   -3.5202   -2.6488    0.8866 C   0  0  0  0  0  0  0  0  0  0  0  0
   -4.2052   -1.9048    1.2896 H   0  0  0  0  0  0  0  0  0  0  0  0
   -3.7552   -2.8428   -0.1584 H   0  0  0  0  0  0  0  0  0  0  0  0
   -2.1052   -2.1358    0.9946 C   0  0  0  0  0  0  0  0  0  0  0  0
   -1.2852   -2.7288    1.6826 O   0  0  0  0  0  0  0  0  0  0  0  0
   -1.8202   -1.0288    0.3146 N   0  0  0  0  0  0  0  0  0  0  0  0
   -2.5542   -0.5788   -0.2104 H   0  0  0  0  0  0  0  0  0  0  0  0
   -0.5102   -0.3728    0.3086 C   0  0  1  0  0  0  0  0  0  0  0  0
   -0.3887    0.1737    1.2450 H   0  0  0  0  0  0  0  0  0  0  0  0
    0.5916   -1.4459    0.2343 C   0  0  0  0  0  0  0  0  0  0  0  0
    0.4354   -2.0574   -0.6562 H   0  0  0  0  0  0  0  0  0  0  0  0
    1.5612   -0.9541    0.1379 H   0  0  0  0  0  0  0  0  0  0  0  0
    0.6331   -2.3526    1.4370 C   0  0  0  0  0  0  0  0  0  0  0  0
    1.1200   -2.0299    2.6855 N   0  0  0  0  0  0  0  0  0  0  0  0
    1.5832   -1.1702    2.9395 H   0  0  0  0  0  0  0  0  0  0  0  0
    0.8751   -3.0645    3.5072 C   0  0  0  0  0  0  0  0  0  0  0  0
    1.1472   -3.1099    4.5547 H   0  0  0  0  0  0  0  0  0  0  0  0
    0.2376   -4.0417    2.8463 N   0  0  0  0  0  0  0  0  0  0  0  0
    0.0819   -3.6029    1.5288 C   0  0  0  0  0  0  0  0  0  0  0  0
   -0.4175   -4.1383    0.7317 H   0  0  0  0  0  0  0  0  0  0  0  0
   -0.4119    0.6411   -0.8439 C   0  0  0  0  0  0  0  0  0  0  0  0
    0.2630    0.3823   -1.8401 O   0  0  0  0  0  0  0  0  0  0  0  0
   -1.0682    1.7995   -0.7027 N   0  0  0  0  0  0  0  0  0  0  0  0
   -1.5552    1.9593    0.1670 H   0  0  0  0  0  0  0  0  0  0  0  0
   -1.0849    2.8655   -1.7009 C   0  0  0  0  0  0  0  0  0  0  0  0
   -1.5051    2.4891   -2.6363 H   0  0  0  0  0  0  0  0  0  0  0  0
   -1.6892    3.7012   -1.3468 H   0  0  0  0  0  0  0  0  0  0  0  0
   -0.0677    3.2117   -1.8909 H   0  0  0  0  0  0  0  0  0  0  0  0
  5  6  2  0  0  0  0
  5  7  1  0  0  0  0
  2  3  1  0  0  0  0
  2  4  1  0  0  0  0
  2  5  1  0  0  0  0
  1  2  1  0  0  0  0
 22 23  2  0  0  0  0
 22 24  1  0  0  0  0
 20 21  1  0  0  0  0
 19 20  1  0  0  0  0
 17 18  1  0  0  0  0
 17 19  2  0  0  0  0
 15 16  1  0  0  0  0
 15 17  1  0  0  0  0
 14 15  1  0  0  0  0
 14 20  2  0  0  0  0
 11 12  1  0  0  0  0
 11 13  1  0  0  0  0
 11 14  1  0  0  0  0
  9 10  1  0  0  0  0
  9 11  1  0  0  0  0
  9 22  1  0  0  0  0
  7  8  1  0  0  0  0
  7  9  1  0  0  0  0
 26 27  1  0  0  0  0
 26 28  1  0  0  0  0
 26 29  1  0  0  0  0
 24 25  1  0  0  0  0
 24 26  1  0  0  0  0
M  END
$$$$
default_name
  -OEChem-01062215323D

 29 29  0     1  0  0  0  0  0999 V2000
   -3.6042   -3.5728    1.4576 H   0  0  0  0  0  0  0  0  0  0  0  0
   -3.5202   -2.6488    0.8866 C   0  0  0  0  0  0  0  0  0  0  0  0
   -4.2052   -1.9048    1.2896 H   0  0  0  0  0  0  0  0  0  0  0  0
   -3.7552   -2.8428   -0.1584 H   0  0  0  0  0  0  0  0  0  0  0  0
   -2.1052   -2.1358    0.9946 C   0  0  0  0  0  0  0  0  0  0  0  0
   -1.2852   -2.7288    1.6826 O   0  0  0  0  0  0  0  0  0  0  0  0
   -1.8202   -1.0288    0.3146 N   0  0  0  0  0  0  0  0  0  0  0  0
   -2.5542   -0.5788   -0.2104 H   0  0  0  0  0  0  0  0  0  0  0  0
   -0.5102   -0.3728    0.3086 C   0  0  1  0  0  0  0  0  0  0  0  0
   -0.3887    0.1737    1.2450 H   0  0  0  0  0  0  0  0  0  0  0  0
    0.5916   -1.4459    0.2343 C   0  0  0  0  0  0  0  0  0  0  0  0
    0.4354   -2.0574   -0.6562 H   0  0  0  0  0  0  0  0  0  0  0  0
    1.5612   -0.9541    0.1379 H   0  0  0  0  0  0  0  0  0  0  0  0
    0.6331   -2.3526    1.4370 C   0  0  0  0  0  0  0  0  0  0  0  0
    1.1200   -2.0299    2.6855 N   0  0  0  0  0  0  0  0  0  0  0  0
    1.5832   -1.1702    2.9395 H   0  0  0  0  0  0  0  0  0  0  0  0
    0.8751   -3.0645    3.5072 C   0  0  0  0  0  0  0  0  0  0  0  0
    1.1472   -3.1099    4.5547 H   0  0  0  0  0  0  0  0  0  0  0  0
    0.2376   -4.0417    2.8463 N   0  0  0  0  0  0  0  0  0  0  0  0
    0.0819   -3.6029    1.5288 C   0  0  0  0  0  0  0  0  0  0  0  0
   -0.4175   -4.1383    0.7317 H   0  0  0  0  0  0  0  0  0  0  0  0
   -0.4119    0.6411   -0.8439 C   0  0  0  0  0  0  0  0  0  0  0  0
    0.0212    0.2906   -1.9413 O   0  0  0  0  0  0  0  0  0  0  0  0
   -0.7958    1.8988   -0.5920 N   0  0  0  0  0  0  0  0  0  0  0  0
   -1.0880    2.1202    0.3484 H   0  0  0  0  0  0  0  0  0  0  0  0
   -0.7723    2.9808   -1.5728 C   0  0  0  0  0  0  0  0  0  0  0  0
   -1.4098    2.7238   -2.4217 H   0  0  0  0  0  0  0  0  0  0  0  0
   -1.1330    3.9049   -1.1201 H   0  0  0  0  0  0  0  0  0  0  0  0
    0.2458    3.1309   -1.9353 H   0  0  0  0  0  0  0  0  0  0  0  0
  5  6  2  0  0  0  0
  5  7  1  0  0  0  0
  2  3  1  0  0  0  0
  2  4  1  0  0  0  0
  2  5  1  0  0  0  0
  1  2  1  0  0  0  0
 22 23  2  0  0  0  0
 22 24  1  0  0  0  0
 20 21  1  0  0  0  0
 19 20  1  0  0  0  0
 17 18  1  0  0  0  0
 17 19  2  0  0  0  0
 15 16  1  0  0  0  0
 15 17  1  0  0  0  0
 14 15  1  0  0  0  0
 14 20  2  0  0  0  0
 11 12  1  0  0  0  0
 11 13  1  0  0  0  0
 11 14  1  0  0  0  0
  9 10  1  0  0  0  0
  9 11  1  0  0  0  0
  9 22  1  0  0  0  0
  7  8  1  0  0  0  0
  7  9  1  0  0  0  0
 26 27  1  0  0  0  0
 26 28  1  0  0  0  0
 26 29  1  0  0  0  0
 24 25  1  0  0  0  0
 24 26  1  0  0  0  0
M  END
$$$$
default_name
  -OEChem-01062215323D

 29 29  0     1  0  0  0  0  0999 V2000
   -3.6042   -3.5728    1.4576 H   0  0  0  0  0  0  0  0  0  0  0  0
   -3.5202   -2.6488    0.8866 C   0  0  0  0  0  0  0  0  0  0  0  0
   -4.2052   -1.9048    1.2896 H   0  0  0  0  0  0  0  0  0  0  0  0
   -3.7552   -2.8428   -0.1584 H   0  0  0  0  0  0  0  0  0  0  0  0
   -2.1052   -2.1358    0.9946 C   0  0  0  0  0  0  0  0  0  0  0  0
   -1.2852   -2.7288    1.6826 O   0  0  0  0  0  0  0  0  0  0  0  0
   -1.8202   -1.0288    0.3146 N   0  0  0  0  0  0  0  0  0  0  0  0
   -2.5542   -0.5788   -0.2104 H   0  0  0  0  0  0  0  0  0  0  0  0
   -0.5102   -0.3728    0.3086 C   0  0  1  0  0  0  0  0  0  0  0  0
   -0.3887    0.1737    1.2450 H   0  0  0  0  0  0  0  0  0  0  0  0
    0.5916   -1.4459    0.2343 C   0  0  0  0  0  0  0  0  0  0  0  0
    0.4354   -2.0574   -0.6562 H   0  0  0  0  0  0  0  0  0  0  0  0
    1.5612   -0.9541    0.1379 H   0  0  0  0  0  0  0  0  0  0  0  0
    0.6331   -2.3526    1.4370 C   0  0  0  0  0  0  0  0  0  0  0  0
    1.1200   -2.0299    2.6855 N   0  0  0  0  0  0  0  0  0  0  0  0
    1.5832   -1.1702    2.9395 H   0  0  0  0  0  0  0  0  0  0  0  0
    0.8751   -3.0645    3.5072 C   0  0  0  0  0  0  0  0  0  0  0  0
    1.1472   -3.1099    4.5547 H   0  0  0  0  0  0  0  0  0  0  0  0
    0.2376   -4.0417    2.8463 N   0  0  0  0  0  0  0  0  0  0  0  0
    0.0819   -3.6029    1.5288 C   0  0  0  0  0  0  0  0  0  0  0  0
   -0.4175   -4.1383    0.7317 H   0  0  0  0  0  0  0  0  0  0  0  0
   -0.4119    0.6411   -0.8439 C   0  0  0  0  0  0  0  0  0  0  0  0
   -0.2474    0.2506   -1.9994 O   0  0  0  0  0  0  0  0  0  0  0  0
   -0.4945    1.9400   -0.5300 N   0  0  0  0  0  0  0  0  0  0  0  0
   -0.5747    2.1820    0.4467 H   0  0  0  0  0  0  0  0  0  0  0  0
   -0.4262    3.0294   -1.5005 C   0  0  0  0  0  0  0  0  0  0  0  0
   -1.2357    2.9284   -2.2268 H   0  0  0  0  0  0  0  0  0  0  0  0
   -0.5176    3.9900   -0.9927 H   0  0  0  0  0  0  0  0  0  0  0  0
    0.5255    2.9927   -2.0329 H   0  0  0  0  0  0  0  0  0  0  0  0
  5  6  2  0  0  0  0
  5  7  1  0  0  0  0
  2  3  1  0  0  0  0
  2  4  1  0  0  0  0
  2  5  1  0  0  0  0
  1  2  1  0  0  0  0
 22 23  2  0  0  0  0
 22 24  1  0  0  0  0
 20 21  1  0  0  0  0
 19 20  1  0  0  0  0
 17 18  1  0  0  0  0
 17 19  2  0  0  0  0
 15 16  1  0  0  0  0
 15 17  1  0  0  0  0
 14 15  1  0  0  0  0
 14 20  2  0  0  0  0
 11 12  1  0  0  0  0
 11 13  1  0  0  0  0
 11 14  1  0  0  0  0
  9 10  1  0  0  0  0
  9 11  1  0  0  0  0
  9 22  1  0  0  0  0
  7  8  1  0  0  0  0
  7  9  1  0  0  0  0
 26 27  1  0  0  0  0
 26 28  1  0  0  0  0
 26 29  1  0  0  0  0
 24 25  1  0  0  0  0
 24 26  1  0  0  0  0
M  END
$$$$
default_name
  -OEChem-01062215323D

 29 29  0     1  0  0  0  0  0999 V2000
   -3.6042   -3.5728    1.4576 H   0  0  0  0  0  0  0  0  0  0  0  0
   -3.5202   -2.6488    0.8866 C   0  0  0  0  0  0  0  0  0  0  0  0
   -4.2052   -1.9048    1.2896 H   0  0  0  0  0  0  0  0  0  0  0  0
   -3.7552   -2.8428   -0.1584 H   0  0  0  0  0  0  0  0  0  0  0  0
   -2.1052   -2.1358    0.9946 C   0  0  0  0  0  0  0  0  0  0  0  0
   -1.2852   -2.7288    1.6826 O   0  0  0  0  0  0  0  0  0  0  0  0
   -1.8202   -1.0288    0.3146 N   0  0  0  0  0  0  0  0  0  0  0  0
   -2.5542   -0.5788   -0.2104 H   0  0  0  0  0  0  0  0  0  0  0  0
   -0.5102   -0.3728    0.3086 C   0  0  1  0  0  0  0  0  0  0  0  0
   -0.3887    0.1737    1.2450 H   0  0  0  0  0  0  0  0  0  0  0  0
    0.5916   -1.4459    0.2343 C   0  0  0  0  0  0  0  0  0  0  0  0
    0.4354   -2.0574   -0.6562 H   0  0  0  0  0  0  0  0  0  0  0  0
    1.5612   -0.9541    0.1379 H   0  0  0  0  0  0  0  0  0  0  0  0
    0.6331   -2.3526    1.4370 C   0  0  0  0  0  0  0  0  0  0  0  0
    1.1200   -2.0299    2.6855 N   0  0  0  0  0  0  0  0  0  0  0  0
    1.5832   -1.1702    2.9395 H   0  0  0  0  0  0  0  0  0  0  0  0
    0.8751   -3.0645    3.5072 C   0  0  0  0  0  0  0  0  0  0  0  0
    1.1472   -3.1099    4.5547 H   0  0  0  0  0  0  0  0  0  0  0  0
    0.2376   -4.0417    2.8463 N   0  0  0  0  0  0  0  0  0  0  0  0
    0.0819   -3.6029    1.5288 C   0  0  0  0  0  0  0  0  0  0  0  0
   -0.4175   -4.1383    0.7317 H   0  0  0  0  0  0  0  0  0  0  0  0
   -0.4119    0.6411   -0.8439 C   0  0  0  0  0  0  0  0  0  0  0  0
   -0.5246    0.2651   -2.0104 O   0  0  0  0  0  0  0  0  0  0  0  0
   -0.1849    1.9204   -0.5209 N   0  0  0  0  0  0  0  0  0  0  0  0
   -0.0500    2.1406    0.4550 H   0  0  0  0  0  0  0  0  0  0  0  0
   -0.0700    3.0081   -1.4888 C   0  0  0  0  0  0  0  0  0  0  0  0
   -0.9946    3.0891   -2.0649 H   0  0  0  0  0  0  0  0  0  0  0  0
    0.1151    3.9508   -0.9732 H   0  0  0  0  0  0  0  0  0  0  0  0
    0.7522    2.8067   -2.1773 H   0  0  0  0  0  0  0  0  0  0  0  0
  5  6  2  0  0  0  0
  5  7  1  0  0  0  0
  2  3  1  0  0  0  0
  2  4  1  0  0  0  0
  2  5  1  0  0  0  0
  1  2  1  0  0  0  0
 22 23  2  0  0  0  0
 22 24  1  0  0  0  0
 20 21  1  0  0  0  0
 19 20  1  0  0  0  0
 17 18  1  0  0  0  0
 17 19  2  0  0  0  0
 15 16  1  0  0  0  0
 15 17  1  0  0  0  0
 14 15  1  0  0  0  0
 14 20  2  0  0  0  0
 11 12  1  0  0  0  0
 11 13  1  0  0  0  0
 11 14  1  0  0  0  0
  9 10  1  0  0  0  0
  9 11  1  0  0  0  0
  9 22  1  0  0  0  0
  7  8  1  0  0  0  0
  7  9  1  0  0  0  0
 26 27  1  0  0  0  0
 26 28  1  0  0  0  0
 26 29  1  0  0  0  0
 24 25  1  0  0  0  0
 24 26  1  0  0  0  0
M  END
$$$$
default_name
  -OEChem-01062215323D

 29 29  0     1  0  0  0  0  0999 V2000
   -3.6042   -3.5728    1.4576 H   0  0  0  0  0  0  0  0  0  0  0  0
   -3.5202   -2.6488    0.8866 C   0  0  0  0  0  0  0  0  0  0  0  0
   -4.2052   -1.9048    1.2896 H   0  0  0  0  0  0  0  0  0  0  0  0
   -3.7552   -2.8428   -0.1584 H   0  0  0  0  0  0  0  0  0  0  0  0
   -2.1052   -2.1358    0.9946 C   0  0  0  0  0  0  0  0  0  0  0  0
   -1.2852   -2.7288    1.6826 O   0  0  0  0  0  0  0  0  0  0  0  0
   -1.8202   -1.0288    0.3146 N   0  0  0  0  0  0  0  0  0  0  0  0
   -2.5542   -0.5788   -0.2104 H   0  0  0  0  0  0  0  0  0  0  0  0
   -0.5102   -0.3728    0.3086 C   0  0  1  0  0  0  0  0  0  0  0  0
   -0.3887    0.1737    1.2450 H   0  0  0  0  0  0  0  0  0  0  0  0
    0.5916   -1.4459    0.2343 C   0  0  0  0  0  0  0  0  0  0  0  0
    0.4354   -2.0574   -0.6562 H   0  0  0  0  0  0  0  0  0  0  0  0
    1.5612   -0.9541    0.1379 H   0  0  0  0  0  0  0  0  0  0  0  0
    0.6331   -2.3526    1.4370 C   0  0  0  0  0  0  0  0  0  0  0  0
    1.1200   -2.0299    2.6855 N   0  0  0  0  0  0  0  0  0  0  0  0
    1.5832   -1.1702    2.9395 H   0  0  0  0  0  0  0  0  0  0  0  0
    0.8751   -3.0645    3.5072 C   0  0  0  0  0  0  0  0  0  0  0  0
    1.1472   -3.1099    4.5547 H   0  0  0  0  0  0  0  0  0  0  0  0
    0.2376   -4.0417    2.8463 N   0  0  0  0  0  0  0  0  0  0  0  0
    0.0819   -3.6029    1.5288 C   0  0  0  0  0  0  0  0  0  0  0  0
   -0.4175   -4.1383    0.7317 H   0  0  0  0  0  0  0  0  0  0  0  0
   -0.4119    0.6411   -0.8439 C   0  0  0  0  0  0  0  0  0  0  0  0
   -0.7913    0.3330   -1.9734 O   0  0  0  0  0  0  0  0  0  0  0  0
    0.1119    1.8413   -0.5651 N   0  0  0  0  0  0  0  0  0  0  0  0
    0.4501    1.9987    0.3729 H   0  0  0  0  0  0  0  0  0  0  0  0
    0.2718    2.9182   -1.5387 C   0  0  0  0  0  0  0  0  0  0  0  0
   -0.7029    3.1949   -1.9469 H   0  0  0  0  0  0  0  0  0  0  0  0
    0.7219    3.7899   -1.0629 H   0  0  0  0  0  0  0  0  0  0  0  0
    0.9105    2.5854   -2.3584 H   0  0  0  0  0  0  0  0  0  0  0  0
  5  6  2  0  0  0  0
  5  7  1  0  0  0  0
  2  3  1  0  0  0  0
  2  4  1  0  0  0  0
  2  5  1  0  0  0  0
  1  2  1  0  0  0  0
 22 23  2  0  0  0  0
 22 24  1  0  0  0  0
 20 21  1  0  0  0  0
 19 20  1  0  0  0  0
 17 18  1  0  0  0  0
 17 19  2  0  0  0  0
 15 16  1  0  0  0  0
 15 17  1  0  0  0  0
 14 15  1  0  0  0  0
 14 20  2  0  0  0  0
 11 12  1  0  0  0  0
 11 13  1  0  0  0  0
 11 14  1  0  0  0  0
  9 10  1  0  0  0  0
  9 11  1  0  0  0  0
  9 22  1  0  0  0  0
  7  8  1  0  0  0  0
  7  9  1  0  0  0  0
 26 27  1  0  0  0  0
 26 28  1  0  0  0  0
 26 29  1  0  0  0  0
 24 25  1  0  0  0  0
 24 26  1  0  0  0  0
M  END
$$$$
default_name
  -OEChem-01062215323D

 29 29  0     1  0  0  0  0  0999 V2000
   -3.6042   -3.5728    1.4576 H   0  0  0  0  0  0  0  0  0  0  0  0
   -3.5202   -2.6488    0.8866 C   0  0  0  0  0  0  0  0  0  0  0  0
   -4.2052   -1.9048    1.2896 H   0  0  0  0  0  0  0  0  0  0  0  0
   -3.7552   -2.8428   -0.1584 H   0  0  0  0  0  0  0  0  0  0  0  0
   -2.1052   -2.1358    0.9946 C   0  0  0  0  0  0  0  0  0  0  0  0
   -1.2852   -2.7288    1.6826 O   0  0  0  0  0  0  0  0  0  0  0  0
   -1.8202   -1.0288    0.3146 N   0  0  0  0  0  0  0  0  0  0  0  0
   -2.5542   -0.5788   -0.2104 H   0  0  0  0  0  0  0  0  0  0  0  0
   -0.5102   -0.3728    0.3086 C   0  0  1  0  0  0  0  0  0  0  0  0
   -0.3887    0.1737    1.2450 H   0  0  0  0  0  0  0  0  0  0  0  0
    0.5916   -1.4459    0.2343 C   0  0  0  0  0  0  0  0  0  0  0  0
    0.4354   -2.0574   -0.6562 H   0  0  0  0  0  0  0  0  0  0  0  0
    1.5612   -0.9541    0.1379 H   0  0  0  0  0  0  0  0  0  0  0  0
    0.6331   -2.3526    1.4370 C   0  0  0  0  0  0  0  0  0  0  0  0
    1.1200   -2.0299    2.6855 N   0  0  0  0  0  0  0  0  0  0  0  0
    1.5832   -1.1702    2.9395 H   0  0  0  0  0  0  0  0  0  0  0  0
    0.8751   -3.0645    3.5072 C   0  0  0  0  0  0  0  0  0  0  0  0
    1.1472   -3.1099    4.5547 H   0  0  0  0  0  0  0  0  0  0  0  0
    0.2376   -4.0417    2.8463 N   0  0  0  0  0  0  0  0  0  0  0  0
    0.0819   -3.6029    1.5288 C   0  0  0  0  0  0  0  0  0  0  0  0
   -0.4175   -4.1383    0.7317 H   0  0  0  0  0  0  0  0  0  0  0  0
   -0.4119    0.6411   -0.8439 C   0  0  0  0  0  0  0  0  0  0  0  0
   -1.0295    0.4496   -1.8911 O   0  0  0  0  0  0  0  0  0  0  0  0
    0.3757    1.7081   -0.6599 N   0  0  0  0  0  0  0  0  0  0  0  0
    0.8917    1.7660    0.2058 H   0  0  0  0  0  0  0  0  0  0  0  0
    0.5761    2.7659   -1.6467 C   0  0  0  0  0  0  0  0  0  0  0  0
   -0.3805    3.2385   -1.8810 H   0  0  0  0  0  0  0  0  0  0  0  0
    1.2616    3.5183   -1.2558 H   0  0  0  0  0  0  0  0  0  0  0  0
    0.9895    2.3440   -2.5641 H   0  0  0  0  0  0  0  0  0  0  0  0
  5  6  2  0  0  0  0
  5  7  1  0  0  0  0
  2  3  1  0  0  0  0
  2  4  1  0  0  0  0
  2  5  1  0  0  0  0
  1  2  1  0  0  0  0
 22 23  2  0  0  0  0
 22 24  1  0  0  0  0
 20 21  1  0  0  0  0
 19 20  1  0  0  0  0
 17 18  1  0  0  0  0
 17 19  2  0  0  0  0
 15 16  1  0  0  0  0
 15 17  1  0  0  0  0
 14 15  1  0  0  0  0
 14 20  2  0  0  0  0
 11 12  1  0  0  0  0
 11 13  1  0  0  0  0
 11 14  1  0  0  0  0
  9 10  1  0  0  0  0
  9 11  1  0  0  0  0
  9 22  1  0  0  0  0
  7  8  1  0  0  0  0
  7  9  1  0  0  0  0
 26 27  1  0  0  0  0
 26 28  1  0  0  0  0
 26 29  1  0  0  0  0
 24 25  1  0  0  0  0
 24 26  1  0  0  0  0
M  END
$$$$
default_name
  -OEChem-01062215323D

 29 29  0     1  0  0  0  0  0999 V2000
   -3.6042   -3.5728    1.4576 H   0  0  0  0  0  0  0  0  0  0  0  0
   -3.5202   -2.6488    0.8866 C   0  0  0  0  0  0  0  0  0  0  0  0
   -4.2052   -1.9048    1.2896 H   0  0  0  0  0  0  0  0  0  0  0  0
   -3.7552   -2.8428   -0.1584 H   0  0  0  0  0  0  0  0  0  0  0  0
   -2.1052   -2.1358    0.9946 C   0  0  0  0  0  0  0  0  0  0  0  0
   -1.2852   -2.7288    1.6826 O   0  0  0  0  0  0  0  0  0  0  0  0
   -1.8202   -1.0288    0.3146 N   0  0  0  0  0  0  0  0  0  0  0  0
   -2.5542   -0.5788   -0.2104 H   0  0  0  0  0  0  0  0  0  0  0  0
   -0.5102   -0.3728    0.3086 C   0  0  1  0  0  0  0  0  0  0  0  0
   -0.3887    0.1737    1.2450 H   0  0  0  0  0  0  0  0  0  0  0  0
    0.5916   -1.4459    0.2343 C   0  0  0  0  0  0  0  0  0  0  0  0
    0.4354   -2.0574   -0.6562 H   0  0  0  0  0  0  0  0  0  0  0  0
    1.5612   -0.9541    0.1379 H   0  0  0  0  0  0  0  0  0  0  0  0
    0.6331   -2.3526    1.4370 C   0  0  0  0  0  0  0  0  0  0  0  0
    1.1200   -2.0299    2.6855 N   0  0  0  0  0  0  0  0  0  0  0  0
    1.5832   -1.1702    2.9395 H   0  0  0  0  0  0  0  0  0  0  0  0
    0.8751   -3.0645    3.5072 C   0  0  0  0  0  0  0  0  0  0  0  0
    1.1472   -3.1099    4.5547 H   0  0  0  0  0  0  0  0  0  0  0  0
    0.2376   -4.0417    2.8463 N   0  0  0  0  0  0  0  0  0  0  0  0
    0.0819   -3.6029    1.5288 C   0  0  0  0  0  0  0  0  0  0  0  0
   -0.4175   -4.1383    0.7317 H   0  0  0  0  0  0  0  0  0  0  0  0
   -0.4119    0.6411   -0.8439 C   0  0  0  0  0  0  0  0  0  0  0  0
   -1.2229    0.6072   -1.7690 O   0  0  0  0  0  0  0  0  0  0  0  0
    0.5885    1.5297   -0.7985 N   0  0  0  0  0  0  0  0  0  0  0  0
    1.2446    1.4584   -0.0347 H   0  0  0  0  0  0  0  0  0  0  0  0
    0.8220    2.5616   -1.8055 C   0  0  0  0  0  0  0  0  0  0  0  0
   -0.0494    3.2170   -1.8717 H   0  0  0  0  0  0  0  0  0  0  0  0
    1.6973    3.1545   -1.5387 H   0  0  0  0  0  0  0  0  0  0  0  0
    0.9840    2.0988   -2.7802 H   0  0  0  0  0  0  0  0  0  0  0  0
  5  6  2  0  0  0  0
  5  7  1  0  0  0  0
  2  3  1  0  0  0  0
  2  4  1  0  0  0  0
  2  5  1  0  0  0  0
  1  2  1  0  0  0  0
 22 23  2  0  0  0  0
 22 24  1  0  0  0  0
 20 21  1  0  0  0  0
 19 20  1  0  0  0  0
 17 18  1  0  0  0  0
 17 19  2  0  0  0  0
 15 16  1  0  0  0  0
 15 17  1  0  0  0  0
 14 15  1  0  0  0  0
 14 20  2  0  0  0  0
 11 12  1  0  0  0  0
 11 13  1  0  0  0  0
 11 14  1  0  0  0  0
  9 10  1  0  0  0  0
  9 11  1  0  0  0  0
  9 22  1  0  0  0  0
  7  8  1  0  0  0  0
  7  9  1  0  0  0  0
 26 27  1  0  0  0  0
 26 28  1  0  0  0  0
 26 29  1  0  0  0  0
 24 25  1  0  0  0  0
 24 26  1  0  0  0  0
M  END
$$$$
