@<TRIPOS>MOLECULE
default_name
   23    22     1     0     0
SMALL
No Charge or Current Charge


@<TRIPOS>ATOM
      1 N           27.1790    26.8130    24.0740 N.4        1 NGL       0.000000
      2 H1          27.2410    25.8800    24.4520 H          1 NGL       0.000000
      3 H2          27.0480    26.7640    23.0760 H          1 NGL       0.000000
      4 H3          26.3750    27.2850    24.4920 H          1 NGL       0.000000
      5 CA          28.4180    27.5710    24.3950 C.3        1 NGL       0.000000
      6 HA          28.3460    28.5540    23.9270 H          1 NGL       0.000000
      7 CB          28.5940    27.7950    25.9170 C.3        1 NGL       0.000000
      8 HB2         28.3860    26.8540    26.4280 H          1 NGL       0.000000
      9 HB3         29.6290    28.0640    26.1300 H          1 NGL       0.000000
     10 CG          27.6930    28.8990    26.5100 C.3        1 NGL       0.000000
     11 HG2         27.5370    28.7150    27.5740 H          1 NGL       0.000000
     12 HG3         28.1990    29.8610    26.3980 H          1 NGL       0.000000
     13 CD          26.3620    28.9440    25.7710 C.2        1 NGL       0.000000
     14 OE1         26.3700    29.5830    24.6990 O.co2      1 NGL       0.000000
     15 OE2         25.5770    27.9900    25.9510 O.co2      1 NGL       0.000000
     16 C           29.6230    26.8650    23.7870 C.2        1 NGL       0.000000
     17 O           29.4940    25.7080    23.3960 O.2        1 NGL       0.000000
     18 N           30.7680    27.5510    23.6790 N.am       2 NME      -0.415700
     19 H           30.7950    28.5000    24.0220 H          2 NME       0.271900
     20 CH3         31.9980    27.0110    23.0990 C.3        2 NME      -0.149000
     21 HH31        32.0570    25.9330    23.2690 H          2 NME       0.097600
     22 HH32        32.0150    27.1970    22.0240 H          2 NME       0.097600
     23 HH33        32.8680    27.4850    23.5570 H          2 NME       0.097600
@<TRIPOS>BOND
     1    16    17 2   
     2    16    18 am  
     3    13    14 1   
     4    13    15 1   
     5    10    11 1   
     6    10    12 1   
     7    10    13 1   
     8     7     8 1   
     9     7     9 1   
    10     7    10 1   
    11     5     6 1   
    12     5     7 1   
    13     5    16 1   
    14     1     2 1   
    15     1     3 1   
    16     1     4 1   
    17     1     5 1   
    18    20    21 1   
    19    20    22 1   
    20    20    23 1   
    21    18    19 1   
    22    18    20 1   
@<TRIPOS>SUBSTRUCTURE
     1 NGL         1 TEMP              0 ****  ****    0 ROOT
