default_name
  -OEChem-02102213163D

 34 33  0     1  0  0  0  0  0999 V2000
   -3.8899   -3.6747    1.6490 H   0  0  0  0  0  0  0  0  0  0  0  0
   -3.9109   -2.6717    1.2250 C   0  0  0  0  0  0  0  0  0  0  0  0
   -4.6009   -2.0517    1.7950 H   0  0  0  0  0  0  0  0  0  0  0  0
   -4.2309   -2.7237    0.1860 H   0  0  0  0  0  0  0  0  0  0  0  0
   -2.5229   -2.0787    1.2980 C   0  0  0  0  0  0  0  0  0  0  0  0
   -1.5999   -2.7227    1.7810 O   0  0  0  0  0  0  0  0  0  0  0  0
   -2.3659   -0.8447    0.8120 N   0  0  0  0  0  0  0  0  0  0  0  0
   -3.1749   -0.3807    0.4220 H   0  0  0  0  0  0  0  0  0  0  0  0
   -1.0919   -0.1077    0.8170 C   0  0  1  0  0  0  0  0  0  0  0  0
   -0.4136   -0.6011    1.5155 H   0  0  0  0  0  0  0  0  0  0  0  0
   -0.4834   -0.1723   -0.5965 C   0  0  0  0  0  0  0  0  0  0  0  0
   -0.3215   -1.2193   -0.8577 H   0  0  0  0  0  0  0  0  0  0  0  0
   -1.1913    0.2511   -1.3116 H   0  0  0  0  0  0  0  0  0  0  0  0
    0.8580    0.5676   -0.7138 C   0  0  0  0  0  0  0  0  0  0  0  0
    0.7207    1.6196   -0.4603 H   0  0  0  0  0  0  0  0  0  0  0  0
    1.5749    0.1243   -0.0198 H   0  0  0  0  0  0  0  0  0  0  0  0
    1.4037    0.4615   -2.1445 C   0  0  0  0  0  0  0  0  0  0  0  0
    1.5259   -0.5936   -2.4007 H   0  0  0  0  0  0  0  0  0  0  0  0
    0.6876    0.9143   -2.8332 H   0  0  0  0  0  0  0  0  0  0  0  0
    2.7548    1.1786   -2.2570 C   0  0  0  0  0  0  0  0  0  0  0  0
    2.6127    2.2307   -1.9893 H   0  0  0  0  0  0  0  0  0  0  0  0
    3.4438    0.7380   -1.5300 H   0  0  0  0  0  0  0  0  0  0  0  0
    3.3176    1.0711   -3.6268 N   0  3  0  0  0  0  0  0  0  0  0  0
    2.6891    1.4866   -4.3029 H   0  0  0  0  0  0  0  0  0  0  0  0
    4.2084    1.5486   -3.6841 H   0  0  0  0  0  0  0  0  0  0  0  0
    3.4593    0.0992   -3.8760 H   0  0  0  0  0  0  0  0  0  0  0  0
   -1.3103    1.3348    1.2791 C   0  0  0  0  0  0  0  0  0  0  0  0
   -2.2333    1.9891    0.8084 O   0  0  0  0  0  0  0  0  0  0  0  0
   -0.4429    1.8293    2.1683 N   0  0  0  0  0  0  0  0  0  0  0  0
    0.2668    1.2118    2.5263 H   0  0  0  0  0  0  0  0  0  0  0  0
   -0.5118    3.1863    2.7135 C   0  0  0  0  0  0  0  0  0  0  0  0
   -1.4470    3.3159    3.2625 H   0  0  0  0  0  0  0  0  0  0  0  0
    0.3243    3.3682    3.3896 H   0  0  0  0  0  0  0  0  0  0  0  0
   -0.4850    3.9172    1.9023 H   0  0  0  0  0  0  0  0  0  0  0  0
  5  6  2  0  0  0  0
  5  7  1  0  0  0  0
  2  3  1  0  0  0  0
  2  4  1  0  0  0  0
  2  5  1  0  0  0  0
  1  2  1  0  0  0  0
 27 28  2  0  0  0  0
 27 29  1  0  0  0  0
 23 24  1  0  0  0  0
 23 25  1  0  0  0  0
 23 26  1  0  0  0  0
 20 21  1  0  0  0  0
 20 22  1  0  0  0  0
 20 23  1  0  0  0  0
 17 18  1  0  0  0  0
 17 19  1  0  0  0  0
 17 20  1  0  0  0  0
 14 15  1  0  0  0  0
 14 16  1  0  0  0  0
 14 17  1  0  0  0  0
 11 12  1  0  0  0  0
 11 13  1  0  0  0  0
 11 14  1  0  0  0  0
  9 10  1  0  0  0  0
  9 11  1  0  0  0  0
  9 27  1  0  0  0  0
  7  8  1  0  0  0  0
  7  9  1  0  0  0  0
 31 32  1  0  0  0  0
 31 33  1  0  0  0  0
 31 34  1  0  0  0  0
 29 30  1  0  0  0  0
 29 31  1  0  0  0  0
M  CHG  1  23   1
M  END
$$$$
default_name
  -OEChem-02102213163D

 34 33  0     1  0  0  0  0  0999 V2000
   -3.8899   -3.6747    1.6490 H   0  0  0  0  0  0  0  0  0  0  0  0
   -3.9109   -2.6717    1.2250 C   0  0  0  0  0  0  0  0  0  0  0  0
   -4.6009   -2.0517    1.7950 H   0  0  0  0  0  0  0  0  0  0  0  0
   -4.2309   -2.7237    0.1860 H   0  0  0  0  0  0  0  0  0  0  0  0
   -2.5229   -2.0787    1.2980 C   0  0  0  0  0  0  0  0  0  0  0  0
   -1.5999   -2.7227    1.7810 O   0  0  0  0  0  0  0  0  0  0  0  0
   -2.3659   -0.8447    0.8120 N   0  0  0  0  0  0  0  0  0  0  0  0
   -3.1749   -0.3807    0.4220 H   0  0  0  0  0  0  0  0  0  0  0  0
   -1.0919   -0.1077    0.8170 C   0  0  1  0  0  0  0  0  0  0  0  0
   -0.4136   -0.6011    1.5155 H   0  0  0  0  0  0  0  0  0  0  0  0
   -0.4834   -0.1723   -0.5965 C   0  0  0  0  0  0  0  0  0  0  0  0
   -0.3215   -1.2193   -0.8577 H   0  0  0  0  0  0  0  0  0  0  0  0
   -1.1913    0.2511   -1.3116 H   0  0  0  0  0  0  0  0  0  0  0  0
    0.8580    0.5676   -0.7138 C   0  0  0  0  0  0  0  0  0  0  0  0
    0.7887    1.5352   -0.2150 H   0  0  0  0  0  0  0  0  0  0  0  0
    1.6389   -0.0257   -0.2339 H   0  0  0  0  0  0  0  0  0  0  0  0
    1.2205    0.7864   -2.1891 C   0  0  0  0  0  0  0  0  0  0  0  0
    1.2745   -0.1835   -2.6893 H   0  0  0  0  0  0  0  0  0  0  0  0
    0.4414    1.3877   -2.6619 H   0  0  0  0  0  0  0  0  0  0  0  0
    2.5714    1.5030   -2.3081 C   0  0  0  0  0  0  0  0  0  0  0  0
    2.4991    2.4675   -1.7951 H   0  0  0  0  0  0  0  0  0  0  0  0
    3.3288    0.9050   -1.7923 H   0  0  0  0  0  0  0  0  0  0  0  0
    2.9583    1.7064   -3.7271 N   0  3  0  0  0  0  0  0  0  0  0  0
    2.2664    2.2681   -4.2072 H   0  0  0  0  0  0  0  0  0  0  0  0
    3.8512    2.1797   -3.7883 H   0  0  0  0  0  0  0  0  0  0  0  0
    3.0353    0.8158   -4.2043 H   0  0  0  0  0  0  0  0  0  0  0  0
   -1.3103    1.3348    1.2791 C   0  0  0  0  0  0  0  0  0  0  0  0
   -2.2333    1.9891    0.8084 O   0  0  0  0  0  0  0  0  0  0  0  0
   -0.4429    1.8293    2.1683 N   0  0  0  0  0  0  0  0  0  0  0  0
    0.2668    1.2118    2.5263 H   0  0  0  0  0  0  0  0  0  0  0  0
   -0.5118    3.1863    2.7135 C   0  0  0  0  0  0  0  0  0  0  0  0
   -1.4470    3.3159    3.2625 H   0  0  0  0  0  0  0  0  0  0  0  0
    0.3243    3.3682    3.3896 H   0  0  0  0  0  0  0  0  0  0  0  0
   -0.4850    3.9172    1.9023 H   0  0  0  0  0  0  0  0  0  0  0  0
  5  6  2  0  0  0  0
  5  7  1  0  0  0  0
  2  3  1  0  0  0  0
  2  4  1  0  0  0  0
  2  5  1  0  0  0  0
  1  2  1  0  0  0  0
 27 28  2  0  0  0  0
 27 29  1  0  0  0  0
 23 24  1  0  0  0  0
 23 25  1  0  0  0  0
 23 26  1  0  0  0  0
 20 21  1  0  0  0  0
 20 22  1  0  0  0  0
 20 23  1  0  0  0  0
 17 18  1  0  0  0  0
 17 19  1  0  0  0  0
 17 20  1  0  0  0  0
 14 15  1  0  0  0  0
 14 16  1  0  0  0  0
 14 17  1  0  0  0  0
 11 12  1  0  0  0  0
 11 13  1  0  0  0  0
 11 14  1  0  0  0  0
  9 10  1  0  0  0  0
  9 11  1  0  0  0  0
  9 27  1  0  0  0  0
  7  8  1  0  0  0  0
  7  9  1  0  0  0  0
 31 32  1  0  0  0  0
 31 33  1  0  0  0  0
 31 34  1  0  0  0  0
 29 30  1  0  0  0  0
 29 31  1  0  0  0  0
M  CHG  1  23   1
M  END
$$$$
default_name
  -OEChem-02102213163D

 34 33  0     1  0  0  0  0  0999 V2000
   -3.8899   -3.6747    1.6490 H   0  0  0  0  0  0  0  0  0  0  0  0
   -3.9109   -2.6717    1.2250 C   0  0  0  0  0  0  0  0  0  0  0  0
   -4.6009   -2.0517    1.7950 H   0  0  0  0  0  0  0  0  0  0  0  0
   -4.2309   -2.7237    0.1860 H   0  0  0  0  0  0  0  0  0  0  0  0
   -2.5229   -2.0787    1.2980 C   0  0  0  0  0  0  0  0  0  0  0  0
   -1.5999   -2.7227    1.7810 O   0  0  0  0  0  0  0  0  0  0  0  0
   -2.3659   -0.8447    0.8120 N   0  0  0  0  0  0  0  0  0  0  0  0
   -3.1749   -0.3807    0.4220 H   0  0  0  0  0  0  0  0  0  0  0  0
   -1.0919   -0.1077    0.8170 C   0  0  1  0  0  0  0  0  0  0  0  0
   -0.4136   -0.6011    1.5155 H   0  0  0  0  0  0  0  0  0  0  0  0
   -0.4834   -0.1723   -0.5965 C   0  0  0  0  0  0  0  0  0  0  0  0
   -0.3215   -1.2193   -0.8577 H   0  0  0  0  0  0  0  0  0  0  0  0
   -1.1913    0.2511   -1.3116 H   0  0  0  0  0  0  0  0  0  0  0  0
    0.8580    0.5676   -0.7138 C   0  0  0  0  0  0  0  0  0  0  0  0
    0.8832    1.3969   -0.0057 H   0  0  0  0  0  0  0  0  0  0  0  0
    1.6710   -0.1234   -0.4826 H   0  0  0  0  0  0  0  0  0  0  0  0
    1.0445    1.1140   -2.1360 C   0  0  0  0  0  0  0  0  0  0  0  0
    1.0038    0.2827   -2.8440 H   0  0  0  0  0  0  0  0  0  0  0  0
    0.2343    1.8112   -2.3587 H   0  0  0  0  0  0  0  0  0  0  0  0
    2.3943    1.8315   -2.2614 C   0  0  0  0  0  0  0  0  0  0  0  0
    2.4182    2.6546   -1.5398 H   0  0  0  0  0  0  0  0  0  0  0  0
    3.1883    1.1278   -1.9935 H   0  0  0  0  0  0  0  0  0  0  0  0
    2.6114    2.3499   -3.6357 N   0  3  0  0  0  0  0  0  0  0  0  0
    1.8854    3.0097   -3.8854 H   0  0  0  0  0  0  0  0  0  0  0  0
    3.5057    2.8198   -3.7017 H   0  0  0  0  0  0  0  0  0  0  0  0
    2.5990    1.5906   -4.3066 H   0  0  0  0  0  0  0  0  0  0  0  0
   -1.3103    1.3348    1.2791 C   0  0  0  0  0  0  0  0  0  0  0  0
   -2.2333    1.9891    0.8084 O   0  0  0  0  0  0  0  0  0  0  0  0
   -0.4429    1.8293    2.1683 N   0  0  0  0  0  0  0  0  0  0  0  0
    0.2668    1.2118    2.5263 H   0  0  0  0  0  0  0  0  0  0  0  0
   -0.5118    3.1863    2.7135 C   0  0  0  0  0  0  0  0  0  0  0  0
   -1.4470    3.3159    3.2625 H   0  0  0  0  0  0  0  0  0  0  0  0
    0.3243    3.3682    3.3896 H   0  0  0  0  0  0  0  0  0  0  0  0
   -0.4850    3.9172    1.9023 H   0  0  0  0  0  0  0  0  0  0  0  0
  5  6  2  0  0  0  0
  5  7  1  0  0  0  0
  2  3  1  0  0  0  0
  2  4  1  0  0  0  0
  2  5  1  0  0  0  0
  1  2  1  0  0  0  0
 27 28  2  0  0  0  0
 27 29  1  0  0  0  0
 23 24  1  0  0  0  0
 23 25  1  0  0  0  0
 23 26  1  0  0  0  0
 20 21  1  0  0  0  0
 20 22  1  0  0  0  0
 20 23  1  0  0  0  0
 17 18  1  0  0  0  0
 17 19  1  0  0  0  0
 17 20  1  0  0  0  0
 14 15  1  0  0  0  0
 14 16  1  0  0  0  0
 14 17  1  0  0  0  0
 11 12  1  0  0  0  0
 11 13  1  0  0  0  0
 11 14  1  0  0  0  0
  9 10  1  0  0  0  0
  9 11  1  0  0  0  0
  9 27  1  0  0  0  0
  7  8  1  0  0  0  0
  7  9  1  0  0  0  0
 31 32  1  0  0  0  0
 31 33  1  0  0  0  0
 31 34  1  0  0  0  0
 29 30  1  0  0  0  0
 29 31  1  0  0  0  0
M  CHG  1  23   1
M  END
$$$$
default_name
  -OEChem-02102213163D

 34 33  0     1  0  0  0  0  0999 V2000
   -3.8899   -3.6747    1.6490 H   0  0  0  0  0  0  0  0  0  0  0  0
   -3.9109   -2.6717    1.2250 C   0  0  0  0  0  0  0  0  0  0  0  0
   -4.6009   -2.0517    1.7950 H   0  0  0  0  0  0  0  0  0  0  0  0
   -4.2309   -2.7237    0.1860 H   0  0  0  0  0  0  0  0  0  0  0  0
   -2.5229   -2.0787    1.2980 C   0  0  0  0  0  0  0  0  0  0  0  0
   -1.5999   -2.7227    1.7810 O   0  0  0  0  0  0  0  0  0  0  0  0
   -2.3659   -0.8447    0.8120 N   0  0  0  0  0  0  0  0  0  0  0  0
   -3.1749   -0.3807    0.4220 H   0  0  0  0  0  0  0  0  0  0  0  0
   -1.0919   -0.1077    0.8170 C   0  0  1  0  0  0  0  0  0  0  0  0
   -0.4136   -0.6011    1.5155 H   0  0  0  0  0  0  0  0  0  0  0  0
   -0.4834   -0.1723   -0.5965 C   0  0  0  0  0  0  0  0  0  0  0  0
   -0.3215   -1.2193   -0.8577 H   0  0  0  0  0  0  0  0  0  0  0  0
   -1.1913    0.2511   -1.3116 H   0  0  0  0  0  0  0  0  0  0  0  0
    0.8580    0.5676   -0.7138 C   0  0  0  0  0  0  0  0  0  0  0  0
    0.9979    1.2142    0.1535 H   0  0  0  0  0  0  0  0  0  0  0  0
    1.6692   -0.1622   -0.7489 H   0  0  0  0  0  0  0  0  0  0  0  0
    0.8876    1.4218   -1.9887 C   0  0  0  0  0  0  0  0  0  0  0  0
    0.7322    0.7734   -2.8543 H   0  0  0  0  0  0  0  0  0  0  0  0
    0.0805    2.1558   -1.9444 H   0  0  0  0  0  0  0  0  0  0  0  0
    2.2356    2.1417   -2.1199 C   0  0  0  0  0  0  0  0  0  0  0  0
    2.3756    2.7791   -1.2408 H   0  0  0  0  0  0  0  0  0  0  0  0
    3.0319    1.3913   -2.1200 H   0  0  0  0  0  0  0  0  0  0  0  0
    2.3004    2.9576   -3.3587 N   0  3  0  0  0  0  0  0  0  0  0  0
    1.5722    3.6609   -3.3596 H   0  0  0  0  0  0  0  0  0  0  0  0
    3.1953    3.4254   -3.4304 H   0  0  0  0  0  0  0  0  0  0  0  0
    2.1801    2.3707   -4.1760 H   0  0  0  0  0  0  0  0  0  0  0  0
   -1.3103    1.3348    1.2791 C   0  0  0  0  0  0  0  0  0  0  0  0
   -2.2333    1.9891    0.8084 O   0  0  0  0  0  0  0  0  0  0  0  0
   -0.4429    1.8293    2.1683 N   0  0  0  0  0  0  0  0  0  0  0  0
    0.2668    1.2118    2.5263 H   0  0  0  0  0  0  0  0  0  0  0  0
   -0.5118    3.1863    2.7135 C   0  0  0  0  0  0  0  0  0  0  0  0
   -1.4470    3.3159    3.2625 H   0  0  0  0  0  0  0  0  0  0  0  0
    0.3243    3.3682    3.3896 H   0  0  0  0  0  0  0  0  0  0  0  0
   -0.4850    3.9172    1.9023 H   0  0  0  0  0  0  0  0  0  0  0  0
  5  6  2  0  0  0  0
  5  7  1  0  0  0  0
  2  3  1  0  0  0  0
  2  4  1  0  0  0  0
  2  5  1  0  0  0  0
  1  2  1  0  0  0  0
 27 28  2  0  0  0  0
 27 29  1  0  0  0  0
 23 24  1  0  0  0  0
 23 25  1  0  0  0  0
 23 26  1  0  0  0  0
 20 21  1  0  0  0  0
 20 22  1  0  0  0  0
 20 23  1  0  0  0  0
 17 18  1  0  0  0  0
 17 19  1  0  0  0  0
 17 20  1  0  0  0  0
 14 15  1  0  0  0  0
 14 16  1  0  0  0  0
 14 17  1  0  0  0  0
 11 12  1  0  0  0  0
 11 13  1  0  0  0  0
 11 14  1  0  0  0  0
  9 10  1  0  0  0  0
  9 11  1  0  0  0  0
  9 27  1  0  0  0  0
  7  8  1  0  0  0  0
  7  9  1  0  0  0  0
 31 32  1  0  0  0  0
 31 33  1  0  0  0  0
 31 34  1  0  0  0  0
 29 30  1  0  0  0  0
 29 31  1  0  0  0  0
M  CHG  1  23   1
M  END
$$$$
default_name
  -OEChem-02102213163D

 34 33  0     1  0  0  0  0  0999 V2000
   -3.8899   -3.6747    1.6490 H   0  0  0  0  0  0  0  0  0  0  0  0
   -3.9109   -2.6717    1.2250 C   0  0  0  0  0  0  0  0  0  0  0  0
   -4.6009   -2.0517    1.7950 H   0  0  0  0  0  0  0  0  0  0  0  0
   -4.2309   -2.7237    0.1860 H   0  0  0  0  0  0  0  0  0  0  0  0
   -2.5229   -2.0787    1.2980 C   0  0  0  0  0  0  0  0  0  0  0  0
   -1.5999   -2.7227    1.7810 O   0  0  0  0  0  0  0  0  0  0  0  0
   -2.3659   -0.8447    0.8120 N   0  0  0  0  0  0  0  0  0  0  0  0
   -3.1749   -0.3807    0.4220 H   0  0  0  0  0  0  0  0  0  0  0  0
   -1.0919   -0.1077    0.8170 C   0  0  1  0  0  0  0  0  0  0  0  0
   -0.4136   -0.6011    1.5155 H   0  0  0  0  0  0  0  0  0  0  0  0
   -0.4834   -0.1723   -0.5965 C   0  0  0  0  0  0  0  0  0  0  0  0
   -0.3215   -1.2193   -0.8577 H   0  0  0  0  0  0  0  0  0  0  0  0
   -1.1913    0.2511   -1.3116 H   0  0  0  0  0  0  0  0  0  0  0  0
    0.8580    0.5676   -0.7138 C   0  0  0  0  0  0  0  0  0  0  0  0
    1.1250    0.9995    0.2517 H   0  0  0  0  0  0  0  0  0  0  0  0
    1.6334   -0.1396   -1.0147 H   0  0  0  0  0  0  0  0  0  0  0  0
    0.7604    1.6890   -1.7573 C   0  0  0  0  0  0  0  0  0  0  0  0
    0.4783    1.2551   -2.7196 H   0  0  0  0  0  0  0  0  0  0  0  0
   -0.0097    2.3981   -1.4471 H   0  0  0  0  0  0  0  0  0  0  0  0
    2.1060    2.4125   -1.8934 C   0  0  0  0  0  0  0  0  0  0  0  0
    2.3742    2.8328   -0.9186 H   0  0  0  0  0  0  0  0  0  0  0  0
    2.8703    1.6774   -2.1632 H   0  0  0  0  0  0  0  0  0  0  0  0
    2.0465    3.4882   -2.9151 N   0  3  0  0  0  0  0  0  0  0  0  0
    1.3481    4.1773   -2.6655 H   0  0  0  0  0  0  0  0  0  0  0  0
    2.9414    3.9552   -2.9929 H   0  0  0  0  0  0  0  0  0  0  0  0
    1.8071    3.1030   -3.8213 H   0  0  0  0  0  0  0  0  0  0  0  0
   -1.3103    1.3348    1.2791 C   0  0  0  0  0  0  0  0  0  0  0  0
   -2.2333    1.9891    0.8084 O   0  0  0  0  0  0  0  0  0  0  0  0
   -0.4429    1.8293    2.1683 N   0  0  0  0  0  0  0  0  0  0  0  0
    0.2668    1.2118    2.5263 H   0  0  0  0  0  0  0  0  0  0  0  0
   -0.5118    3.1863    2.7135 C   0  0  0  0  0  0  0  0  0  0  0  0
   -1.4470    3.3159    3.2625 H   0  0  0  0  0  0  0  0  0  0  0  0
    0.3243    3.3682    3.3896 H   0  0  0  0  0  0  0  0  0  0  0  0
   -0.4850    3.9172    1.9023 H   0  0  0  0  0  0  0  0  0  0  0  0
  5  6  2  0  0  0  0
  5  7  1  0  0  0  0
  2  3  1  0  0  0  0
  2  4  1  0  0  0  0
  2  5  1  0  0  0  0
  1  2  1  0  0  0  0
 27 28  2  0  0  0  0
 27 29  1  0  0  0  0
 23 24  1  0  0  0  0
 23 25  1  0  0  0  0
 23 26  1  0  0  0  0
 20 21  1  0  0  0  0
 20 22  1  0  0  0  0
 20 23  1  0  0  0  0
 17 18  1  0  0  0  0
 17 19  1  0  0  0  0
 17 20  1  0  0  0  0
 14 15  1  0  0  0  0
 14 16  1  0  0  0  0
 14 17  1  0  0  0  0
 11 12  1  0  0  0  0
 11 13  1  0  0  0  0
 11 14  1  0  0  0  0
  9 10  1  0  0  0  0
  9 11  1  0  0  0  0
  9 27  1  0  0  0  0
  7  8  1  0  0  0  0
  7  9  1  0  0  0  0
 31 32  1  0  0  0  0
 31 33  1  0  0  0  0
 31 34  1  0  0  0  0
 29 30  1  0  0  0  0
 29 31  1  0  0  0  0
M  CHG  1  23   1
M  END
$$$$
default_name
  -OEChem-02102213163D

 34 33  0     1  0  0  0  0  0999 V2000
   -3.8899   -3.6747    1.6490 H   0  0  0  0  0  0  0  0  0  0  0  0
   -3.9109   -2.6717    1.2250 C   0  0  0  0  0  0  0  0  0  0  0  0
   -4.6009   -2.0517    1.7950 H   0  0  0  0  0  0  0  0  0  0  0  0
   -4.2309   -2.7237    0.1860 H   0  0  0  0  0  0  0  0  0  0  0  0
   -2.5229   -2.0787    1.2980 C   0  0  0  0  0  0  0  0  0  0  0  0
   -1.5999   -2.7227    1.7810 O   0  0  0  0  0  0  0  0  0  0  0  0
   -2.3659   -0.8447    0.8120 N   0  0  0  0  0  0  0  0  0  0  0  0
   -3.1749   -0.3807    0.4220 H   0  0  0  0  0  0  0  0  0  0  0  0
   -1.0919   -0.1077    0.8170 C   0  0  1  0  0  0  0  0  0  0  0  0
   -0.4136   -0.6011    1.5155 H   0  0  0  0  0  0  0  0  0  0  0  0
   -0.4834   -0.1723   -0.5965 C   0  0  0  0  0  0  0  0  0  0  0  0
   -0.3215   -1.2193   -0.8577 H   0  0  0  0  0  0  0  0  0  0  0  0
   -1.1913    0.2511   -1.3116 H   0  0  0  0  0  0  0  0  0  0  0  0
    0.8580    0.5676   -0.7138 C   0  0  0  0  0  0  0  0  0  0  0  0
    1.2557    0.7673    0.2821 H   0  0  0  0  0  0  0  0  0  0  0  0
    1.5662   -0.0569   -1.2618 H   0  0  0  0  0  0  0  0  0  0  0  0
    0.6718    1.8973   -1.4576 C   0  0  0  0  0  0  0  0  0  0  0  0
    0.2594    1.6949   -2.4489 H   0  0  0  0  0  0  0  0  0  0  0  0
   -0.0300    2.5215   -0.9008 H   0  0  0  0  0  0  0  0  0  0  0  0
    2.0144    2.6255   -1.5973 C   0  0  0  0  0  0  0  0  0  0  0  0
    2.4141    2.8118   -0.5951 H   0  0  0  0  0  0  0  0  0  0  0  0
    2.7144    1.9668   -2.1200 H   0  0  0  0  0  0  0  0  0  0  0  0
    1.8670    3.9055   -2.3350 N   0  3  0  0  0  0  0  0  0  0  0  0
    1.2283    4.5236   -1.8504 H   0  0  0  0  0  0  0  0  0  0  0  0
    2.7611    4.3731   -2.4188 H   0  0  0  0  0  0  0  0  0  0  0  0
    1.5056    3.7376   -3.2667 H   0  0  0  0  0  0  0  0  0  0  0  0
   -1.3103    1.3348    1.2791 C   0  0  0  0  0  0  0  0  0  0  0  0
   -2.2333    1.9891    0.8084 O   0  0  0  0  0  0  0  0  0  0  0  0
   -0.4429    1.8293    2.1683 N   0  0  0  0  0  0  0  0  0  0  0  0
    0.2668    1.2118    2.5263 H   0  0  0  0  0  0  0  0  0  0  0  0
   -0.5118    3.1863    2.7135 C   0  0  0  0  0  0  0  0  0  0  0  0
   -1.4470    3.3159    3.2625 H   0  0  0  0  0  0  0  0  0  0  0  0
    0.3243    3.3682    3.3896 H   0  0  0  0  0  0  0  0  0  0  0  0
   -0.4850    3.9172    1.9023 H   0  0  0  0  0  0  0  0  0  0  0  0
  5  6  2  0  0  0  0
  5  7  1  0  0  0  0
  2  3  1  0  0  0  0
  2  4  1  0  0  0  0
  2  5  1  0  0  0  0
  1  2  1  0  0  0  0
 27 28  2  0  0  0  0
 27 29  1  0  0  0  0
 23 24  1  0  0  0  0
 23 25  1  0  0  0  0
 23 26  1  0  0  0  0
 20 21  1  0  0  0  0
 20 22  1  0  0  0  0
 20 23  1  0  0  0  0
 17 18  1  0  0  0  0
 17 19  1  0  0  0  0
 17 20  1  0  0  0  0
 14 15  1  0  0  0  0
 14 16  1  0  0  0  0
 14 17  1  0  0  0  0
 11 12  1  0  0  0  0
 11 13  1  0  0  0  0
 11 14  1  0  0  0  0
  9 10  1  0  0  0  0
  9 11  1  0  0  0  0
  9 27  1  0  0  0  0
  7  8  1  0  0  0  0
  7  9  1  0  0  0  0
 31 32  1  0  0  0  0
 31 33  1  0  0  0  0
 31 34  1  0  0  0  0
 29 30  1  0  0  0  0
 29 31  1  0  0  0  0
M  CHG  1  23   1
M  END
$$$$
default_name
  -OEChem-02102213163D

 34 33  0     1  0  0  0  0  0999 V2000
   -3.8899   -3.6747    1.6490 H   0  0  0  0  0  0  0  0  0  0  0  0
   -3.9109   -2.6717    1.2250 C   0  0  0  0  0  0  0  0  0  0  0  0
   -4.6009   -2.0517    1.7950 H   0  0  0  0  0  0  0  0  0  0  0  0
   -4.2309   -2.7237    0.1860 H   0  0  0  0  0  0  0  0  0  0  0  0
   -2.5229   -2.0787    1.2980 C   0  0  0  0  0  0  0  0  0  0  0  0
   -1.5999   -2.7227    1.7810 O   0  0  0  0  0  0  0  0  0  0  0  0
   -2.3659   -0.8447    0.8120 N   0  0  0  0  0  0  0  0  0  0  0  0
   -3.1749   -0.3807    0.4220 H   0  0  0  0  0  0  0  0  0  0  0  0
   -1.0919   -0.1077    0.8170 C   0  0  1  0  0  0  0  0  0  0  0  0
   -0.4136   -0.6011    1.5155 H   0  0  0  0  0  0  0  0  0  0  0  0
   -0.4834   -0.1723   -0.5965 C   0  0  0  0  0  0  0  0  0  0  0  0
   -0.3215   -1.2193   -0.8577 H   0  0  0  0  0  0  0  0  0  0  0  0
   -1.1913    0.2511   -1.3116 H   0  0  0  0  0  0  0  0  0  0  0  0
    0.8580    0.5676   -0.7138 C   0  0  0  0  0  0  0  0  0  0  0  0
    1.3811    0.5337    0.2428 H   0  0  0  0  0  0  0  0  0  0  0  0
    1.4721    0.0801   -1.4734 H   0  0  0  0  0  0  0  0  0  0  0  0
    0.6276    2.0325   -1.1099 C   0  0  0  0  0  0  0  0  0  0  0  0
    0.0903    2.0629   -2.0609 H   0  0  0  0  0  0  0  0  0  0  0  0
    0.0209    2.5177   -0.3427 H   0  0  0  0  0  0  0  0  0  0  0  0
    1.9671    2.7661   -1.2516 C   0  0  0  0  0  0  0  0  0  0  0  0
    2.4925    2.7177   -0.2923 H   0  0  0  0  0  0  0  0  0  0  0  0
    2.5750    2.2396   -1.9936 H   0  0  0  0  0  0  0  0  0  0  0  0
    1.7742    4.1811   -1.6581 N   0  3  0  0  0  0  0  0  0  0  0  0
    1.2210    4.6763   -0.9700 H   0  0  0  0  0  0  0  0  0  0  0  0
    2.6667    4.6506   -1.7474 H   0  0  0  0  0  0  0  0  0  0  0  0
    1.2960    4.2312   -2.5501 H   0  0  0  0  0  0  0  0  0  0  0  0
   -1.3103    1.3348    1.2791 C   0  0  0  0  0  0  0  0  0  0  0  0
   -2.2333    1.9891    0.8084 O   0  0  0  0  0  0  0  0  0  0  0  0
   -0.4429    1.8293    2.1683 N   0  0  0  0  0  0  0  0  0  0  0  0
    0.2668    1.2118    2.5263 H   0  0  0  0  0  0  0  0  0  0  0  0
   -0.5118    3.1863    2.7135 C   0  0  0  0  0  0  0  0  0  0  0  0
   -1.4470    3.3159    3.2625 H   0  0  0  0  0  0  0  0  0  0  0  0
    0.3243    3.3682    3.3896 H   0  0  0  0  0  0  0  0  0  0  0  0
   -0.4850    3.9172    1.9023 H   0  0  0  0  0  0  0  0  0  0  0  0
  5  6  2  0  0  0  0
  5  7  1  0  0  0  0
  2  3  1  0  0  0  0
  2  4  1  0  0  0  0
  2  5  1  0  0  0  0
  1  2  1  0  0  0  0
 27 28  2  0  0  0  0
 27 29  1  0  0  0  0
 23 24  1  0  0  0  0
 23 25  1  0  0  0  0
 23 26  1  0  0  0  0
 20 21  1  0  0  0  0
 20 22  1  0  0  0  0
 20 23  1  0  0  0  0
 17 18  1  0  0  0  0
 17 19  1  0  0  0  0
 17 20  1  0  0  0  0
 14 15  1  0  0  0  0
 14 16  1  0  0  0  0
 14 17  1  0  0  0  0
 11 12  1  0  0  0  0
 11 13  1  0  0  0  0
 11 14  1  0  0  0  0
  9 10  1  0  0  0  0
  9 11  1  0  0  0  0
  9 27  1  0  0  0  0
  7  8  1  0  0  0  0
  7  9  1  0  0  0  0
 31 32  1  0  0  0  0
 31 33  1  0  0  0  0
 31 34  1  0  0  0  0
 29 30  1  0  0  0  0
 29 31  1  0  0  0  0
M  CHG  1  23   1
M  END
$$$$
default_name
  -OEChem-02102213163D

 34 33  0     1  0  0  0  0  0999 V2000
   -3.8899   -3.6747    1.6490 H   0  0  0  0  0  0  0  0  0  0  0  0
   -3.9109   -2.6717    1.2250 C   0  0  0  0  0  0  0  0  0  0  0  0
   -4.6009   -2.0517    1.7950 H   0  0  0  0  0  0  0  0  0  0  0  0
   -4.2309   -2.7237    0.1860 H   0  0  0  0  0  0  0  0  0  0  0  0
   -2.5229   -2.0787    1.2980 C   0  0  0  0  0  0  0  0  0  0  0  0
   -1.5999   -2.7227    1.7810 O   0  0  0  0  0  0  0  0  0  0  0  0
   -2.3659   -0.8447    0.8120 N   0  0  0  0  0  0  0  0  0  0  0  0
   -3.1749   -0.3807    0.4220 H   0  0  0  0  0  0  0  0  0  0  0  0
   -1.0919   -0.1077    0.8170 C   0  0  1  0  0  0  0  0  0  0  0  0
   -0.4136   -0.6011    1.5155 H   0  0  0  0  0  0  0  0  0  0  0  0
   -0.4834   -0.1723   -0.5965 C   0  0  0  0  0  0  0  0  0  0  0  0
   -0.3215   -1.2193   -0.8577 H   0  0  0  0  0  0  0  0  0  0  0  0
   -1.1913    0.2511   -1.3116 H   0  0  0  0  0  0  0  0  0  0  0  0
    0.8580    0.5676   -0.7138 C   0  0  0  0  0  0  0  0  0  0  0  0
    1.4928    0.3144    0.1364 H   0  0  0  0  0  0  0  0  0  0  0  0
    1.3576    0.2621   -1.6352 H   0  0  0  0  0  0  0  0  0  0  0  0
    0.6309    2.0854   -0.7381 C   0  0  0  0  0  0  0  0  0  0  0  0
   -0.0174    2.3341   -1.5818 H   0  0  0  0  0  0  0  0  0  0  0  0
    0.1396    2.3869    0.1892 H   0  0  0  0  0  0  0  0  0  0  0  0
    1.9672    2.8248   -0.8801 C   0  0  0  0  0  0  0  0  0  0  0  0
    2.6041    2.5568   -0.0308 H   0  0  0  0  0  0  0  0  0  0  0  0
    2.4615    2.4773   -1.7924 H   0  0  0  0  0  0  0  0  0  0  0  0
    1.7744    4.2961   -0.9304 N   0  3  0  0  0  0  0  0  0  0  0  0
    1.3268    4.6250   -0.0841 H   0  0  0  0  0  0  0  0  0  0  0  0
    2.6647    4.7688   -1.0245 H   0  0  0  0  0  0  0  0  0  0  0  0
    1.1926    4.5502   -1.7202 H   0  0  0  0  0  0  0  0  0  0  0  0
   -1.3103    1.3348    1.2791 C   0  0  0  0  0  0  0  0  0  0  0  0
   -2.2333    1.9891    0.8084 O   0  0  0  0  0  0  0  0  0  0  0  0
   -0.4429    1.8293    2.1683 N   0  0  0  0  0  0  0  0  0  0  0  0
    0.2668    1.2118    2.5263 H   0  0  0  0  0  0  0  0  0  0  0  0
   -0.5118    3.1863    2.7135 C   0  0  0  0  0  0  0  0  0  0  0  0
   -1.4470    3.3159    3.2625 H   0  0  0  0  0  0  0  0  0  0  0  0
    0.3243    3.3682    3.3896 H   0  0  0  0  0  0  0  0  0  0  0  0
   -0.4850    3.9172    1.9023 H   0  0  0  0  0  0  0  0  0  0  0  0
  5  6  2  0  0  0  0
  5  7  1  0  0  0  0
  2  3  1  0  0  0  0
  2  4  1  0  0  0  0
  2  5  1  0  0  0  0
  1  2  1  0  0  0  0
 27 28  2  0  0  0  0
 27 29  1  0  0  0  0
 23 24  1  0  0  0  0
 23 25  1  0  0  0  0
 23 26  1  0  0  0  0
 20 21  1  0  0  0  0
 20 22  1  0  0  0  0
 20 23  1  0  0  0  0
 17 18  1  0  0  0  0
 17 19  1  0  0  0  0
 17 20  1  0  0  0  0
 14 15  1  0  0  0  0
 14 16  1  0  0  0  0
 14 17  1  0  0  0  0
 11 12  1  0  0  0  0
 11 13  1  0  0  0  0
 11 14  1  0  0  0  0
  9 10  1  0  0  0  0
  9 11  1  0  0  0  0
  9 27  1  0  0  0  0
  7  8  1  0  0  0  0
  7  9  1  0  0  0  0
 31 32  1  0  0  0  0
 31 33  1  0  0  0  0
 31 34  1  0  0  0  0
 29 30  1  0  0  0  0
 29 31  1  0  0  0  0
M  CHG  1  23   1
M  END
$$$$
default_name
  -OEChem-02102213163D

 34 33  0     1  0  0  0  0  0999 V2000
   -3.8899   -3.6747    1.6490 H   0  0  0  0  0  0  0  0  0  0  0  0
   -3.9109   -2.6717    1.2250 C   0  0  0  0  0  0  0  0  0  0  0  0
   -4.6009   -2.0517    1.7950 H   0  0  0  0  0  0  0  0  0  0  0  0
   -4.2309   -2.7237    0.1860 H   0  0  0  0  0  0  0  0  0  0  0  0
   -2.5229   -2.0787    1.2980 C   0  0  0  0  0  0  0  0  0  0  0  0
   -1.5999   -2.7227    1.7810 O   0  0  0  0  0  0  0  0  0  0  0  0
   -2.3659   -0.8447    0.8120 N   0  0  0  0  0  0  0  0  0  0  0  0
   -3.1749   -0.3807    0.4220 H   0  0  0  0  0  0  0  0  0  0  0  0
   -1.0919   -0.1077    0.8170 C   0  0  1  0  0  0  0  0  0  0  0  0
   -0.4136   -0.6011    1.5155 H   0  0  0  0  0  0  0  0  0  0  0  0
   -0.4834   -0.1723   -0.5965 C   0  0  0  0  0  0  0  0  0  0  0  0
   -0.3215   -1.2193   -0.8577 H   0  0  0  0  0  0  0  0  0  0  0  0
   -1.1913    0.2511   -1.3116 H   0  0  0  0  0  0  0  0  0  0  0  0
    0.8580    0.5676   -0.7138 C   0  0  0  0  0  0  0  0  0  0  0  0
    1.5831    0.1244   -0.0299 H   0  0  0  0  0  0  0  0  0  0  0  0
    1.2304    0.4768   -1.7360 H   0  0  0  0  0  0  0  0  0  0  0  0
    0.6815    2.0525   -0.3674 C   0  0  0  0  0  0  0  0  0  0  0  0
   -0.0563    2.4898   -1.0443 H   0  0  0  0  0  0  0  0  0  0  0  0
    0.3179    2.1380    0.6586 H   0  0  0  0  0  0  0  0  0  0  0  0
    2.0148    2.7975   -0.5081 C   0  0  0  0  0  0  0  0  0  0  0  0
    2.7413    2.3400    0.1714 H   0  0  0  0  0  0  0  0  0  0  0  0
    2.3816    2.6637   -1.5302 H   0  0  0  0  0  0  0  0  0  0  0  0
    1.8675    4.2427   -0.2015 N   0  3  0  0  0  0  0  0  0  0  0  0
    1.5383    4.3732    0.7469 H   0  0  0  0  0  0  0  0  0  0  0  0
    2.7553    4.7196   -0.2992 H   0  0  0  0  0  0  0  0  0  0  0  0
    1.2025    4.6728   -0.8336 H   0  0  0  0  0  0  0  0  0  0  0  0
   -1.3103    1.3348    1.2791 C   0  0  0  0  0  0  0  0  0  0  0  0
   -2.2333    1.9891    0.8084 O   0  0  0  0  0  0  0  0  0  0  0  0
   -0.4429    1.8293    2.1683 N   0  0  0  0  0  0  0  0  0  0  0  0
    0.2668    1.2118    2.5263 H   0  0  0  0  0  0  0  0  0  0  0  0
   -0.5118    3.1863    2.7135 C   0  0  0  0  0  0  0  0  0  0  0  0
   -1.4470    3.3159    3.2625 H   0  0  0  0  0  0  0  0  0  0  0  0
    0.3243    3.3682    3.3896 H   0  0  0  0  0  0  0  0  0  0  0  0
   -0.4850    3.9172    1.9023 H   0  0  0  0  0  0  0  0  0  0  0  0
  5  6  2  0  0  0  0
  5  7  1  0  0  0  0
  2  3  1  0  0  0  0
  2  4  1  0  0  0  0
  2  5  1  0  0  0  0
  1  2  1  0  0  0  0
 27 28  2  0  0  0  0
 27 29  1  0  0  0  0
 23 24  1  0  0  0  0
 23 25  1  0  0  0  0
 23 26  1  0  0  0  0
 20 21  1  0  0  0  0
 20 22  1  0  0  0  0
 20 23  1  0  0  0  0
 17 18  1  0  0  0  0
 17 19  1  0  0  0  0
 17 20  1  0  0  0  0
 14 15  1  0  0  0  0
 14 16  1  0  0  0  0
 14 17  1  0  0  0  0
 11 12  1  0  0  0  0
 11 13  1  0  0  0  0
 11 14  1  0  0  0  0
  9 10  1  0  0  0  0
  9 11  1  0  0  0  0
  9 27  1  0  0  0  0
  7  8  1  0  0  0  0
  7  9  1  0  0  0  0
 31 32  1  0  0  0  0
 31 33  1  0  0  0  0
 31 34  1  0  0  0  0
 29 30  1  0  0  0  0
 29 31  1  0  0  0  0
M  CHG  1  23   1
M  END
$$$$
default_name
  -OEChem-02102213163D

 34 33  0     1  0  0  0  0  0999 V2000
   -3.8899   -3.6747    1.6490 H   0  0  0  0  0  0  0  0  0  0  0  0
   -3.9109   -2.6717    1.2250 C   0  0  0  0  0  0  0  0  0  0  0  0
   -4.6009   -2.0517    1.7950 H   0  0  0  0  0  0  0  0  0  0  0  0
   -4.2309   -2.7237    0.1860 H   0  0  0  0  0  0  0  0  0  0  0  0
   -2.5229   -2.0787    1.2980 C   0  0  0  0  0  0  0  0  0  0  0  0
   -1.5999   -2.7227    1.7810 O   0  0  0  0  0  0  0  0  0  0  0  0
   -2.3659   -0.8447    0.8120 N   0  0  0  0  0  0  0  0  0  0  0  0
   -3.1749   -0.3807    0.4220 H   0  0  0  0  0  0  0  0  0  0  0  0
   -1.0919   -0.1077    0.8170 C   0  0  1  0  0  0  0  0  0  0  0  0
   -0.4136   -0.6011    1.5155 H   0  0  0  0  0  0  0  0  0  0  0  0
   -0.4834   -0.1723   -0.5965 C   0  0  0  0  0  0  0  0  0  0  0  0
   -0.3215   -1.2193   -0.8577 H   0  0  0  0  0  0  0  0  0  0  0  0
   -1.1913    0.2511   -1.3116 H   0  0  0  0  0  0  0  0  0  0  0  0
    0.8580    0.5676   -0.7138 C   0  0  0  0  0  0  0  0  0  0  0  0
    1.6458   -0.0234   -0.2447 H   0  0  0  0  0  0  0  0  0  0  0  0
    1.0992    0.7094   -1.7690 H   0  0  0  0  0  0  0  0  0  0  0  0
    0.7759    1.9358   -0.0230 C   0  0  0  0  0  0  0  0  0  0  0  0
   -0.0238    2.5196   -0.4851 H   0  0  0  0  0  0  0  0  0  0  0  0
    0.5437    1.7880    1.0335 H   0  0  0  0  0  0  0  0  0  0  0  0
    2.1066    2.6861   -0.1608 C   0  0  0  0  0  0  0  0  0  0  0  0
    2.8948    2.0823    0.3007 H   0  0  0  0  0  0  0  0  0  0  0  0
    2.3407    2.7861   -1.2249 H   0  0  0  0  0  0  0  0  0  0  0  0
    2.0473    4.0247    0.4789 N   0  3  0  0  0  0  0  0  0  0  0  0
    1.8413    3.9380    1.4662 H   0  0  0  0  0  0  0  0  0  0  0  0
    2.9321    4.5064    0.3790 H   0  0  0  0  0  0  0  0  0  0  0  0
    1.3249    4.5907    0.0492 H   0  0  0  0  0  0  0  0  0  0  0  0
   -1.3103    1.3348    1.2791 C   0  0  0  0  0  0  0  0  0  0  0  0
   -2.2333    1.9891    0.8084 O   0  0  0  0  0  0  0  0  0  0  0  0
   -0.4429    1.8293    2.1683 N   0  0  0  0  0  0  0  0  0  0  0  0
    0.2668    1.2118    2.5263 H   0  0  0  0  0  0  0  0  0  0  0  0
   -0.5118    3.1863    2.7135 C   0  0  0  0  0  0  0  0  0  0  0  0
   -1.4470    3.3159    3.2625 H   0  0  0  0  0  0  0  0  0  0  0  0
    0.3243    3.3682    3.3896 H   0  0  0  0  0  0  0  0  0  0  0  0
   -0.4850    3.9172    1.9023 H   0  0  0  0  0  0  0  0  0  0  0  0
  5  6  2  0  0  0  0
  5  7  1  0  0  0  0
  2  3  1  0  0  0  0
  2  4  1  0  0  0  0
  2  5  1  0  0  0  0
  1  2  1  0  0  0  0
 27 28  2  0  0  0  0
 27 29  1  0  0  0  0
 23 24  1  0  0  0  0
 23 25  1  0  0  0  0
 23 26  1  0  0  0  0
 20 21  1  0  0  0  0
 20 22  1  0  0  0  0
 20 23  1  0  0  0  0
 17 18  1  0  0  0  0
 17 19  1  0  0  0  0
 17 20  1  0  0  0  0
 14 15  1  0  0  0  0
 14 16  1  0  0  0  0
 14 17  1  0  0  0  0
 11 12  1  0  0  0  0
 11 13  1  0  0  0  0
 11 14  1  0  0  0  0
  9 10  1  0  0  0  0
  9 11  1  0  0  0  0
  9 27  1  0  0  0  0
  7  8  1  0  0  0  0
  7  9  1  0  0  0  0
 31 32  1  0  0  0  0
 31 33  1  0  0  0  0
 31 34  1  0  0  0  0
 29 30  1  0  0  0  0
 29 31  1  0  0  0  0
M  CHG  1  23   1
M  END
$$$$
default_name
  -OEChem-02102213163D

 34 33  0     1  0  0  0  0  0999 V2000
   -3.8899   -3.6747    1.6490 H   0  0  0  0  0  0  0  0  0  0  0  0
   -3.9109   -2.6717    1.2250 C   0  0  0  0  0  0  0  0  0  0  0  0
   -4.6009   -2.0517    1.7950 H   0  0  0  0  0  0  0  0  0  0  0  0
   -4.2309   -2.7237    0.1860 H   0  0  0  0  0  0  0  0  0  0  0  0
   -2.5229   -2.0787    1.2980 C   0  0  0  0  0  0  0  0  0  0  0  0
   -1.5999   -2.7227    1.7810 O   0  0  0  0  0  0  0  0  0  0  0  0
   -2.3659   -0.8447    0.8120 N   0  0  0  0  0  0  0  0  0  0  0  0
   -3.1749   -0.3807    0.4220 H   0  0  0  0  0  0  0  0  0  0  0  0
   -1.0919   -0.1077    0.8170 C   0  0  1  0  0  0  0  0  0  0  0  0
   -0.4136   -0.6011    1.5155 H   0  0  0  0  0  0  0  0  0  0  0  0
   -0.4834   -0.1723   -0.5965 C   0  0  0  0  0  0  0  0  0  0  0  0
   -0.3215   -1.2193   -0.8577 H   0  0  0  0  0  0  0  0  0  0  0  0
   -1.1913    0.2511   -1.3116 H   0  0  0  0  0  0  0  0  0  0  0  0
    0.8580    0.5676   -0.7138 C   0  0  0  0  0  0  0  0  0  0  0  0
    1.6767   -0.1188   -0.4933 H   0  0  0  0  0  0  0  0  0  0  0  0
    0.9729    0.9442   -1.7320 H   0  0  0  0  0  0  0  0  0  0  0  0
    0.9078    1.7435    0.2715 C   0  0  0  0  0  0  0  0  0  0  0  0
    0.0778    2.4213    0.0577 H   0  0  0  0  0  0  0  0  0  0  0  0
    0.8017    1.3607    1.2885 H   0  0  0  0  0  0  0  0  0  0  0  0
    2.2364    2.4982    0.1381 C   0  0  0  0  0  0  0  0  0  0  0  0
    3.0541    1.8011    0.3482 H   0  0  0  0  0  0  0  0  0  0  0  0
    2.3418    2.8361   -0.8972 H   0  0  0  0  0  0  0  0  0  0  0  0
    2.3015    3.6567    1.0644 N   0  3  0  0  0  0  0  0  0  0  0  0
    2.2150    3.3492    2.0250 H   0  0  0  0  0  0  0  0  0  0  0  0
    3.1833    4.1438    0.9638 H   0  0  0  0  0  0  0  0  0  0  0  0
    1.5517    4.3096    0.8682 H   0  0  0  0  0  0  0  0  0  0  0  0
   -1.3103    1.3348    1.2791 C   0  0  0  0  0  0  0  0  0  0  0  0
   -2.2333    1.9891    0.8084 O   0  0  0  0  0  0  0  0  0  0  0  0
   -0.4429    1.8293    2.1683 N   0  0  0  0  0  0  0  0  0  0  0  0
    0.2668    1.2118    2.5263 H   0  0  0  0  0  0  0  0  0  0  0  0
   -0.5118    3.1863    2.7135 C   0  0  0  0  0  0  0  0  0  0  0  0
   -1.4470    3.3159    3.2625 H   0  0  0  0  0  0  0  0  0  0  0  0
    0.3243    3.3682    3.3896 H   0  0  0  0  0  0  0  0  0  0  0  0
   -0.4850    3.9172    1.9023 H   0  0  0  0  0  0  0  0  0  0  0  0
  5  6  2  0  0  0  0
  5  7  1  0  0  0  0
  2  3  1  0  0  0  0
  2  4  1  0  0  0  0
  2  5  1  0  0  0  0
  1  2  1  0  0  0  0
 27 28  2  0  0  0  0
 27 29  1  0  0  0  0
 23 24  1  0  0  0  0
 23 25  1  0  0  0  0
 23 26  1  0  0  0  0
 20 21  1  0  0  0  0
 20 22  1  0  0  0  0
 20 23  1  0  0  0  0
 17 18  1  0  0  0  0
 17 19  1  0  0  0  0
 17 20  1  0  0  0  0
 14 15  1  0  0  0  0
 14 16  1  0  0  0  0
 14 17  1  0  0  0  0
 11 12  1  0  0  0  0
 11 13  1  0  0  0  0
 11 14  1  0  0  0  0
  9 10  1  0  0  0  0
  9 11  1  0  0  0  0
  9 27  1  0  0  0  0
  7  8  1  0  0  0  0
  7  9  1  0  0  0  0
 31 32  1  0  0  0  0
 31 33  1  0  0  0  0
 31 34  1  0  0  0  0
 29 30  1  0  0  0  0
 29 31  1  0  0  0  0
M  CHG  1  23   1
M  END
$$$$
default_name
  -OEChem-02102213163D

 34 33  0     1  0  0  0  0  0999 V2000
   -3.8899   -3.6747    1.6490 H   0  0  0  0  0  0  0  0  0  0  0  0
   -3.9109   -2.6717    1.2250 C   0  0  0  0  0  0  0  0  0  0  0  0
   -4.6009   -2.0517    1.7950 H   0  0  0  0  0  0  0  0  0  0  0  0
   -4.2309   -2.7237    0.1860 H   0  0  0  0  0  0  0  0  0  0  0  0
   -2.5229   -2.0787    1.2980 C   0  0  0  0  0  0  0  0  0  0  0  0
   -1.5999   -2.7227    1.7810 O   0  0  0  0  0  0  0  0  0  0  0  0
   -2.3659   -0.8447    0.8120 N   0  0  0  0  0  0  0  0  0  0  0  0
   -3.1749   -0.3807    0.4220 H   0  0  0  0  0  0  0  0  0  0  0  0
   -1.0919   -0.1077    0.8170 C   0  0  1  0  0  0  0  0  0  0  0  0
   -0.4136   -0.6011    1.5155 H   0  0  0  0  0  0  0  0  0  0  0  0
   -0.4834   -0.1723   -0.5965 C   0  0  0  0  0  0  0  0  0  0  0  0
   -0.3215   -1.2193   -0.8577 H   0  0  0  0  0  0  0  0  0  0  0  0
   -1.1913    0.2511   -1.3116 H   0  0  0  0  0  0  0  0  0  0  0  0
    0.8580    0.5676   -0.7138 C   0  0  0  0  0  0  0  0  0  0  0  0
    1.6736   -0.1553   -0.7589 H   0  0  0  0  0  0  0  0  0  0  0  0
    0.8602    1.1651   -1.6275 H   0  0  0  0  0  0  0  0  0  0  0  0
    1.0680    1.4886    0.4960 C   0  0  0  0  0  0  0  0  0  0  0  0
    0.2418    2.2018    0.5471 H   0  0  0  0  0  0  0  0  0  0  0  0
    1.0742    0.8853    1.4060 H   0  0  0  0  0  0  0  0  0  0  0  0
    2.3953    2.2466    0.3681 C   0  0  0  0  0  0  0  0  0  0  0  0
    3.2083    1.5156    0.3107 H   0  0  0  0  0  0  0  0  0  0  0  0
    2.3847    2.8104   -0.5696 H   0  0  0  0  0  0  0  0  0  0  0  0
    2.6127    3.1640    1.5151 N   0  3  0  0  0  0  0  0  0  0  0  0
    2.6339    2.6467    2.3850 H   0  0  0  0  0  0  0  0  0  0  0  0
    3.4917    3.6564    1.4155 H   0  0  0  0  0  0  0  0  0  0  0  0
    1.8672    3.8484    1.5674 H   0  0  0  0  0  0  0  0  0  0  0  0
   -1.3103    1.3348    1.2791 C   0  0  0  0  0  0  0  0  0  0  0  0
   -2.2333    1.9891    0.8084 O   0  0  0  0  0  0  0  0  0  0  0  0
   -0.4429    1.8293    2.1683 N   0  0  0  0  0  0  0  0  0  0  0  0
    0.2668    1.2118    2.5263 H   0  0  0  0  0  0  0  0  0  0  0  0
   -0.5118    3.1863    2.7135 C   0  0  0  0  0  0  0  0  0  0  0  0
   -1.4470    3.3159    3.2625 H   0  0  0  0  0  0  0  0  0  0  0  0
    0.3243    3.3682    3.3896 H   0  0  0  0  0  0  0  0  0  0  0  0
   -0.4850    3.9172    1.9023 H   0  0  0  0  0  0  0  0  0  0  0  0
  5  6  2  0  0  0  0
  5  7  1  0  0  0  0
  2  3  1  0  0  0  0
  2  4  1  0  0  0  0
  2  5  1  0  0  0  0
  1  2  1  0  0  0  0
 27 28  2  0  0  0  0
 27 29  1  0  0  0  0
 23 24  1  0  0  0  0
 23 25  1  0  0  0  0
 23 26  1  0  0  0  0
 20 21  1  0  0  0  0
 20 22  1  0  0  0  0
 20 23  1  0  0  0  0
 17 18  1  0  0  0  0
 17 19  1  0  0  0  0
 17 20  1  0  0  0  0
 14 15  1  0  0  0  0
 14 16  1  0  0  0  0
 14 17  1  0  0  0  0
 11 12  1  0  0  0  0
 11 13  1  0  0  0  0
 11 14  1  0  0  0  0
  9 10  1  0  0  0  0
  9 11  1  0  0  0  0
  9 27  1  0  0  0  0
  7  8  1  0  0  0  0
  7  9  1  0  0  0  0
 31 32  1  0  0  0  0
 31 33  1  0  0  0  0
 31 34  1  0  0  0  0
 29 30  1  0  0  0  0
 29 31  1  0  0  0  0
M  CHG  1  23   1
M  END
$$$$
default_name
  -OEChem-02102213163D

 34 33  0     1  0  0  0  0  0999 V2000
   -3.8899   -3.6747    1.6490 H   0  0  0  0  0  0  0  0  0  0  0  0
   -3.9109   -2.6717    1.2250 C   0  0  0  0  0  0  0  0  0  0  0  0
   -4.6009   -2.0517    1.7950 H   0  0  0  0  0  0  0  0  0  0  0  0
   -4.2309   -2.7237    0.1860 H   0  0  0  0  0  0  0  0  0  0  0  0
   -2.5229   -2.0787    1.2980 C   0  0  0  0  0  0  0  0  0  0  0  0
   -1.5999   -2.7227    1.7810 O   0  0  0  0  0  0  0  0  0  0  0  0
   -2.3659   -0.8447    0.8120 N   0  0  0  0  0  0  0  0  0  0  0  0
   -3.1749   -0.3807    0.4220 H   0  0  0  0  0  0  0  0  0  0  0  0
   -1.0919   -0.1077    0.8170 C   0  0  1  0  0  0  0  0  0  0  0  0
   -0.4136   -0.6011    1.5155 H   0  0  0  0  0  0  0  0  0  0  0  0
   -0.4834   -0.1723   -0.5965 C   0  0  0  0  0  0  0  0  0  0  0  0
   -0.3215   -1.2193   -0.8577 H   0  0  0  0  0  0  0  0  0  0  0  0
   -1.1913    0.2511   -1.3116 H   0  0  0  0  0  0  0  0  0  0  0  0
    0.8580    0.5676   -0.7138 C   0  0  0  0  0  0  0  0  0  0  0  0
    1.6368   -0.1306   -1.0234 H   0  0  0  0  0  0  0  0  0  0  0  0
    0.7687    1.3570   -1.4626 H   0  0  0  0  0  0  0  0  0  0  0  0
    1.2457    1.1885    0.6354 C   0  0  0  0  0  0  0  0  0  0  0  0
    0.4567    1.8758    0.9498 H   0  0  0  0  0  0  0  0  0  0  0  0
    1.3427    0.3942    1.3782 H   0  0  0  0  0  0  0  0  0  0  0  0
    2.5724    1.9485    0.5137 C   0  0  0  0  0  0  0  0  0  0  0  0
    3.3469    1.2452    0.1907 H   0  0  0  0  0  0  0  0  0  0  0  0
    2.4664    2.7106   -0.2642 H   0  0  0  0  0  0  0  0  0  0  0  0
    2.9597    2.5801    1.8004 N   0  3  0  0  0  0  0  0  0  0  0  0
    3.0696    1.8785    2.5219 H   0  0  0  0  0  0  0  0  0  0  0  0
    3.8362    3.0774    1.7032 H   0  0  0  0  0  0  0  0  0  0  0  0
    2.2500    3.2387    2.0993 H   0  0  0  0  0  0  0  0  0  0  0  0
   -1.3103    1.3348    1.2791 C   0  0  0  0  0  0  0  0  0  0  0  0
   -2.2333    1.9891    0.8084 O   0  0  0  0  0  0  0  0  0  0  0  0
   -0.4429    1.8293    2.1683 N   0  0  0  0  0  0  0  0  0  0  0  0
    0.2668    1.2118    2.5263 H   0  0  0  0  0  0  0  0  0  0  0  0
   -0.5118    3.1863    2.7135 C   0  0  0  0  0  0  0  0  0  0  0  0
   -1.4470    3.3159    3.2625 H   0  0  0  0  0  0  0  0  0  0  0  0
    0.3243    3.3682    3.3896 H   0  0  0  0  0  0  0  0  0  0  0  0
   -0.4850    3.9172    1.9023 H   0  0  0  0  0  0  0  0  0  0  0  0
  5  6  2  0  0  0  0
  5  7  1  0  0  0  0
  2  3  1  0  0  0  0
  2  4  1  0  0  0  0
  2  5  1  0  0  0  0
  1  2  1  0  0  0  0
 27 28  2  0  0  0  0
 27 29  1  0  0  0  0
 23 24  1  0  0  0  0
 23 25  1  0  0  0  0
 23 26  1  0  0  0  0
 20 21  1  0  0  0  0
 20 22  1  0  0  0  0
 20 23  1  0  0  0  0
 17 18  1  0  0  0  0
 17 19  1  0  0  0  0
 17 20  1  0  0  0  0
 14 15  1  0  0  0  0
 14 16  1  0  0  0  0
 14 17  1  0  0  0  0
 11 12  1  0  0  0  0
 11 13  1  0  0  0  0
 11 14  1  0  0  0  0
  9 10  1  0  0  0  0
  9 11  1  0  0  0  0
  9 27  1  0  0  0  0
  7  8  1  0  0  0  0
  7  9  1  0  0  0  0
 31 32  1  0  0  0  0
 31 33  1  0  0  0  0
 31 34  1  0  0  0  0
 29 30  1  0  0  0  0
 29 31  1  0  0  0  0
M  CHG  1  23   1
M  END
$$$$
default_name
  -OEChem-02102213163D

 34 33  0     1  0  0  0  0  0999 V2000
   -3.8899   -3.6747    1.6490 H   0  0  0  0  0  0  0  0  0  0  0  0
   -3.9109   -2.6717    1.2250 C   0  0  0  0  0  0  0  0  0  0  0  0
   -4.6009   -2.0517    1.7950 H   0  0  0  0  0  0  0  0  0  0  0  0
   -4.2309   -2.7237    0.1860 H   0  0  0  0  0  0  0  0  0  0  0  0
   -2.5229   -2.0787    1.2980 C   0  0  0  0  0  0  0  0  0  0  0  0
   -1.5999   -2.7227    1.7810 O   0  0  0  0  0  0  0  0  0  0  0  0
   -2.3659   -0.8447    0.8120 N   0  0  0  0  0  0  0  0  0  0  0  0
   -3.1749   -0.3807    0.4220 H   0  0  0  0  0  0  0  0  0  0  0  0
   -1.0919   -0.1077    0.8170 C   0  0  1  0  0  0  0  0  0  0  0  0
   -0.4136   -0.6011    1.5155 H   0  0  0  0  0  0  0  0  0  0  0  0
   -0.4834   -0.1723   -0.5965 C   0  0  0  0  0  0  0  0  0  0  0  0
   -0.3215   -1.2193   -0.8577 H   0  0  0  0  0  0  0  0  0  0  0  0
   -1.1913    0.2511   -1.3116 H   0  0  0  0  0  0  0  0  0  0  0  0
    0.8580    0.5676   -0.7138 C   0  0  0  0  0  0  0  0  0  0  0  0
    1.5689   -0.0462   -1.2686 H   0  0  0  0  0  0  0  0  0  0  0  0
    0.7047    1.5070   -1.2485 H   0  0  0  0  0  0  0  0  0  0  0  0
    1.4289    0.8636    0.6800 C   0  0  0  0  0  0  0  0  0  0  0  0
    0.7082    1.4658    1.2384 H   0  0  0  0  0  0  0  0  0  0  0  0
    1.5889   -0.0792    1.2068 H   0  0  0  0  0  0  0  0  0  0  0  0
    2.7558    1.6242    0.5648 C   0  0  0  0  0  0  0  0  0  0  0  0
    3.4605    1.0084   -0.0035 H   0  0  0  0  0  0  0  0  0  0  0  0
    2.5814    2.5437   -0.0020 H   0  0  0  0  0  0  0  0  0  0  0  0
    3.3189    1.9447    1.9007 N   0  3  0  0  0  0  0  0  0  0  0  0
    3.4924    1.0970    2.4262 H   0  0  0  0  0  0  0  0  0  0  0  0
    4.1934    2.4464    1.8074 H   0  0  0  0  0  0  0  0  0  0  0  0
    2.6740    2.5221    2.4276 H   0  0  0  0  0  0  0  0  0  0  0  0
   -1.3103    1.3348    1.2791 C   0  0  0  0  0  0  0  0  0  0  0  0
   -2.2333    1.9891    0.8084 O   0  0  0  0  0  0  0  0  0  0  0  0
   -0.4429    1.8293    2.1683 N   0  0  0  0  0  0  0  0  0  0  0  0
    0.2668    1.2118    2.5263 H   0  0  0  0  0  0  0  0  0  0  0  0
   -0.5118    3.1863    2.7135 C   0  0  0  0  0  0  0  0  0  0  0  0
   -1.4470    3.3159    3.2625 H   0  0  0  0  0  0  0  0  0  0  0  0
    0.3243    3.3682    3.3896 H   0  0  0  0  0  0  0  0  0  0  0  0
   -0.4850    3.9172    1.9023 H   0  0  0  0  0  0  0  0  0  0  0  0
  5  6  2  0  0  0  0
  5  7  1  0  0  0  0
  2  3  1  0  0  0  0
  2  4  1  0  0  0  0
  2  5  1  0  0  0  0
  1  2  1  0  0  0  0
 27 28  2  0  0  0  0
 27 29  1  0  0  0  0
 23 24  1  0  0  0  0
 23 25  1  0  0  0  0
 23 26  1  0  0  0  0
 20 21  1  0  0  0  0
 20 22  1  0  0  0  0
 20 23  1  0  0  0  0
 17 18  1  0  0  0  0
 17 19  1  0  0  0  0
 17 20  1  0  0  0  0
 14 15  1  0  0  0  0
 14 16  1  0  0  0  0
 14 17  1  0  0  0  0
 11 12  1  0  0  0  0
 11 13  1  0  0  0  0
 11 14  1  0  0  0  0
  9 10  1  0  0  0  0
  9 11  1  0  0  0  0
  9 27  1  0  0  0  0
  7  8  1  0  0  0  0
  7  9  1  0  0  0  0
 31 32  1  0  0  0  0
 31 33  1  0  0  0  0
 31 34  1  0  0  0  0
 29 30  1  0  0  0  0
 29 31  1  0  0  0  0
M  CHG  1  23   1
M  END
$$$$
default_name
  -OEChem-02102213163D

 34 33  0     1  0  0  0  0  0999 V2000
   -3.8899   -3.6747    1.6490 H   0  0  0  0  0  0  0  0  0  0  0  0
   -3.9109   -2.6717    1.2250 C   0  0  0  0  0  0  0  0  0  0  0  0
   -4.6009   -2.0517    1.7950 H   0  0  0  0  0  0  0  0  0  0  0  0
   -4.2309   -2.7237    0.1860 H   0  0  0  0  0  0  0  0  0  0  0  0
   -2.5229   -2.0787    1.2980 C   0  0  0  0  0  0  0  0  0  0  0  0
   -1.5999   -2.7227    1.7810 O   0  0  0  0  0  0  0  0  0  0  0  0
   -2.3659   -0.8447    0.8120 N   0  0  0  0  0  0  0  0  0  0  0  0
   -3.1749   -0.3807    0.4220 H   0  0  0  0  0  0  0  0  0  0  0  0
   -1.0919   -0.1077    0.8170 C   0  0  1  0  0  0  0  0  0  0  0  0
   -0.4136   -0.6011    1.5155 H   0  0  0  0  0  0  0  0  0  0  0  0
   -0.4834   -0.1723   -0.5965 C   0  0  0  0  0  0  0  0  0  0  0  0
   -0.3215   -1.2193   -0.8577 H   0  0  0  0  0  0  0  0  0  0  0  0
   -1.1913    0.2511   -1.3116 H   0  0  0  0  0  0  0  0  0  0  0  0
    0.8580    0.5676   -0.7138 C   0  0  0  0  0  0  0  0  0  0  0  0
    1.4743    0.0921   -1.4780 H   0  0  0  0  0  0  0  0  0  0  0  0
    0.6726    1.6047   -0.9998 H   0  0  0  0  0  0  0  0  0  0  0  0
    1.6049    0.5360    0.6268 C   0  0  0  0  0  0  0  0  0  0  0  0
    0.9789    0.9995    1.3931 H   0  0  0  0  0  0  0  0  0  0  0  0
    1.7959   -0.5027    0.9037 H   0  0  0  0  0  0  0  0  0  0  0  0
    2.9329    1.2957    0.5181 C   0  0  0  0  0  0  0  0  0  0  0  0
    3.5414    0.8214   -0.2588 H   0  0  0  0  0  0  0  0  0  0  0  0
    2.7219    2.3209    0.1992 H   0  0  0  0  0  0  0  0  0  0  0  0
    3.6659    1.3013    1.8093 N   0  3  0  0  0  0  0  0  0  0  0  0
    3.8733    0.3554    2.1044 H   0  0  0  0  0  0  0  0  0  0  0  0
    4.5389    1.8062    1.7208 H   0  0  0  0  0  0  0  0  0  0  0  0
    3.1103    1.7473    2.5299 H   0  0  0  0  0  0  0  0  0  0  0  0
   -1.3103    1.3348    1.2791 C   0  0  0  0  0  0  0  0  0  0  0  0
   -2.2333    1.9891    0.8084 O   0  0  0  0  0  0  0  0  0  0  0  0
   -0.4429    1.8293    2.1683 N   0  0  0  0  0  0  0  0  0  0  0  0
    0.2668    1.2118    2.5263 H   0  0  0  0  0  0  0  0  0  0  0  0
   -0.5118    3.1863    2.7135 C   0  0  0  0  0  0  0  0  0  0  0  0
   -1.4470    3.3159    3.2625 H   0  0  0  0  0  0  0  0  0  0  0  0
    0.3243    3.3682    3.3896 H   0  0  0  0  0  0  0  0  0  0  0  0
   -0.4850    3.9172    1.9023 H   0  0  0  0  0  0  0  0  0  0  0  0
  5  6  2  0  0  0  0
  5  7  1  0  0  0  0
  2  3  1  0  0  0  0
  2  4  1  0  0  0  0
  2  5  1  0  0  0  0
  1  2  1  0  0  0  0
 27 28  2  0  0  0  0
 27 29  1  0  0  0  0
 23 24  1  0  0  0  0
 23 25  1  0  0  0  0
 23 26  1  0  0  0  0
 20 21  1  0  0  0  0
 20 22  1  0  0  0  0
 20 23  1  0  0  0  0
 17 18  1  0  0  0  0
 17 19  1  0  0  0  0
 17 20  1  0  0  0  0
 14 15  1  0  0  0  0
 14 16  1  0  0  0  0
 14 17  1  0  0  0  0
 11 12  1  0  0  0  0
 11 13  1  0  0  0  0
 11 14  1  0  0  0  0
  9 10  1  0  0  0  0
  9 11  1  0  0  0  0
  9 27  1  0  0  0  0
  7  8  1  0  0  0  0
  7  9  1  0  0  0  0
 31 32  1  0  0  0  0
 31 33  1  0  0  0  0
 31 34  1  0  0  0  0
 29 30  1  0  0  0  0
 29 31  1  0  0  0  0
M  CHG  1  23   1
M  END
$$$$
default_name
  -OEChem-02102213163D

 34 33  0     1  0  0  0  0  0999 V2000
   -3.8899   -3.6747    1.6490 H   0  0  0  0  0  0  0  0  0  0  0  0
   -3.9109   -2.6717    1.2250 C   0  0  0  0  0  0  0  0  0  0  0  0
   -4.6009   -2.0517    1.7950 H   0  0  0  0  0  0  0  0  0  0  0  0
   -4.2309   -2.7237    0.1860 H   0  0  0  0  0  0  0  0  0  0  0  0
   -2.5229   -2.0787    1.2980 C   0  0  0  0  0  0  0  0  0  0  0  0
   -1.5999   -2.7227    1.7810 O   0  0  0  0  0  0  0  0  0  0  0  0
   -2.3659   -0.8447    0.8120 N   0  0  0  0  0  0  0  0  0  0  0  0
   -3.1749   -0.3807    0.4220 H   0  0  0  0  0  0  0  0  0  0  0  0
   -1.0919   -0.1077    0.8170 C   0  0  1  0  0  0  0  0  0  0  0  0
   -0.4136   -0.6011    1.5155 H   0  0  0  0  0  0  0  0  0  0  0  0
   -0.4834   -0.1723   -0.5965 C   0  0  0  0  0  0  0  0  0  0  0  0
   -0.3215   -1.2193   -0.8577 H   0  0  0  0  0  0  0  0  0  0  0  0
   -1.1913    0.2511   -1.3116 H   0  0  0  0  0  0  0  0  0  0  0  0
    0.8580    0.5676   -0.7138 C   0  0  0  0  0  0  0  0  0  0  0  0
    1.3596    0.2748   -1.6371 H   0  0  0  0  0  0  0  0  0  0  0  0
    0.6744    1.6436   -0.7335 H   0  0  0  0  0  0  0  0  0  0  0  0
    1.7618    0.2282    0.4795 C   0  0  0  0  0  0  0  0  0  0  0  0
    1.2505    0.5088    1.4035 H   0  0  0  0  0  0  0  0  0  0  0  0
    1.9498   -0.8473    0.4893 H   0  0  0  0  0  0  0  0  0  0  0  0
    3.0917    0.9854    0.3766 C   0  0  0  0  0  0  0  0  0  0  0  0
    3.5840    0.6968   -0.5577 H   0  0  0  0  0  0  0  0  0  0  0  0
    2.8783    2.0574    0.3257 H   0  0  0  0  0  0  0  0  0  0  0  0
    3.9769    0.6935    1.5323 N   0  3  0  0  0  0  0  0  0  0  0  0
    4.1865   -0.2958    1.5786 H   0  0  0  0  0  0  0  0  0  0  0  0
    4.8492    1.2006    1.4496 H   0  0  0  0  0  0  0  0  0  0  0  0
    3.5292    0.9671    2.3993 H   0  0  0  0  0  0  0  0  0  0  0  0
   -1.3103    1.3348    1.2791 C   0  0  0  0  0  0  0  0  0  0  0  0
   -2.2333    1.9891    0.8084 O   0  0  0  0  0  0  0  0  0  0  0  0
   -0.4429    1.8293    2.1683 N   0  0  0  0  0  0  0  0  0  0  0  0
    0.2668    1.2118    2.5263 H   0  0  0  0  0  0  0  0  0  0  0  0
   -0.5118    3.1863    2.7135 C   0  0  0  0  0  0  0  0  0  0  0  0
   -1.4470    3.3159    3.2625 H   0  0  0  0  0  0  0  0  0  0  0  0
    0.3243    3.3682    3.3896 H   0  0  0  0  0  0  0  0  0  0  0  0
   -0.4850    3.9172    1.9023 H   0  0  0  0  0  0  0  0  0  0  0  0
  5  6  2  0  0  0  0
  5  7  1  0  0  0  0
  2  3  1  0  0  0  0
  2  4  1  0  0  0  0
  2  5  1  0  0  0  0
  1  2  1  0  0  0  0
 27 28  2  0  0  0  0
 27 29  1  0  0  0  0
 23 24  1  0  0  0  0
 23 25  1  0  0  0  0
 23 26  1  0  0  0  0
 20 21  1  0  0  0  0
 20 22  1  0  0  0  0
 20 23  1  0  0  0  0
 17 18  1  0  0  0  0
 17 19  1  0  0  0  0
 17 20  1  0  0  0  0
 14 15  1  0  0  0  0
 14 16  1  0  0  0  0
 14 17  1  0  0  0  0
 11 12  1  0  0  0  0
 11 13  1  0  0  0  0
 11 14  1  0  0  0  0
  9 10  1  0  0  0  0
  9 11  1  0  0  0  0
  9 27  1  0  0  0  0
  7  8  1  0  0  0  0
  7  9  1  0  0  0  0
 31 32  1  0  0  0  0
 31 33  1  0  0  0  0
 31 34  1  0  0  0  0
 29 30  1  0  0  0  0
 29 31  1  0  0  0  0
M  CHG  1  23   1
M  END
$$$$
default_name
  -OEChem-02102213163D

 34 33  0     1  0  0  0  0  0999 V2000
   -3.8899   -3.6747    1.6490 H   0  0  0  0  0  0  0  0  0  0  0  0
   -3.9109   -2.6717    1.2250 C   0  0  0  0  0  0  0  0  0  0  0  0
   -4.6009   -2.0517    1.7950 H   0  0  0  0  0  0  0  0  0  0  0  0
   -4.2309   -2.7237    0.1860 H   0  0  0  0  0  0  0  0  0  0  0  0
   -2.5229   -2.0787    1.2980 C   0  0  0  0  0  0  0  0  0  0  0  0
   -1.5999   -2.7227    1.7810 O   0  0  0  0  0  0  0  0  0  0  0  0
   -2.3659   -0.8447    0.8120 N   0  0  0  0  0  0  0  0  0  0  0  0
   -3.1749   -0.3807    0.4220 H   0  0  0  0  0  0  0  0  0  0  0  0
   -1.0919   -0.1077    0.8170 C   0  0  1  0  0  0  0  0  0  0  0  0
   -0.4136   -0.6011    1.5155 H   0  0  0  0  0  0  0  0  0  0  0  0
   -0.4834   -0.1723   -0.5965 C   0  0  0  0  0  0  0  0  0  0  0  0
   -0.3215   -1.2193   -0.8577 H   0  0  0  0  0  0  0  0  0  0  0  0
   -1.1913    0.2511   -1.3116 H   0  0  0  0  0  0  0  0  0  0  0  0
    0.8580    0.5676   -0.7138 C   0  0  0  0  0  0  0  0  0  0  0  0
    1.2325    0.4895   -1.7353 H   0  0  0  0  0  0  0  0  0  0  0  0
    0.7102    1.6209   -0.4678 H   0  0  0  0  0  0  0  0  0  0  0  0
    1.8889   -0.0390    0.2482 C   0  0  0  0  0  0  0  0  0  0  0  0
    1.5044    0.0271    1.2687 H   0  0  0  0  0  0  0  0  0  0  0  0
    2.0399   -1.0895   -0.0079 H   0  0  0  0  0  0  0  0  0  0  0  0
    3.2213    0.7146    0.1501 C   0  0  0  0  0  0  0  0  0  0  0  0
    3.5854    0.6431   -0.8800 H   0  0  0  0  0  0  0  0  0  0  0  0
    3.0399    1.7713    0.3689 H   0  0  0  0  0  0  0  0  0  0  0  0
    4.2308    0.1629    1.0887 N   0  3  0  0  0  0  0  0  0  0  0  0
    4.4107   -0.8121    0.8845 H   0  0  0  0  0  0  0  0  0  0  0  0
    5.1032    0.6708    1.0120 H   0  0  0  0  0  0  0  0  0  0  0  0
    3.9022    0.2348    2.0446 H   0  0  0  0  0  0  0  0  0  0  0  0
   -1.3103    1.3348    1.2791 C   0  0  0  0  0  0  0  0  0  0  0  0
   -2.2333    1.9891    0.8084 O   0  0  0  0  0  0  0  0  0  0  0  0
   -0.4429    1.8293    2.1683 N   0  0  0  0  0  0  0  0  0  0  0  0
    0.2668    1.2118    2.5263 H   0  0  0  0  0  0  0  0  0  0  0  0
   -0.5118    3.1863    2.7135 C   0  0  0  0  0  0  0  0  0  0  0  0
   -1.4470    3.3159    3.2625 H   0  0  0  0  0  0  0  0  0  0  0  0
    0.3243    3.3682    3.3896 H   0  0  0  0  0  0  0  0  0  0  0  0
   -0.4850    3.9172    1.9023 H   0  0  0  0  0  0  0  0  0  0  0  0
  5  6  2  0  0  0  0
  5  7  1  0  0  0  0
  2  3  1  0  0  0  0
  2  4  1  0  0  0  0
  2  5  1  0  0  0  0
  1  2  1  0  0  0  0
 27 28  2  0  0  0  0
 27 29  1  0  0  0  0
 23 24  1  0  0  0  0
 23 25  1  0  0  0  0
 23 26  1  0  0  0  0
 20 21  1  0  0  0  0
 20 22  1  0  0  0  0
 20 23  1  0  0  0  0
 17 18  1  0  0  0  0
 17 19  1  0  0  0  0
 17 20  1  0  0  0  0
 14 15  1  0  0  0  0
 14 16  1  0  0  0  0
 14 17  1  0  0  0  0
 11 12  1  0  0  0  0
 11 13  1  0  0  0  0
 11 14  1  0  0  0  0
  9 10  1  0  0  0  0
  9 11  1  0  0  0  0
  9 27  1  0  0  0  0
  7  8  1  0  0  0  0
  7  9  1  0  0  0  0
 31 32  1  0  0  0  0
 31 33  1  0  0  0  0
 31 34  1  0  0  0  0
 29 30  1  0  0  0  0
 29 31  1  0  0  0  0
M  CHG  1  23   1
M  END
$$$$
default_name
  -OEChem-02102213163D

 34 33  0     1  0  0  0  0  0999 V2000
   -3.8899   -3.6747    1.6490 H   0  0  0  0  0  0  0  0  0  0  0  0
   -3.9109   -2.6717    1.2250 C   0  0  0  0  0  0  0  0  0  0  0  0
   -4.6009   -2.0517    1.7950 H   0  0  0  0  0  0  0  0  0  0  0  0
   -4.2309   -2.7237    0.1860 H   0  0  0  0  0  0  0  0  0  0  0  0
   -2.5229   -2.0787    1.2980 C   0  0  0  0  0  0  0  0  0  0  0  0
   -1.5999   -2.7227    1.7810 O   0  0  0  0  0  0  0  0  0  0  0  0
   -2.3659   -0.8447    0.8120 N   0  0  0  0  0  0  0  0  0  0  0  0
   -3.1749   -0.3807    0.4220 H   0  0  0  0  0  0  0  0  0  0  0  0
   -1.0919   -0.1077    0.8170 C   0  0  1  0  0  0  0  0  0  0  0  0
   -0.4136   -0.6011    1.5155 H   0  0  0  0  0  0  0  0  0  0  0  0
   -0.4834   -0.1723   -0.5965 C   0  0  0  0  0  0  0  0  0  0  0  0
   -0.3215   -1.2193   -0.8577 H   0  0  0  0  0  0  0  0  0  0  0  0
   -1.1913    0.2511   -1.3116 H   0  0  0  0  0  0  0  0  0  0  0  0
    0.8580    0.5676   -0.7138 C   0  0  0  0  0  0  0  0  0  0  0  0
    1.1018    0.7217   -1.7658 H   0  0  0  0  0  0  0  0  0  0  0  0
    0.7774    1.5382   -0.2206 H   0  0  0  0  0  0  0  0  0  0  0  0
    1.9776   -0.2473   -0.0516 C   0  0  0  0  0  0  0  0  0  0  0  0
    1.7233   -0.4127    0.9981 H   0  0  0  0  0  0  0  0  0  0  0  0
    2.0603   -1.2130   -0.5542 H   0  0  0  0  0  0  0  0  0  0  0  0
    3.3128    0.5016   -0.1460 C   0  0  0  0  0  0  0  0  0  0  0  0
    3.5455    0.6641   -1.2035 H   0  0  0  0  0  0  0  0  0  0  0  0
    3.1958    1.4819    0.3258 H   0  0  0  0  0  0  0  0  0  0  0  0
    4.4103   -0.2543    0.5087 N   0  3  0  0  0  0  0  0  0  0  0  0
    4.5304   -1.1585    0.0694 H   0  0  0  0  0  0  0  0  0  0  0  0
    5.2835    0.2530    0.4379 H   0  0  0  0  0  0  0  0  0  0  0  0
    4.2037   -0.3997    1.4900 H   0  0  0  0  0  0  0  0  0  0  0  0
   -1.3103    1.3348    1.2791 C   0  0  0  0  0  0  0  0  0  0  0  0
   -2.2333    1.9891    0.8084 O   0  0  0  0  0  0  0  0  0  0  0  0
   -0.4429    1.8293    2.1683 N   0  0  0  0  0  0  0  0  0  0  0  0
    0.2668    1.2118    2.5263 H   0  0  0  0  0  0  0  0  0  0  0  0
   -0.5118    3.1863    2.7135 C   0  0  0  0  0  0  0  0  0  0  0  0
   -1.4470    3.3159    3.2625 H   0  0  0  0  0  0  0  0  0  0  0  0
    0.3243    3.3682    3.3896 H   0  0  0  0  0  0  0  0  0  0  0  0
   -0.4850    3.9172    1.9023 H   0  0  0  0  0  0  0  0  0  0  0  0
  5  6  2  0  0  0  0
  5  7  1  0  0  0  0
  2  3  1  0  0  0  0
  2  4  1  0  0  0  0
  2  5  1  0  0  0  0
  1  2  1  0  0  0  0
 27 28  2  0  0  0  0
 27 29  1  0  0  0  0
 23 24  1  0  0  0  0
 23 25  1  0  0  0  0
 23 26  1  0  0  0  0
 20 21  1  0  0  0  0
 20 22  1  0  0  0  0
 20 23  1  0  0  0  0
 17 18  1  0  0  0  0
 17 19  1  0  0  0  0
 17 20  1  0  0  0  0
 14 15  1  0  0  0  0
 14 16  1  0  0  0  0
 14 17  1  0  0  0  0
 11 12  1  0  0  0  0
 11 13  1  0  0  0  0
 11 14  1  0  0  0  0
  9 10  1  0  0  0  0
  9 11  1  0  0  0  0
  9 27  1  0  0  0  0
  7  8  1  0  0  0  0
  7  9  1  0  0  0  0
 31 32  1  0  0  0  0
 31 33  1  0  0  0  0
 31 34  1  0  0  0  0
 29 30  1  0  0  0  0
 29 31  1  0  0  0  0
M  CHG  1  23   1
M  END
$$$$
default_name
  -OEChem-02102213163D

 34 33  0     1  0  0  0  0  0999 V2000
   -3.8899   -3.6747    1.6490 H   0  0  0  0  0  0  0  0  0  0  0  0
   -3.9109   -2.6717    1.2250 C   0  0  0  0  0  0  0  0  0  0  0  0
   -4.6009   -2.0517    1.7950 H   0  0  0  0  0  0  0  0  0  0  0  0
   -4.2309   -2.7237    0.1860 H   0  0  0  0  0  0  0  0  0  0  0  0
   -2.5229   -2.0787    1.2980 C   0  0  0  0  0  0  0  0  0  0  0  0
   -1.5999   -2.7227    1.7810 O   0  0  0  0  0  0  0  0  0  0  0  0
   -2.3659   -0.8447    0.8120 N   0  0  0  0  0  0  0  0  0  0  0  0
   -3.1749   -0.3807    0.4220 H   0  0  0  0  0  0  0  0  0  0  0  0
   -1.0919   -0.1077    0.8170 C   0  0  1  0  0  0  0  0  0  0  0  0
   -0.4136   -0.6011    1.5155 H   0  0  0  0  0  0  0  0  0  0  0  0
   -0.4834   -0.1723   -0.5965 C   0  0  0  0  0  0  0  0  0  0  0  0
   -0.3215   -1.2193   -0.8577 H   0  0  0  0  0  0  0  0  0  0  0  0
   -1.1913    0.2511   -1.3116 H   0  0  0  0  0  0  0  0  0  0  0  0
    0.8580    0.5676   -0.7138 C   0  0  0  0  0  0  0  0  0  0  0  0
    0.9764    0.9553   -1.7264 H   0  0  0  0  0  0  0  0  0  0  0  0
    0.8715    1.4012   -0.0090 H   0  0  0  0  0  0  0  0  0  0  0  0
    2.0218   -0.3825   -0.3992 C   0  0  0  0  0  0  0  0  0  0  0  0
    1.8924   -0.7807    0.6100 H   0  0  0  0  0  0  0  0  0  0  0  0
    2.0094   -1.2092   -1.1123 H   0  0  0  0  0  0  0  0  0  0  0  0
    3.3602    0.3610   -0.4916 C   0  0  0  0  0  0  0  0  0  0  0  0
    3.4671    0.7583   -1.5063 H   0  0  0  0  0  0  0  0  0  0  0  0
    3.3352    1.2091    0.1993 H   0  0  0  0  0  0  0  0  0  0  0  0
    4.5031   -0.5299   -0.1683 N   0  3  0  0  0  0  0  0  0  0  0  0
    4.5377   -1.3112   -0.8111 H   0  0  0  0  0  0  0  0  0  0  0  0
    5.3779   -0.0245   -0.2334 H   0  0  0  0  0  0  0  0  0  0  0  0
    4.4133   -0.8933    0.7734 H   0  0  0  0  0  0  0  0  0  0  0  0
   -1.3103    1.3348    1.2791 C   0  0  0  0  0  0  0  0  0  0  0  0
   -2.2333    1.9891    0.8084 O   0  0  0  0  0  0  0  0  0  0  0  0
   -0.4429    1.8293    2.1683 N   0  0  0  0  0  0  0  0  0  0  0  0
    0.2668    1.2118    2.5263 H   0  0  0  0  0  0  0  0  0  0  0  0
   -0.5118    3.1863    2.7135 C   0  0  0  0  0  0  0  0  0  0  0  0
   -1.4470    3.3159    3.2625 H   0  0  0  0  0  0  0  0  0  0  0  0
    0.3243    3.3682    3.3896 H   0  0  0  0  0  0  0  0  0  0  0  0
   -0.4850    3.9172    1.9023 H   0  0  0  0  0  0  0  0  0  0  0  0
  5  6  2  0  0  0  0
  5  7  1  0  0  0  0
  2  3  1  0  0  0  0
  2  4  1  0  0  0  0
  2  5  1  0  0  0  0
  1  2  1  0  0  0  0
 27 28  2  0  0  0  0
 27 29  1  0  0  0  0
 23 24  1  0  0  0  0
 23 25  1  0  0  0  0
 23 26  1  0  0  0  0
 20 21  1  0  0  0  0
 20 22  1  0  0  0  0
 20 23  1  0  0  0  0
 17 18  1  0  0  0  0
 17 19  1  0  0  0  0
 17 20  1  0  0  0  0
 14 15  1  0  0  0  0
 14 16  1  0  0  0  0
 14 17  1  0  0  0  0
 11 12  1  0  0  0  0
 11 13  1  0  0  0  0
 11 14  1  0  0  0  0
  9 10  1  0  0  0  0
  9 11  1  0  0  0  0
  9 27  1  0  0  0  0
  7  8  1  0  0  0  0
  7  9  1  0  0  0  0
 31 32  1  0  0  0  0
 31 33  1  0  0  0  0
 31 34  1  0  0  0  0
 29 30  1  0  0  0  0
 29 31  1  0  0  0  0
M  CHG  1  23   1
M  END
$$$$
default_name
  -OEChem-02102213163D

 34 33  0     1  0  0  0  0  0999 V2000
   -3.8899   -3.6747    1.6490 H   0  0  0  0  0  0  0  0  0  0  0  0
   -3.9109   -2.6717    1.2250 C   0  0  0  0  0  0  0  0  0  0  0  0
   -4.6009   -2.0517    1.7950 H   0  0  0  0  0  0  0  0  0  0  0  0
   -4.2309   -2.7237    0.1860 H   0  0  0  0  0  0  0  0  0  0  0  0
   -2.5229   -2.0787    1.2980 C   0  0  0  0  0  0  0  0  0  0  0  0
   -1.5999   -2.7227    1.7810 O   0  0  0  0  0  0  0  0  0  0  0  0
   -2.3659   -0.8447    0.8120 N   0  0  0  0  0  0  0  0  0  0  0  0
   -3.1749   -0.3807    0.4220 H   0  0  0  0  0  0  0  0  0  0  0  0
   -1.0919   -0.1077    0.8170 C   0  0  1  0  0  0  0  0  0  0  0  0
   -0.4136   -0.6011    1.5155 H   0  0  0  0  0  0  0  0  0  0  0  0
   -0.4834   -0.1723   -0.5965 C   0  0  0  0  0  0  0  0  0  0  0  0
   -0.3215   -1.2193   -0.8577 H   0  0  0  0  0  0  0  0  0  0  0  0
   -1.1913    0.2511   -1.3116 H   0  0  0  0  0  0  0  0  0  0  0  0
    0.8580    0.5676   -0.7138 C   0  0  0  0  0  0  0  0  0  0  0  0
    0.8647    1.1746   -1.6200 H   0  0  0  0  0  0  0  0  0  0  0  0
    0.9860    1.2192    0.1528 H   0  0  0  0  0  0  0  0  0  0  0  0
    2.0185   -0.4354   -0.7711 C   0  0  0  0  0  0  0  0  0  0  0  0
    2.0000   -1.0518    0.1309 H   0  0  0  0  0  0  0  0  0  0  0  0
    1.8907   -1.0784   -1.6442 H   0  0  0  0  0  0  0  0  0  0  0  0
    3.3601    0.3024   -0.8631 C   0  0  0  0  0  0  0  0  0  0  0  0
    3.3555    0.9192   -1.7677 H   0  0  0  0  0  0  0  0  0  0  0  0
    3.4487    0.9713   -0.0018 H   0  0  0  0  0  0  0  0  0  0  0  0
    4.5029   -0.6449   -0.8960 N   0  3  0  0  0  0  0  0  0  0  0  0
    4.4319   -1.2599   -1.6970 H   0  0  0  0  0  0  0  0  0  0  0  0
    5.3799   -0.1427   -0.9564 H   0  0  0  0  0  0  0  0  0  0  0  0
    4.5167   -1.2123   -0.0565 H   0  0  0  0  0  0  0  0  0  0  0  0
   -1.3103    1.3348    1.2791 C   0  0  0  0  0  0  0  0  0  0  0  0
   -2.2333    1.9891    0.8084 O   0  0  0  0  0  0  0  0  0  0  0  0
   -0.4429    1.8293    2.1683 N   0  0  0  0  0  0  0  0  0  0  0  0
    0.2668    1.2118    2.5263 H   0  0  0  0  0  0  0  0  0  0  0  0
   -0.5118    3.1863    2.7135 C   0  0  0  0  0  0  0  0  0  0  0  0
   -1.4470    3.3159    3.2625 H   0  0  0  0  0  0  0  0  0  0  0  0
    0.3243    3.3682    3.3896 H   0  0  0  0  0  0  0  0  0  0  0  0
   -0.4850    3.9172    1.9023 H   0  0  0  0  0  0  0  0  0  0  0  0
  5  6  2  0  0  0  0
  5  7  1  0  0  0  0
  2  3  1  0  0  0  0
  2  4  1  0  0  0  0
  2  5  1  0  0  0  0
  1  2  1  0  0  0  0
 27 28  2  0  0  0  0
 27 29  1  0  0  0  0
 23 24  1  0  0  0  0
 23 25  1  0  0  0  0
 23 26  1  0  0  0  0
 20 21  1  0  0  0  0
 20 22  1  0  0  0  0
 20 23  1  0  0  0  0
 17 18  1  0  0  0  0
 17 19  1  0  0  0  0
 17 20  1  0  0  0  0
 14 15  1  0  0  0  0
 14 16  1  0  0  0  0
 14 17  1  0  0  0  0
 11 12  1  0  0  0  0
 11 13  1  0  0  0  0
 11 14  1  0  0  0  0
  9 10  1  0  0  0  0
  9 11  1  0  0  0  0
  9 27  1  0  0  0  0
  7  8  1  0  0  0  0
  7  9  1  0  0  0  0
 31 32  1  0  0  0  0
 31 33  1  0  0  0  0
 31 34  1  0  0  0  0
 29 30  1  0  0  0  0
 29 31  1  0  0  0  0
M  CHG  1  23   1
M  END
$$$$
default_name
  -OEChem-02102213163D

 34 33  0     1  0  0  0  0  0999 V2000
   -3.8899   -3.6747    1.6490 H   0  0  0  0  0  0  0  0  0  0  0  0
   -3.9109   -2.6717    1.2250 C   0  0  0  0  0  0  0  0  0  0  0  0
   -4.6009   -2.0517    1.7950 H   0  0  0  0  0  0  0  0  0  0  0  0
   -4.2309   -2.7237    0.1860 H   0  0  0  0  0  0  0  0  0  0  0  0
   -2.5229   -2.0787    1.2980 C   0  0  0  0  0  0  0  0  0  0  0  0
   -1.5999   -2.7227    1.7810 O   0  0  0  0  0  0  0  0  0  0  0  0
   -2.3659   -0.8447    0.8120 N   0  0  0  0  0  0  0  0  0  0  0  0
   -3.1749   -0.3807    0.4220 H   0  0  0  0  0  0  0  0  0  0  0  0
   -1.0919   -0.1077    0.8170 C   0  0  1  0  0  0  0  0  0  0  0  0
   -0.4136   -0.6011    1.5155 H   0  0  0  0  0  0  0  0  0  0  0  0
   -0.4834   -0.1723   -0.5965 C   0  0  0  0  0  0  0  0  0  0  0  0
   -0.3215   -1.2193   -0.8577 H   0  0  0  0  0  0  0  0  0  0  0  0
   -1.1913    0.2511   -1.3116 H   0  0  0  0  0  0  0  0  0  0  0  0
    0.8580    0.5676   -0.7138 C   0  0  0  0  0  0  0  0  0  0  0  0
    0.7744    1.3646   -1.4538 H   0  0  0  0  0  0  0  0  0  0  0  0
    1.1132    1.0046    0.2536 H   0  0  0  0  0  0  0  0  0  0  0  0
    1.9679   -0.4024   -1.1418 C   0  0  0  0  0  0  0  0  0  0  0  0
    2.0390   -1.2076   -0.4065 H   0  0  0  0  0  0  0  0  0  0  0  0
    1.7124   -0.8295   -2.1136 H   0  0  0  0  0  0  0  0  0  0  0  0
    3.3125    0.3297   -1.2352 C   0  0  0  0  0  0  0  0  0  0  0  0
    3.2183    1.1359   -1.9700 H   0  0  0  0  0  0  0  0  0  0  0  0
    3.5286    0.7849   -0.2640 H   0  0  0  0  0  0  0  0  0  0  0  0
    4.4097   -0.5916   -1.6249 N   0  3  0  0  0  0  0  0  0  0  0  0
    4.2204   -1.0081   -2.5279 H   0  0  0  0  0  0  0  0  0  0  0  0
    5.2893   -0.0936   -1.6817 H   0  0  0  0  0  0  0  0  0  0  0  0
    4.5068   -1.3350   -0.9431 H   0  0  0  0  0  0  0  0  0  0  0  0
   -1.3103    1.3348    1.2791 C   0  0  0  0  0  0  0  0  0  0  0  0
   -2.2333    1.9891    0.8084 O   0  0  0  0  0  0  0  0  0  0  0  0
   -0.4429    1.8293    2.1683 N   0  0  0  0  0  0  0  0  0  0  0  0
    0.2668    1.2118    2.5263 H   0  0  0  0  0  0  0  0  0  0  0  0
   -0.5118    3.1863    2.7135 C   0  0  0  0  0  0  0  0  0  0  0  0
   -1.4470    3.3159    3.2625 H   0  0  0  0  0  0  0  0  0  0  0  0
    0.3243    3.3682    3.3896 H   0  0  0  0  0  0  0  0  0  0  0  0
   -0.4850    3.9172    1.9023 H   0  0  0  0  0  0  0  0  0  0  0  0
  5  6  2  0  0  0  0
  5  7  1  0  0  0  0
  2  3  1  0  0  0  0
  2  4  1  0  0  0  0
  2  5  1  0  0  0  0
  1  2  1  0  0  0  0
 27 28  2  0  0  0  0
 27 29  1  0  0  0  0
 23 24  1  0  0  0  0
 23 25  1  0  0  0  0
 23 26  1  0  0  0  0
 20 21  1  0  0  0  0
 20 22  1  0  0  0  0
 20 23  1  0  0  0  0
 17 18  1  0  0  0  0
 17 19  1  0  0  0  0
 17 20  1  0  0  0  0
 14 15  1  0  0  0  0
 14 16  1  0  0  0  0
 14 17  1  0  0  0  0
 11 12  1  0  0  0  0
 11 13  1  0  0  0  0
 11 14  1  0  0  0  0
  9 10  1  0  0  0  0
  9 11  1  0  0  0  0
  9 27  1  0  0  0  0
  7  8  1  0  0  0  0
  7  9  1  0  0  0  0
 31 32  1  0  0  0  0
 31 33  1  0  0  0  0
 31 34  1  0  0  0  0
 29 30  1  0  0  0  0
 29 31  1  0  0  0  0
M  CHG  1  23   1
M  END
$$$$
default_name
  -OEChem-02102213163D

 34 33  0     1  0  0  0  0  0999 V2000
   -3.8899   -3.6747    1.6490 H   0  0  0  0  0  0  0  0  0  0  0  0
   -3.9109   -2.6717    1.2250 C   0  0  0  0  0  0  0  0  0  0  0  0
   -4.6009   -2.0517    1.7950 H   0  0  0  0  0  0  0  0  0  0  0  0
   -4.2309   -2.7237    0.1860 H   0  0  0  0  0  0  0  0  0  0  0  0
   -2.5229   -2.0787    1.2980 C   0  0  0  0  0  0  0  0  0  0  0  0
   -1.5999   -2.7227    1.7810 O   0  0  0  0  0  0  0  0  0  0  0  0
   -2.3659   -0.8447    0.8120 N   0  0  0  0  0  0  0  0  0  0  0  0
   -3.1749   -0.3807    0.4220 H   0  0  0  0  0  0  0  0  0  0  0  0
   -1.0919   -0.1077    0.8170 C   0  0  1  0  0  0  0  0  0  0  0  0
   -0.4136   -0.6011    1.5155 H   0  0  0  0  0  0  0  0  0  0  0  0
   -0.4834   -0.1723   -0.5965 C   0  0  0  0  0  0  0  0  0  0  0  0
   -0.3215   -1.2193   -0.8577 H   0  0  0  0  0  0  0  0  0  0  0  0
   -1.1913    0.2511   -1.3116 H   0  0  0  0  0  0  0  0  0  0  0  0
    0.8580    0.5676   -0.7138 C   0  0  0  0  0  0  0  0  0  0  0  0
    0.7117    1.5124   -1.2390 H   0  0  0  0  0  0  0  0  0  0  0  0
    1.2444    0.7719    0.2866 H   0  0  0  0  0  0  0  0  0  0  0  0
    1.8735   -0.2858   -1.4861 C   0  0  0  0  0  0  0  0  0  0  0  0
    2.0065   -1.2373   -0.9657 H   0  0  0  0  0  0  0  0  0  0  0  0
    1.4865   -0.4795   -2.4886 H   0  0  0  0  0  0  0  0  0  0  0  0
    3.2207    0.4411   -1.5825 C   0  0  0  0  0  0  0  0  0  0  0  0
    3.0648    1.3936   -2.0993 H   0  0  0  0  0  0  0  0  0  0  0  0
    3.5694    0.6626   -0.5694 H   0  0  0  0  0  0  0  0  0  0  0  0
    4.2299   -0.3735   -2.3052 N   0  3  0  0  0  0  0  0  0  0  0  0
    3.9174   -0.5729   -3.2473 H   0  0  0  0  0  0  0  0  0  0  0  0
    5.1124    0.1196   -2.3599 H   0  0  0  0  0  0  0  0  0  0  0  0
    4.3844   -1.2529   -1.8259 H   0  0  0  0  0  0  0  0  0  0  0  0
   -1.3103    1.3348    1.2791 C   0  0  0  0  0  0  0  0  0  0  0  0
   -2.2333    1.9891    0.8084 O   0  0  0  0  0  0  0  0  0  0  0  0
   -0.4429    1.8293    2.1683 N   0  0  0  0  0  0  0  0  0  0  0  0
    0.2668    1.2118    2.5263 H   0  0  0  0  0  0  0  0  0  0  0  0
   -0.5118    3.1863    2.7135 C   0  0  0  0  0  0  0  0  0  0  0  0
   -1.4470    3.3159    3.2625 H   0  0  0  0  0  0  0  0  0  0  0  0
    0.3243    3.3682    3.3896 H   0  0  0  0  0  0  0  0  0  0  0  0
   -0.4850    3.9172    1.9023 H   0  0  0  0  0  0  0  0  0  0  0  0
  5  6  2  0  0  0  0
  5  7  1  0  0  0  0
  2  3  1  0  0  0  0
  2  4  1  0  0  0  0
  2  5  1  0  0  0  0
  1  2  1  0  0  0  0
 27 28  2  0  0  0  0
 27 29  1  0  0  0  0
 23 24  1  0  0  0  0
 23 25  1  0  0  0  0
 23 26  1  0  0  0  0
 20 21  1  0  0  0  0
 20 22  1  0  0  0  0
 20 23  1  0  0  0  0
 17 18  1  0  0  0  0
 17 19  1  0  0  0  0
 17 20  1  0  0  0  0
 14 15  1  0  0  0  0
 14 16  1  0  0  0  0
 14 17  1  0  0  0  0
 11 12  1  0  0  0  0
 11 13  1  0  0  0  0
 11 14  1  0  0  0  0
  9 10  1  0  0  0  0
  9 11  1  0  0  0  0
  9 27  1  0  0  0  0
  7  8  1  0  0  0  0
  7  9  1  0  0  0  0
 31 32  1  0  0  0  0
 31 33  1  0  0  0  0
 31 34  1  0  0  0  0
 29 30  1  0  0  0  0
 29 31  1  0  0  0  0
M  CHG  1  23   1
M  END
$$$$
default_name
  -OEChem-02102213163D

 34 33  0     1  0  0  0  0  0999 V2000
   -3.8899   -3.6747    1.6490 H   0  0  0  0  0  0  0  0  0  0  0  0
   -3.9109   -2.6717    1.2250 C   0  0  0  0  0  0  0  0  0  0  0  0
   -4.6009   -2.0517    1.7950 H   0  0  0  0  0  0  0  0  0  0  0  0
   -4.2309   -2.7237    0.1860 H   0  0  0  0  0  0  0  0  0  0  0  0
   -2.5229   -2.0787    1.2980 C   0  0  0  0  0  0  0  0  0  0  0  0
   -1.5999   -2.7227    1.7810 O   0  0  0  0  0  0  0  0  0  0  0  0
   -2.3659   -0.8447    0.8120 N   0  0  0  0  0  0  0  0  0  0  0  0
   -3.1749   -0.3807    0.4220 H   0  0  0  0  0  0  0  0  0  0  0  0
   -1.0919   -0.1077    0.8170 C   0  0  1  0  0  0  0  0  0  0  0  0
   -0.4136   -0.6011    1.5155 H   0  0  0  0  0  0  0  0  0  0  0  0
   -0.4834   -0.1723   -0.5965 C   0  0  0  0  0  0  0  0  0  0  0  0
   -0.3215   -1.2193   -0.8577 H   0  0  0  0  0  0  0  0  0  0  0  0
   -1.1913    0.2511   -1.3116 H   0  0  0  0  0  0  0  0  0  0  0  0
    0.8580    0.5676   -0.7138 C   0  0  0  0  0  0  0  0  0  0  0  0
    0.6808    1.6078   -0.9903 H   0  0  0  0  0  0  0  0  0  0  0  0
    1.3707    0.5372    0.2496 H   0  0  0  0  0  0  0  0  0  0  0  0
    1.7416   -0.0935   -1.7806 C   0  0  0  0  0  0  0  0  0  0  0  0
    1.9048   -1.1391   -1.5085 H   0  0  0  0  0  0  0  0  0  0  0  0
    1.2286   -0.0522   -2.7435 H   0  0  0  0  0  0  0  0  0  0  0  0
    3.0909    0.6289   -1.8814 C   0  0  0  0  0  0  0  0  0  0  0  0
    2.9055    1.6749   -2.1468 H   0  0  0  0  0  0  0  0  0  0  0  0
    3.5684    0.6125   -0.8970 H   0  0  0  0  0  0  0  0  0  0  0  0
    3.9758   -0.0056   -2.8907 N   0  3  0  0  0  0  0  0  0  0  0  0
    3.5437    0.0160   -3.8060 H   0  0  0  0  0  0  0  0  0  0  0  0
    4.8613    0.4823   -2.9447 H   0  0  0  0  0  0  0  0  0  0  0  0
    4.1576   -0.9717   -2.6449 H   0  0  0  0  0  0  0  0  0  0  0  0
   -1.3103    1.3348    1.2791 C   0  0  0  0  0  0  0  0  0  0  0  0
   -2.2333    1.9891    0.8084 O   0  0  0  0  0  0  0  0  0  0  0  0
   -0.4429    1.8293    2.1683 N   0  0  0  0  0  0  0  0  0  0  0  0
    0.2668    1.2118    2.5263 H   0  0  0  0  0  0  0  0  0  0  0  0
   -0.5118    3.1863    2.7135 C   0  0  0  0  0  0  0  0  0  0  0  0
   -1.4470    3.3159    3.2625 H   0  0  0  0  0  0  0  0  0  0  0  0
    0.3243    3.3682    3.3896 H   0  0  0  0  0  0  0  0  0  0  0  0
   -0.4850    3.9172    1.9023 H   0  0  0  0  0  0  0  0  0  0  0  0
  5  6  2  0  0  0  0
  5  7  1  0  0  0  0
  2  3  1  0  0  0  0
  2  4  1  0  0  0  0
  2  5  1  0  0  0  0
  1  2  1  0  0  0  0
 27 28  2  0  0  0  0
 27 29  1  0  0  0  0
 23 24  1  0  0  0  0
 23 25  1  0  0  0  0
 23 26  1  0  0  0  0
 20 21  1  0  0  0  0
 20 22  1  0  0  0  0
 20 23  1  0  0  0  0
 17 18  1  0  0  0  0
 17 19  1  0  0  0  0
 17 20  1  0  0  0  0
 14 15  1  0  0  0  0
 14 16  1  0  0  0  0
 14 17  1  0  0  0  0
 11 12  1  0  0  0  0
 11 13  1  0  0  0  0
 11 14  1  0  0  0  0
  9 10  1  0  0  0  0
  9 11  1  0  0  0  0
  9 27  1  0  0  0  0
  7  8  1  0  0  0  0
  7  9  1  0  0  0  0
 31 32  1  0  0  0  0
 31 33  1  0  0  0  0
 31 34  1  0  0  0  0
 29 30  1  0  0  0  0
 29 31  1  0  0  0  0
M  CHG  1  23   1
M  END
$$$$
default_name
  -OEChem-02102213163D

 34 33  0     1  0  0  0  0  0999 V2000
   -3.8899   -3.6747    1.6490 H   0  0  0  0  0  0  0  0  0  0  0  0
   -3.9109   -2.6717    1.2250 C   0  0  0  0  0  0  0  0  0  0  0  0
   -4.6009   -2.0517    1.7950 H   0  0  0  0  0  0  0  0  0  0  0  0
   -4.2309   -2.7237    0.1860 H   0  0  0  0  0  0  0  0  0  0  0  0
   -2.5229   -2.0787    1.2980 C   0  0  0  0  0  0  0  0  0  0  0  0
   -1.5999   -2.7227    1.7810 O   0  0  0  0  0  0  0  0  0  0  0  0
   -2.3659   -0.8447    0.8120 N   0  0  0  0  0  0  0  0  0  0  0  0
   -3.1749   -0.3807    0.4220 H   0  0  0  0  0  0  0  0  0  0  0  0
   -1.0919   -0.1077    0.8170 C   0  0  1  0  0  0  0  0  0  0  0  0
   -0.4136   -0.6011    1.5155 H   0  0  0  0  0  0  0  0  0  0  0  0
   -0.4834   -0.1723   -0.5965 C   0  0  0  0  0  0  0  0  0  0  0  0
   -0.3215   -1.2193   -0.8577 H   0  0  0  0  0  0  0  0  0  0  0  0
   -1.1913    0.2511   -1.3116 H   0  0  0  0  0  0  0  0  0  0  0  0
    0.8580    0.5676   -0.7138 C   0  0  0  0  0  0  0  0  0  0  0  0
    0.6839    1.6444   -0.7247 H   0  0  0  0  0  0  0  0  0  0  0  0
    1.4834    0.3163    0.1451 H   0  0  0  0  0  0  0  0  0  0  0  0
    1.5814    0.1614   -2.0052 C   0  0  0  0  0  0  0  0  0  0  0  0
    1.7409   -0.9195   -1.9980 H   0  0  0  0  0  0  0  0  0  0  0  0
    0.9561    0.4232   -2.8610 H   0  0  0  0  0  0  0  0  0  0  0  0
    2.9320    0.8805   -2.1114 C   0  0  0  0  0  0  0  0  0  0  0  0
    2.7513    1.9604   -2.1093 H   0  0  0  0  0  0  0  0  0  0  0  0
    3.5255    0.6383   -1.2247 H   0  0  0  0  0  0  0  0  0  0  0  0
    3.6646    0.4871   -3.3415 N   0  3  0  0  0  0  0  0  0  0  0  0
    3.1248    0.7184   -4.1661 H   0  0  0  0  0  0  0  0  0  0  0  0
    4.5529    0.9697   -3.3964 H   0  0  0  0  0  0  0  0  0  0  0  0
    3.8421   -0.5105   -3.3441 H   0  0  0  0  0  0  0  0  0  0  0  0
   -1.3103    1.3348    1.2791 C   0  0  0  0  0  0  0  0  0  0  0  0
   -2.2333    1.9891    0.8084 O   0  0  0  0  0  0  0  0  0  0  0  0
   -0.4429    1.8293    2.1683 N   0  0  0  0  0  0  0  0  0  0  0  0
    0.2668    1.2118    2.5263 H   0  0  0  0  0  0  0  0  0  0  0  0
   -0.5118    3.1863    2.7135 C   0  0  0  0  0  0  0  0  0  0  0  0
   -1.4470    3.3159    3.2625 H   0  0  0  0  0  0  0  0  0  0  0  0
    0.3243    3.3682    3.3896 H   0  0  0  0  0  0  0  0  0  0  0  0
   -0.4850    3.9172    1.9023 H   0  0  0  0  0  0  0  0  0  0  0  0
  5  6  2  0  0  0  0
  5  7  1  0  0  0  0
  2  3  1  0  0  0  0
  2  4  1  0  0  0  0
  2  5  1  0  0  0  0
  1  2  1  0  0  0  0
 27 28  2  0  0  0  0
 27 29  1  0  0  0  0
 23 24  1  0  0  0  0
 23 25  1  0  0  0  0
 23 26  1  0  0  0  0
 20 21  1  0  0  0  0
 20 22  1  0  0  0  0
 20 23  1  0  0  0  0
 17 18  1  0  0  0  0
 17 19  1  0  0  0  0
 17 20  1  0  0  0  0
 14 15  1  0  0  0  0
 14 16  1  0  0  0  0
 14 17  1  0  0  0  0
 11 12  1  0  0  0  0
 11 13  1  0  0  0  0
 11 14  1  0  0  0  0
  9 10  1  0  0  0  0
  9 11  1  0  0  0  0
  9 27  1  0  0  0  0
  7  8  1  0  0  0  0
  7  9  1  0  0  0  0
 31 32  1  0  0  0  0
 31 33  1  0  0  0  0
 31 34  1  0  0  0  0
 29 30  1  0  0  0  0
 29 31  1  0  0  0  0
M  CHG  1  23   1
M  END
$$$$
default_name
  -OEChem-02102213163D

 34 33  0     1  0  0  0  0  0999 V2000
   -3.8899   -3.6747    1.6490 H   0  0  0  0  0  0  0  0  0  0  0  0
   -3.9109   -2.6717    1.2250 C   0  0  0  0  0  0  0  0  0  0  0  0
   -4.6009   -2.0517    1.7950 H   0  0  0  0  0  0  0  0  0  0  0  0
   -4.2309   -2.7237    0.1860 H   0  0  0  0  0  0  0  0  0  0  0  0
   -2.5229   -2.0787    1.2980 C   0  0  0  0  0  0  0  0  0  0  0  0
   -1.5999   -2.7227    1.7810 O   0  0  0  0  0  0  0  0  0  0  0  0
   -2.3659   -0.8447    0.8120 N   0  0  0  0  0  0  0  0  0  0  0  0
   -3.1749   -0.3807    0.4220 H   0  0  0  0  0  0  0  0  0  0  0  0
   -1.0919   -0.1077    0.8170 C   0  0  1  0  0  0  0  0  0  0  0  0
   -0.4136   -0.6011    1.5155 H   0  0  0  0  0  0  0  0  0  0  0  0
   -0.4834   -0.1723   -0.5965 C   0  0  0  0  0  0  0  0  0  0  0  0
   -0.5682   -1.1958   -0.9650 H   0  0  0  0  0  0  0  0  0  0  0  0
   -1.0540    0.4775   -1.2629 H   0  0  0  0  0  0  0  0  0  0  0  0
    0.9975    0.2349   -0.6385 C   0  0  0  0  0  0  0  0  0  0  0  0
    1.1075    1.2583   -0.2772 H   0  0  0  0  0  0  0  0  0  0  0  0
    1.5726   -0.4340    0.0047 H   0  0  0  0  0  0  0  0  0  0  0  0
    1.5355    0.1470   -2.0734 C   0  0  0  0  0  0  0  0  0  0  0  0
    1.4102   -0.8755   -2.4376 H   0  0  0  0  0  0  0  0  0  0  0  0
    0.9633    0.8244   -2.7104 H   0  0  0  0  0  0  0  0  0  0  0  0
    3.0204    0.5294   -2.1130 C   0  0  0  0  0  0  0  0  0  0  0  0
    3.1254    1.5525   -1.7376 H   0  0  0  0  0  0  0  0  0  0  0  0
    3.5683   -0.1336   -1.4366 H   0  0  0  0  0  0  0  0  0  0  0  0
    3.5732    0.4298   -3.4874 N   0  3  0  0  0  0  0  0  0  0  0  0
    3.0770    1.0491   -4.1159 H   0  0  0  0  0  0  0  0  0  0  0  0
    4.5529    0.6848   -3.4963 H   0  0  0  0  0  0  0  0  0  0  0  0
    3.4864   -0.5177   -3.8362 H   0  0  0  0  0  0  0  0  0  0  0  0
   -1.3103    1.3348    1.2791 C   0  0  0  0  0  0  0  0  0  0  0  0
   -2.2333    1.9891    0.8084 O   0  0  0  0  0  0  0  0  0  0  0  0
   -0.4429    1.8293    2.1683 N   0  0  0  0  0  0  0  0  0  0  0  0
    0.2668    1.2118    2.5263 H   0  0  0  0  0  0  0  0  0  0  0  0
   -0.5118    3.1863    2.7135 C   0  0  0  0  0  0  0  0  0  0  0  0
   -1.4470    3.3159    3.2625 H   0  0  0  0  0  0  0  0  0  0  0  0
    0.3243    3.3682    3.3896 H   0  0  0  0  0  0  0  0  0  0  0  0
   -0.4850    3.9172    1.9023 H   0  0  0  0  0  0  0  0  0  0  0  0
  5  6  2  0  0  0  0
  5  7  1  0  0  0  0
  2  3  1  0  0  0  0
  2  4  1  0  0  0  0
  2  5  1  0  0  0  0
  1  2  1  0  0  0  0
 27 28  2  0  0  0  0
 27 29  1  0  0  0  0
 23 24  1  0  0  0  0
 23 25  1  0  0  0  0
 23 26  1  0  0  0  0
 20 21  1  0  0  0  0
 20 22  1  0  0  0  0
 20 23  1  0  0  0  0
 17 18  1  0  0  0  0
 17 19  1  0  0  0  0
 17 20  1  0  0  0  0
 14 15  1  0  0  0  0
 14 16  1  0  0  0  0
 14 17  1  0  0  0  0
 11 12  1  0  0  0  0
 11 13  1  0  0  0  0
 11 14  1  0  0  0  0
  9 10  1  0  0  0  0
  9 11  1  0  0  0  0
  9 27  1  0  0  0  0
  7  8  1  0  0  0  0
  7  9  1  0  0  0  0
 31 32  1  0  0  0  0
 31 33  1  0  0  0  0
 31 34  1  0  0  0  0
 29 30  1  0  0  0  0
 29 31  1  0  0  0  0
M  CHG  1  23   1
M  END
$$$$
default_name
  -OEChem-02102213163D

 34 33  0     1  0  0  0  0  0999 V2000
   -3.8899   -3.6747    1.6490 H   0  0  0  0  0  0  0  0  0  0  0  0
   -3.9109   -2.6717    1.2250 C   0  0  0  0  0  0  0  0  0  0  0  0
   -4.6009   -2.0517    1.7950 H   0  0  0  0  0  0  0  0  0  0  0  0
   -4.2309   -2.7237    0.1860 H   0  0  0  0  0  0  0  0  0  0  0  0
   -2.5229   -2.0787    1.2980 C   0  0  0  0  0  0  0  0  0  0  0  0
   -1.5999   -2.7227    1.7810 O   0  0  0  0  0  0  0  0  0  0  0  0
   -2.3659   -0.8447    0.8120 N   0  0  0  0  0  0  0  0  0  0  0  0
   -3.1749   -0.3807    0.4220 H   0  0  0  0  0  0  0  0  0  0  0  0
   -1.0919   -0.1077    0.8170 C   0  0  1  0  0  0  0  0  0  0  0  0
   -0.4136   -0.6011    1.5155 H   0  0  0  0  0  0  0  0  0  0  0  0
   -0.4834   -0.1723   -0.5965 C   0  0  0  0  0  0  0  0  0  0  0  0
   -0.5682   -1.1958   -0.9650 H   0  0  0  0  0  0  0  0  0  0  0  0
   -1.0540    0.4775   -1.2629 H   0  0  0  0  0  0  0  0  0  0  0  0
    0.9975    0.2349   -0.6385 C   0  0  0  0  0  0  0  0  0  0  0  0
    1.1478    1.1358   -0.0421 H   0  0  0  0  0  0  0  0  0  0  0  0
    1.6042   -0.5725   -0.2239 H   0  0  0  0  0  0  0  0  0  0  0  0
    1.4357    0.5090   -2.0838 C   0  0  0  0  0  0  0  0  0  0  0  0
    1.2699   -0.3904   -2.6818 H   0  0  0  0  0  0  0  0  0  0  0  0
    0.8324    1.3230   -2.4905 H   0  0  0  0  0  0  0  0  0  0  0  0
    2.9203    0.8915   -2.1300 C   0  0  0  0  0  0  0  0  0  0  0  0
    3.0666    1.7887   -1.5197 H   0  0  0  0  0  0  0  0  0  0  0  0
    3.5022    0.0815   -1.6800 H   0  0  0  0  0  0  0  0  0  0  0  0
    3.3772    1.1392   -3.5208 N   0  3  0  0  0  0  0  0  0  0  0  0
    2.8494    1.8950   -3.9391 H   0  0  0  0  0  0  0  0  0  0  0  0
    4.3580    1.3899   -3.5340 H   0  0  0  0  0  0  0  0  0  0  0  0
    3.2520    0.3087   -4.0878 H   0  0  0  0  0  0  0  0  0  0  0  0
   -1.3103    1.3348    1.2791 C   0  0  0  0  0  0  0  0  0  0  0  0
   -2.2333    1.9891    0.8084 O   0  0  0  0  0  0  0  0  0  0  0  0
   -0.4429    1.8293    2.1683 N   0  0  0  0  0  0  0  0  0  0  0  0
    0.2668    1.2118    2.5263 H   0  0  0  0  0  0  0  0  0  0  0  0
   -0.5118    3.1863    2.7135 C   0  0  0  0  0  0  0  0  0  0  0  0
   -1.4470    3.3159    3.2625 H   0  0  0  0  0  0  0  0  0  0  0  0
    0.3243    3.3682    3.3896 H   0  0  0  0  0  0  0  0  0  0  0  0
   -0.4850    3.9172    1.9023 H   0  0  0  0  0  0  0  0  0  0  0  0
  5  6  2  0  0  0  0
  5  7  1  0  0  0  0
  2  3  1  0  0  0  0
  2  4  1  0  0  0  0
  2  5  1  0  0  0  0
  1  2  1  0  0  0  0
 27 28  2  0  0  0  0
 27 29  1  0  0  0  0
 23 24  1  0  0  0  0
 23 25  1  0  0  0  0
 23 26  1  0  0  0  0
 20 21  1  0  0  0  0
 20 22  1  0  0  0  0
 20 23  1  0  0  0  0
 17 18  1  0  0  0  0
 17 19  1  0  0  0  0
 17 20  1  0  0  0  0
 14 15  1  0  0  0  0
 14 16  1  0  0  0  0
 14 17  1  0  0  0  0
 11 12  1  0  0  0  0
 11 13  1  0  0  0  0
 11 14  1  0  0  0  0
  9 10  1  0  0  0  0
  9 11  1  0  0  0  0
  9 27  1  0  0  0  0
  7  8  1  0  0  0  0
  7  9  1  0  0  0  0
 31 32  1  0  0  0  0
 31 33  1  0  0  0  0
 31 34  1  0  0  0  0
 29 30  1  0  0  0  0
 29 31  1  0  0  0  0
M  CHG  1  23   1
M  END
$$$$
default_name
  -OEChem-02102213163D

 34 33  0     1  0  0  0  0  0999 V2000
   -3.8899   -3.6747    1.6490 H   0  0  0  0  0  0  0  0  0  0  0  0
   -3.9109   -2.6717    1.2250 C   0  0  0  0  0  0  0  0  0  0  0  0
   -4.6009   -2.0517    1.7950 H   0  0  0  0  0  0  0  0  0  0  0  0
   -4.2309   -2.7237    0.1860 H   0  0  0  0  0  0  0  0  0  0  0  0
   -2.5229   -2.0787    1.2980 C   0  0  0  0  0  0  0  0  0  0  0  0
   -1.5999   -2.7227    1.7810 O   0  0  0  0  0  0  0  0  0  0  0  0
   -2.3659   -0.8447    0.8120 N   0  0  0  0  0  0  0  0  0  0  0  0
   -3.1749   -0.3807    0.4220 H   0  0  0  0  0  0  0  0  0  0  0  0
   -1.0919   -0.1077    0.8170 C   0  0  1  0  0  0  0  0  0  0  0  0
   -0.4136   -0.6011    1.5155 H   0  0  0  0  0  0  0  0  0  0  0  0
   -0.4834   -0.1723   -0.5965 C   0  0  0  0  0  0  0  0  0  0  0  0
   -0.5682   -1.1958   -0.9650 H   0  0  0  0  0  0  0  0  0  0  0  0
   -1.0540    0.4775   -1.2629 H   0  0  0  0  0  0  0  0  0  0  0  0
    0.9975    0.2349   -0.6385 C   0  0  0  0  0  0  0  0  0  0  0  0
    1.2020    0.9586    0.1516 H   0  0  0  0  0  0  0  0  0  0  0  0
    1.6180   -0.6495   -0.4814 H   0  0  0  0  0  0  0  0  0  0  0  0
    1.3411    0.8619   -1.9968 C   0  0  0  0  0  0  0  0  0  0  0  0
    1.1210    0.1401   -2.7870 H   0  0  0  0  0  0  0  0  0  0  0  0
    0.7246    1.7508   -2.1448 H   0  0  0  0  0  0  0  0  0  0  0  0
    2.8250    1.2463   -2.0492 C   0  0  0  0  0  0  0  0  0  0  0  0
    3.0265    1.9628   -1.2463 H   0  0  0  0  0  0  0  0  0  0  0  0
    3.4232    0.3505   -1.8568 H   0  0  0  0  0  0  0  0  0  0  0  0
    3.1906    1.8341   -3.3627 N   0  3  0  0  0  0  0  0  0  0  0  0
    2.6476    2.6696   -3.5417 H   0  0  0  0  0  0  0  0  0  0  0  0
    4.1720    2.0818   -3.3811 H   0  0  0  0  0  0  0  0  0  0  0  0
    3.0142    1.1714   -4.1087 H   0  0  0  0  0  0  0  0  0  0  0  0
   -1.3103    1.3348    1.2791 C   0  0  0  0  0  0  0  0  0  0  0  0
   -2.2333    1.9891    0.8084 O   0  0  0  0  0  0  0  0  0  0  0  0
   -0.4429    1.8293    2.1683 N   0  0  0  0  0  0  0  0  0  0  0  0
    0.2668    1.2118    2.5263 H   0  0  0  0  0  0  0  0  0  0  0  0
   -0.5118    3.1863    2.7135 C   0  0  0  0  0  0  0  0  0  0  0  0
   -1.4470    3.3159    3.2625 H   0  0  0  0  0  0  0  0  0  0  0  0
    0.3243    3.3682    3.3896 H   0  0  0  0  0  0  0  0  0  0  0  0
   -0.4850    3.9172    1.9023 H   0  0  0  0  0  0  0  0  0  0  0  0
  5  6  2  0  0  0  0
  5  7  1  0  0  0  0
  2  3  1  0  0  0  0
  2  4  1  0  0  0  0
  2  5  1  0  0  0  0
  1  2  1  0  0  0  0
 27 28  2  0  0  0  0
 27 29  1  0  0  0  0
 23 24  1  0  0  0  0
 23 25  1  0  0  0  0
 23 26  1  0  0  0  0
 20 21  1  0  0  0  0
 20 22  1  0  0  0  0
 20 23  1  0  0  0  0
 17 18  1  0  0  0  0
 17 19  1  0  0  0  0
 17 20  1  0  0  0  0
 14 15  1  0  0  0  0
 14 16  1  0  0  0  0
 14 17  1  0  0  0  0
 11 12  1  0  0  0  0
 11 13  1  0  0  0  0
 11 14  1  0  0  0  0
  9 10  1  0  0  0  0
  9 11  1  0  0  0  0
  9 27  1  0  0  0  0
  7  8  1  0  0  0  0
  7  9  1  0  0  0  0
 31 32  1  0  0  0  0
 31 33  1  0  0  0  0
 31 34  1  0  0  0  0
 29 30  1  0  0  0  0
 29 31  1  0  0  0  0
M  CHG  1  23   1
M  END
$$$$
default_name
  -OEChem-02102213163D

 34 33  0     1  0  0  0  0  0999 V2000
   -3.8899   -3.6747    1.6490 H   0  0  0  0  0  0  0  0  0  0  0  0
   -3.9109   -2.6717    1.2250 C   0  0  0  0  0  0  0  0  0  0  0  0
   -4.6009   -2.0517    1.7950 H   0  0  0  0  0  0  0  0  0  0  0  0
   -4.2309   -2.7237    0.1860 H   0  0  0  0  0  0  0  0  0  0  0  0
   -2.5229   -2.0787    1.2980 C   0  0  0  0  0  0  0  0  0  0  0  0
   -1.5999   -2.7227    1.7810 O   0  0  0  0  0  0  0  0  0  0  0  0
   -2.3659   -0.8447    0.8120 N   0  0  0  0  0  0  0  0  0  0  0  0
   -3.1749   -0.3807    0.4220 H   0  0  0  0  0  0  0  0  0  0  0  0
   -1.0919   -0.1077    0.8170 C   0  0  1  0  0  0  0  0  0  0  0  0
   -0.4136   -0.6011    1.5155 H   0  0  0  0  0  0  0  0  0  0  0  0
   -0.4834   -0.1723   -0.5965 C   0  0  0  0  0  0  0  0  0  0  0  0
   -0.5682   -1.1958   -0.9650 H   0  0  0  0  0  0  0  0  0  0  0  0
   -1.0540    0.4775   -1.2629 H   0  0  0  0  0  0  0  0  0  0  0  0
    0.9975    0.2349   -0.6385 C   0  0  0  0  0  0  0  0  0  0  0  0
    1.2665    0.7387    0.2909 H   0  0  0  0  0  0  0  0  0  0  0  0
    1.6132   -0.6597   -0.7502 H   0  0  0  0  0  0  0  0  0  0  0  0
    1.2582    1.1818   -1.8181 C   0  0  0  0  0  0  0  0  0  0  0  0
    0.9738    0.6798   -2.7460 H   0  0  0  0  0  0  0  0  0  0  0  0
    0.6472    2.0784   -1.6968 H   0  0  0  0  0  0  0  0  0  0  0  0
    2.7411    1.5695   -1.8761 C   0  0  0  0  0  0  0  0  0  0  0  0
    3.0077    2.0632   -0.9360 H   0  0  0  0  0  0  0  0  0  0  0  0
    3.3367    0.6550   -1.9551 H   0  0  0  0  0  0  0  0  0  0  0  0
    3.0261    2.4673   -3.0238 N   0  3  0  0  0  0  0  0  0  0  0  0
    2.4855    3.3201   -2.9508 H   0  0  0  0  0  0  0  0  0  0  0  0
    4.0078    2.7133   -3.0481 H   0  0  0  0  0  0  0  0  0  0  0  0
    2.7891    2.0115   -3.8973 H   0  0  0  0  0  0  0  0  0  0  0  0
   -1.3103    1.3348    1.2791 C   0  0  0  0  0  0  0  0  0  0  0  0
   -2.2333    1.9891    0.8084 O   0  0  0  0  0  0  0  0  0  0  0  0
   -0.4429    1.8293    2.1683 N   0  0  0  0  0  0  0  0  0  0  0  0
    0.2668    1.2118    2.5263 H   0  0  0  0  0  0  0  0  0  0  0  0
   -0.5118    3.1863    2.7135 C   0  0  0  0  0  0  0  0  0  0  0  0
   -1.4470    3.3159    3.2625 H   0  0  0  0  0  0  0  0  0  0  0  0
    0.3243    3.3682    3.3896 H   0  0  0  0  0  0  0  0  0  0  0  0
   -0.4850    3.9172    1.9023 H   0  0  0  0  0  0  0  0  0  0  0  0
  5  6  2  0  0  0  0
  5  7  1  0  0  0  0
  2  3  1  0  0  0  0
  2  4  1  0  0  0  0
  2  5  1  0  0  0  0
  1  2  1  0  0  0  0
 27 28  2  0  0  0  0
 27 29  1  0  0  0  0
 23 24  1  0  0  0  0
 23 25  1  0  0  0  0
 23 26  1  0  0  0  0
 20 21  1  0  0  0  0
 20 22  1  0  0  0  0
 20 23  1  0  0  0  0
 17 18  1  0  0  0  0
 17 19  1  0  0  0  0
 17 20  1  0  0  0  0
 14 15  1  0  0  0  0
 14 16  1  0  0  0  0
 14 17  1  0  0  0  0
 11 12  1  0  0  0  0
 11 13  1  0  0  0  0
 11 14  1  0  0  0  0
  9 10  1  0  0  0  0
  9 11  1  0  0  0  0
  9 27  1  0  0  0  0
  7  8  1  0  0  0  0
  7  9  1  0  0  0  0
 31 32  1  0  0  0  0
 31 33  1  0  0  0  0
 31 34  1  0  0  0  0
 29 30  1  0  0  0  0
 29 31  1  0  0  0  0
M  CHG  1  23   1
M  END
$$$$
default_name
  -OEChem-02102213163D

 34 33  0     1  0  0  0  0  0999 V2000
   -3.8899   -3.6747    1.6490 H   0  0  0  0  0  0  0  0  0  0  0  0
   -3.9109   -2.6717    1.2250 C   0  0  0  0  0  0  0  0  0  0  0  0
   -4.6009   -2.0517    1.7950 H   0  0  0  0  0  0  0  0  0  0  0  0
   -4.2309   -2.7237    0.1860 H   0  0  0  0  0  0  0  0  0  0  0  0
   -2.5229   -2.0787    1.2980 C   0  0  0  0  0  0  0  0  0  0  0  0
   -1.5999   -2.7227    1.7810 O   0  0  0  0  0  0  0  0  0  0  0  0
   -2.3659   -0.8447    0.8120 N   0  0  0  0  0  0  0  0  0  0  0  0
   -3.1749   -0.3807    0.4220 H   0  0  0  0  0  0  0  0  0  0  0  0
   -1.0919   -0.1077    0.8170 C   0  0  1  0  0  0  0  0  0  0  0  0
   -0.4136   -0.6011    1.5155 H   0  0  0  0  0  0  0  0  0  0  0  0
   -0.4834   -0.1723   -0.5965 C   0  0  0  0  0  0  0  0  0  0  0  0
   -0.5682   -1.1958   -0.9650 H   0  0  0  0  0  0  0  0  0  0  0  0
   -1.0540    0.4775   -1.2629 H   0  0  0  0  0  0  0  0  0  0  0  0
    0.9975    0.2349   -0.6385 C   0  0  0  0  0  0  0  0  0  0  0  0
    1.3367    0.4911    0.3661 H   0  0  0  0  0  0  0  0  0  0  0  0
    1.5900   -0.6024   -1.0122 H   0  0  0  0  0  0  0  0  0  0  0  0
    1.1927    1.4467   -1.5601 C   0  0  0  0  0  0  0  0  0  0  0  0
    0.8382    1.1919   -2.5618 H   0  0  0  0  0  0  0  0  0  0  0  0
    0.6055    2.2837   -1.1770 H   0  0  0  0  0  0  0  0  0  0  0  0
    2.6741    1.8391   -1.6226 C   0  0  0  0  0  0  0  0  0  0  0  0
    3.0116    2.0828   -0.6099 H   0  0  0  0  0  0  0  0  0  0  0  0
    3.2485    0.9743   -1.9682 H   0  0  0  0  0  0  0  0  0  0  0  0
    2.8949    2.9955   -2.5272 N   0  3  0  0  0  0  0  0  0  0  0  0
    2.3741    3.8022   -2.2066 H   0  0  0  0  0  0  0  0  0  0  0  0
    3.8765    3.2414   -2.5576 H   0  0  0  0  0  0  0  0  0  0  0  0
    2.5922    2.7719   -3.4681 H   0  0  0  0  0  0  0  0  0  0  0  0
   -1.3103    1.3348    1.2791 C   0  0  0  0  0  0  0  0  0  0  0  0
   -2.2333    1.9891    0.8084 O   0  0  0  0  0  0  0  0  0  0  0  0
   -0.4429    1.8293    2.1683 N   0  0  0  0  0  0  0  0  0  0  0  0
    0.2668    1.2118    2.5263 H   0  0  0  0  0  0  0  0  0  0  0  0
   -0.5118    3.1863    2.7135 C   0  0  0  0  0  0  0  0  0  0  0  0
   -1.4470    3.3159    3.2625 H   0  0  0  0  0  0  0  0  0  0  0  0
    0.3243    3.3682    3.3896 H   0  0  0  0  0  0  0  0  0  0  0  0
   -0.4850    3.9172    1.9023 H   0  0  0  0  0  0  0  0  0  0  0  0
  5  6  2  0  0  0  0
  5  7  1  0  0  0  0
  2  3  1  0  0  0  0
  2  4  1  0  0  0  0
  2  5  1  0  0  0  0
  1  2  1  0  0  0  0
 27 28  2  0  0  0  0
 27 29  1  0  0  0  0
 23 24  1  0  0  0  0
 23 25  1  0  0  0  0
 23 26  1  0  0  0  0
 20 21  1  0  0  0  0
 20 22  1  0  0  0  0
 20 23  1  0  0  0  0
 17 18  1  0  0  0  0
 17 19  1  0  0  0  0
 17 20  1  0  0  0  0
 14 15  1  0  0  0  0
 14 16  1  0  0  0  0
 14 17  1  0  0  0  0
 11 12  1  0  0  0  0
 11 13  1  0  0  0  0
 11 14  1  0  0  0  0
  9 10  1  0  0  0  0
  9 11  1  0  0  0  0
  9 27  1  0  0  0  0
  7  8  1  0  0  0  0
  7  9  1  0  0  0  0
 31 32  1  0  0  0  0
 31 33  1  0  0  0  0
 31 34  1  0  0  0  0
 29 30  1  0  0  0  0
 29 31  1  0  0  0  0
M  CHG  1  23   1
M  END
$$$$
default_name
  -OEChem-02102213163D

 34 33  0     1  0  0  0  0  0999 V2000
   -3.8899   -3.6747    1.6490 H   0  0  0  0  0  0  0  0  0  0  0  0
   -3.9109   -2.6717    1.2250 C   0  0  0  0  0  0  0  0  0  0  0  0
   -4.6009   -2.0517    1.7950 H   0  0  0  0  0  0  0  0  0  0  0  0
   -4.2309   -2.7237    0.1860 H   0  0  0  0  0  0  0  0  0  0  0  0
   -2.5229   -2.0787    1.2980 C   0  0  0  0  0  0  0  0  0  0  0  0
   -1.5999   -2.7227    1.7810 O   0  0  0  0  0  0  0  0  0  0  0  0
   -2.3659   -0.8447    0.8120 N   0  0  0  0  0  0  0  0  0  0  0  0
   -3.1749   -0.3807    0.4220 H   0  0  0  0  0  0  0  0  0  0  0  0
   -1.0919   -0.1077    0.8170 C   0  0  1  0  0  0  0  0  0  0  0  0
   -0.4136   -0.6011    1.5155 H   0  0  0  0  0  0  0  0  0  0  0  0
   -0.4834   -0.1723   -0.5965 C   0  0  0  0  0  0  0  0  0  0  0  0
   -0.5682   -1.1958   -0.9650 H   0  0  0  0  0  0  0  0  0  0  0  0
   -1.0540    0.4775   -1.2629 H   0  0  0  0  0  0  0  0  0  0  0  0
    0.9975    0.2349   -0.6385 C   0  0  0  0  0  0  0  0  0  0  0  0
    1.4079    0.2327    0.3721 H   0  0  0  0  0  0  0  0  0  0  0  0
    1.5501   -0.4816   -1.2493 H   0  0  0  0  0  0  0  0  0  0  0  0
    1.1489    1.6388   -1.2403 C   0  0  0  0  0  0  0  0  0  0  0  0
    0.7234    1.6416   -2.2467 H   0  0  0  0  0  0  0  0  0  0  0  0
    0.6023    2.3526   -0.6208 H   0  0  0  0  0  0  0  0  0  0  0  0
    2.6288    2.0367   -1.3058 C   0  0  0  0  0  0  0  0  0  0  0  0
    3.0378    2.0204   -0.2903 H   0  0  0  0  0  0  0  0  0  0  0  0
    3.1647    1.2865   -1.8951 H   0  0  0  0  0  0  0  0  0  0  0  0
    2.8060    3.3828   -1.9068 N   0  3  0  0  0  0  0  0  0  0  0  0
    2.3209    4.0830   -1.3599 H   0  0  0  0  0  0  0  0  0  0  0  0
    3.7871    3.6300   -1.9431 H   0  0  0  0  0  0  0  0  0  0  0  0
    2.4368    3.4007   -2.8504 H   0  0  0  0  0  0  0  0  0  0  0  0
   -1.3103    1.3348    1.2791 C   0  0  0  0  0  0  0  0  0  0  0  0
   -2.2333    1.9891    0.8084 O   0  0  0  0  0  0  0  0  0  0  0  0
   -0.4429    1.8293    2.1683 N   0  0  0  0  0  0  0  0  0  0  0  0
    0.2668    1.2118    2.5263 H   0  0  0  0  0  0  0  0  0  0  0  0
   -0.5118    3.1863    2.7135 C   0  0  0  0  0  0  0  0  0  0  0  0
   -1.4470    3.3159    3.2625 H   0  0  0  0  0  0  0  0  0  0  0  0
    0.3243    3.3682    3.3896 H   0  0  0  0  0  0  0  0  0  0  0  0
   -0.4850    3.9172    1.9023 H   0  0  0  0  0  0  0  0  0  0  0  0
  5  6  2  0  0  0  0
  5  7  1  0  0  0  0
  2  3  1  0  0  0  0
  2  4  1  0  0  0  0
  2  5  1  0  0  0  0
  1  2  1  0  0  0  0
 27 28  2  0  0  0  0
 27 29  1  0  0  0  0
 23 24  1  0  0  0  0
 23 25  1  0  0  0  0
 23 26  1  0  0  0  0
 20 21  1  0  0  0  0
 20 22  1  0  0  0  0
 20 23  1  0  0  0  0
 17 18  1  0  0  0  0
 17 19  1  0  0  0  0
 17 20  1  0  0  0  0
 14 15  1  0  0  0  0
 14 16  1  0  0  0  0
 14 17  1  0  0  0  0
 11 12  1  0  0  0  0
 11 13  1  0  0  0  0
 11 14  1  0  0  0  0
  9 10  1  0  0  0  0
  9 11  1  0  0  0  0
  9 27  1  0  0  0  0
  7  8  1  0  0  0  0
  7  9  1  0  0  0  0
 31 32  1  0  0  0  0
 31 33  1  0  0  0  0
 31 34  1  0  0  0  0
 29 30  1  0  0  0  0
 29 31  1  0  0  0  0
M  CHG  1  23   1
M  END
$$$$
default_name
  -OEChem-02102213163D

 34 33  0     1  0  0  0  0  0999 V2000
   -3.8899   -3.6747    1.6490 H   0  0  0  0  0  0  0  0  0  0  0  0
   -3.9109   -2.6717    1.2250 C   0  0  0  0  0  0  0  0  0  0  0  0
   -4.6009   -2.0517    1.7950 H   0  0  0  0  0  0  0  0  0  0  0  0
   -4.2309   -2.7237    0.1860 H   0  0  0  0  0  0  0  0  0  0  0  0
   -2.5229   -2.0787    1.2980 C   0  0  0  0  0  0  0  0  0  0  0  0
   -1.5999   -2.7227    1.7810 O   0  0  0  0  0  0  0  0  0  0  0  0
   -2.3659   -0.8447    0.8120 N   0  0  0  0  0  0  0  0  0  0  0  0
   -3.1749   -0.3807    0.4220 H   0  0  0  0  0  0  0  0  0  0  0  0
   -1.0919   -0.1077    0.8170 C   0  0  1  0  0  0  0  0  0  0  0  0
   -0.4136   -0.6011    1.5155 H   0  0  0  0  0  0  0  0  0  0  0  0
   -0.4834   -0.1723   -0.5965 C   0  0  0  0  0  0  0  0  0  0  0  0
   -0.5682   -1.1958   -0.9650 H   0  0  0  0  0  0  0  0  0  0  0  0
   -1.0540    0.4775   -1.2629 H   0  0  0  0  0  0  0  0  0  0  0  0
    0.9975    0.2349   -0.6385 C   0  0  0  0  0  0  0  0  0  0  0  0
    1.4753   -0.0190    0.3086 H   0  0  0  0  0  0  0  0  0  0  0  0
    1.4961   -0.3055   -1.4455 H   0  0  0  0  0  0  0  0  0  0  0  0
    1.1300    1.7449   -0.8805 C   0  0  0  0  0  0  0  0  0  0  0  0
    0.6374    1.9982   -1.8223 H   0  0  0  0  0  0  0  0  0  0  0  0
    0.6379    2.2805   -0.0662 H   0  0  0  0  0  0  0  0  0  0  0  0
    2.6081    2.1489   -0.9474 C   0  0  0  0  0  0  0  0  0  0  0  0
    3.0846    1.8802    0.0010 H   0  0  0  0  0  0  0  0  0  0  0  0
    3.0910    1.5705   -1.7408 H   0  0  0  0  0  0  0  0  0  0  0  0
    2.7655    3.6027   -1.2048 N   0  3  0  0  0  0  0  0  0  0  0  0
    2.3296    4.1433   -0.4683 H   0  0  0  0  0  0  0  0  0  0  0  0
    3.7456    3.8528   -1.2464 H   0  0  0  0  0  0  0  0  0  0  0  0
    2.3336    3.8550   -2.0861 H   0  0  0  0  0  0  0  0  0  0  0  0
   -1.3103    1.3348    1.2791 C   0  0  0  0  0  0  0  0  0  0  0  0
   -2.2333    1.9891    0.8084 O   0  0  0  0  0  0  0  0  0  0  0  0
   -0.4429    1.8293    2.1683 N   0  0  0  0  0  0  0  0  0  0  0  0
    0.2668    1.2118    2.5263 H   0  0  0  0  0  0  0  0  0  0  0  0
   -0.5118    3.1863    2.7135 C   0  0  0  0  0  0  0  0  0  0  0  0
   -1.4470    3.3159    3.2625 H   0  0  0  0  0  0  0  0  0  0  0  0
    0.3243    3.3682    3.3896 H   0  0  0  0  0  0  0  0  0  0  0  0
   -0.4850    3.9172    1.9023 H   0  0  0  0  0  0  0  0  0  0  0  0
  5  6  2  0  0  0  0
  5  7  1  0  0  0  0
  2  3  1  0  0  0  0
  2  4  1  0  0  0  0
  2  5  1  0  0  0  0
  1  2  1  0  0  0  0
 27 28  2  0  0  0  0
 27 29  1  0  0  0  0
 23 24  1  0  0  0  0
 23 25  1  0  0  0  0
 23 26  1  0  0  0  0
 20 21  1  0  0  0  0
 20 22  1  0  0  0  0
 20 23  1  0  0  0  0
 17 18  1  0  0  0  0
 17 19  1  0  0  0  0
 17 20  1  0  0  0  0
 14 15  1  0  0  0  0
 14 16  1  0  0  0  0
 14 17  1  0  0  0  0
 11 12  1  0  0  0  0
 11 13  1  0  0  0  0
 11 14  1  0  0  0  0
  9 10  1  0  0  0  0
  9 11  1  0  0  0  0
  9 27  1  0  0  0  0
  7  8  1  0  0  0  0
  7  9  1  0  0  0  0
 31 32  1  0  0  0  0
 31 33  1  0  0  0  0
 31 34  1  0  0  0  0
 29 30  1  0  0  0  0
 29 31  1  0  0  0  0
M  CHG  1  23   1
M  END
$$$$
default_name
  -OEChem-02102213163D

 34 33  0     1  0  0  0  0  0999 V2000
   -3.8899   -3.6747    1.6490 H   0  0  0  0  0  0  0  0  0  0  0  0
   -3.9109   -2.6717    1.2250 C   0  0  0  0  0  0  0  0  0  0  0  0
   -4.6009   -2.0517    1.7950 H   0  0  0  0  0  0  0  0  0  0  0  0
   -4.2309   -2.7237    0.1860 H   0  0  0  0  0  0  0  0  0  0  0  0
   -2.5229   -2.0787    1.2980 C   0  0  0  0  0  0  0  0  0  0  0  0
   -1.5999   -2.7227    1.7810 O   0  0  0  0  0  0  0  0  0  0  0  0
   -2.3659   -0.8447    0.8120 N   0  0  0  0  0  0  0  0  0  0  0  0
   -3.1749   -0.3807    0.4220 H   0  0  0  0  0  0  0  0  0  0  0  0
   -1.0919   -0.1077    0.8170 C   0  0  1  0  0  0  0  0  0  0  0  0
   -0.4136   -0.6011    1.5155 H   0  0  0  0  0  0  0  0  0  0  0  0
   -0.4834   -0.1723   -0.5965 C   0  0  0  0  0  0  0  0  0  0  0  0
   -0.5682   -1.1958   -0.9650 H   0  0  0  0  0  0  0  0  0  0  0  0
   -1.0540    0.4775   -1.2629 H   0  0  0  0  0  0  0  0  0  0  0  0
    0.9975    0.2349   -0.6385 C   0  0  0  0  0  0  0  0  0  0  0  0
    1.5343   -0.2467    0.1799 H   0  0  0  0  0  0  0  0  0  0  0  0
    1.4317   -0.0861   -1.5873 H   0  0  0  0  0  0  0  0  0  0  0  0
    1.1371    1.7577   -0.5051 C   0  0  0  0  0  0  0  0  0  0  0  0
    0.5860    2.2373   -1.3176 H   0  0  0  0  0  0  0  0  0  0  0  0
    0.7098    2.0722    0.4491 H   0  0  0  0  0  0  0  0  0  0  0  0
    2.6135    2.1680   -0.5719 C   0  0  0  0  0  0  0  0  0  0  0  0
    3.1488    1.6718    0.2442 H   0  0  0  0  0  0  0  0  0  0  0  0
    3.0324    1.8069   -1.5160 H   0  0  0  0  0  0  0  0  0  0  0  0
    2.7760    3.6403   -0.4691 N   0  3  0  0  0  0  0  0  0  0  0  0
    2.3996    3.9792    0.4074 H   0  0  0  0  0  0  0  0  0  0  0  0
    3.7549    3.8944   -0.5151 H   0  0  0  0  0  0  0  0  0  0  0  0
    2.2895    4.1040   -1.2275 H   0  0  0  0  0  0  0  0  0  0  0  0
   -1.3103    1.3348    1.2791 C   0  0  0  0  0  0  0  0  0  0  0  0
   -2.2333    1.9891    0.8084 O   0  0  0  0  0  0  0  0  0  0  0  0
   -0.4429    1.8293    2.1683 N   0  0  0  0  0  0  0  0  0  0  0  0
    0.2668    1.2118    2.5263 H   0  0  0  0  0  0  0  0  0  0  0  0
   -0.5118    3.1863    2.7135 C   0  0  0  0  0  0  0  0  0  0  0  0
   -1.4470    3.3159    3.2625 H   0  0  0  0  0  0  0  0  0  0  0  0
    0.3243    3.3682    3.3896 H   0  0  0  0  0  0  0  0  0  0  0  0
   -0.4850    3.9172    1.9023 H   0  0  0  0  0  0  0  0  0  0  0  0
  5  6  2  0  0  0  0
  5  7  1  0  0  0  0
  2  3  1  0  0  0  0
  2  4  1  0  0  0  0
  2  5  1  0  0  0  0
  1  2  1  0  0  0  0
 27 28  2  0  0  0  0
 27 29  1  0  0  0  0
 23 24  1  0  0  0  0
 23 25  1  0  0  0  0
 23 26  1  0  0  0  0
 20 21  1  0  0  0  0
 20 22  1  0  0  0  0
 20 23  1  0  0  0  0
 17 18  1  0  0  0  0
 17 19  1  0  0  0  0
 17 20  1  0  0  0  0
 14 15  1  0  0  0  0
 14 16  1  0  0  0  0
 14 17  1  0  0  0  0
 11 12  1  0  0  0  0
 11 13  1  0  0  0  0
 11 14  1  0  0  0  0
  9 10  1  0  0  0  0
  9 11  1  0  0  0  0
  9 27  1  0  0  0  0
  7  8  1  0  0  0  0
  7  9  1  0  0  0  0
 31 32  1  0  0  0  0
 31 33  1  0  0  0  0
 31 34  1  0  0  0  0
 29 30  1  0  0  0  0
 29 31  1  0  0  0  0
M  CHG  1  23   1
M  END
$$$$
default_name
  -OEChem-02102213163D

 34 33  0     1  0  0  0  0  0999 V2000
   -3.8899   -3.6747    1.6490 H   0  0  0  0  0  0  0  0  0  0  0  0
   -3.9109   -2.6717    1.2250 C   0  0  0  0  0  0  0  0  0  0  0  0
   -4.6009   -2.0517    1.7950 H   0  0  0  0  0  0  0  0  0  0  0  0
   -4.2309   -2.7237    0.1860 H   0  0  0  0  0  0  0  0  0  0  0  0
   -2.5229   -2.0787    1.2980 C   0  0  0  0  0  0  0  0  0  0  0  0
   -1.5999   -2.7227    1.7810 O   0  0  0  0  0  0  0  0  0  0  0  0
   -2.3659   -0.8447    0.8120 N   0  0  0  0  0  0  0  0  0  0  0  0
   -3.1749   -0.3807    0.4220 H   0  0  0  0  0  0  0  0  0  0  0  0
   -1.0919   -0.1077    0.8170 C   0  0  1  0  0  0  0  0  0  0  0  0
   -0.4136   -0.6011    1.5155 H   0  0  0  0  0  0  0  0  0  0  0  0
   -0.4834   -0.1723   -0.5965 C   0  0  0  0  0  0  0  0  0  0  0  0
   -0.5682   -1.1958   -0.9650 H   0  0  0  0  0  0  0  0  0  0  0  0
   -1.0540    0.4775   -1.2629 H   0  0  0  0  0  0  0  0  0  0  0  0
    0.9975    0.2349   -0.6385 C   0  0  0  0  0  0  0  0  0  0  0  0
    1.5808   -0.4349   -0.0053 H   0  0  0  0  0  0  0  0  0  0  0  0
    1.3614    0.1617   -1.6652 H   0  0  0  0  0  0  0  0  0  0  0  0
    1.1698    1.6763   -0.1399 C   0  0  0  0  0  0  0  0  0  0  0  0
    0.5726    2.3428   -0.7668 H   0  0  0  0  0  0  0  0  0  0  0  0
    0.8131    1.7419    0.8899 H   0  0  0  0  0  0  0  0  0  0  0  0
    2.6446    2.0928   -0.2047 C   0  0  0  0  0  0  0  0  0  0  0  0
    3.2261    1.4093    0.4227 H   0  0  0  0  0  0  0  0  0  0  0  0
    2.9928    1.9795   -1.2358 H   0  0  0  0  0  0  0  0  0  0  0  0
    2.8369    3.4930    0.2502 N   0  3  0  0  0  0  0  0  0  0  0  0
    2.5261    3.6017    1.2074 H   0  0  0  0  0  0  0  0  0  0  0  0
    3.8143    3.7521    0.2011 H   0  0  0  0  0  0  0  0  0  0  0  0
    2.3075    4.1306   -0.3330 H   0  0  0  0  0  0  0  0  0  0  0  0
   -1.3103    1.3348    1.2791 C   0  0  0  0  0  0  0  0  0  0  0  0
   -2.2333    1.9891    0.8084 O   0  0  0  0  0  0  0  0  0  0  0  0
   -0.4429    1.8293    2.1683 N   0  0  0  0  0  0  0  0  0  0  0  0
    0.2668    1.2118    2.5263 H   0  0  0  0  0  0  0  0  0  0  0  0
   -0.5118    3.1863    2.7135 C   0  0  0  0  0  0  0  0  0  0  0  0
   -1.4470    3.3159    3.2625 H   0  0  0  0  0  0  0  0  0  0  0  0
    0.3243    3.3682    3.3896 H   0  0  0  0  0  0  0  0  0  0  0  0
   -0.4850    3.9172    1.9023 H   0  0  0  0  0  0  0  0  0  0  0  0
  5  6  2  0  0  0  0
  5  7  1  0  0  0  0
  2  3  1  0  0  0  0
  2  4  1  0  0  0  0
  2  5  1  0  0  0  0
  1  2  1  0  0  0  0
 27 28  2  0  0  0  0
 27 29  1  0  0  0  0
 23 24  1  0  0  0  0
 23 25  1  0  0  0  0
 23 26  1  0  0  0  0
 20 21  1  0  0  0  0
 20 22  1  0  0  0  0
 20 23  1  0  0  0  0
 17 18  1  0  0  0  0
 17 19  1  0  0  0  0
 17 20  1  0  0  0  0
 14 15  1  0  0  0  0
 14 16  1  0  0  0  0
 14 17  1  0  0  0  0
 11 12  1  0  0  0  0
 11 13  1  0  0  0  0
 11 14  1  0  0  0  0
  9 10  1  0  0  0  0
  9 11  1  0  0  0  0
  9 27  1  0  0  0  0
  7  8  1  0  0  0  0
  7  9  1  0  0  0  0
 31 32  1  0  0  0  0
 31 33  1  0  0  0  0
 31 34  1  0  0  0  0
 29 30  1  0  0  0  0
 29 31  1  0  0  0  0
M  CHG  1  23   1
M  END
$$$$
default_name
  -OEChem-02102213163D

 34 33  0     1  0  0  0  0  0999 V2000
   -3.8899   -3.6747    1.6490 H   0  0  0  0  0  0  0  0  0  0  0  0
   -3.9109   -2.6717    1.2250 C   0  0  0  0  0  0  0  0  0  0  0  0
   -4.6009   -2.0517    1.7950 H   0  0  0  0  0  0  0  0  0  0  0  0
   -4.2309   -2.7237    0.1860 H   0  0  0  0  0  0  0  0  0  0  0  0
   -2.5229   -2.0787    1.2980 C   0  0  0  0  0  0  0  0  0  0  0  0
   -1.5999   -2.7227    1.7810 O   0  0  0  0  0  0  0  0  0  0  0  0
   -2.3659   -0.8447    0.8120 N   0  0  0  0  0  0  0  0  0  0  0  0
   -3.1749   -0.3807    0.4220 H   0  0  0  0  0  0  0  0  0  0  0  0
   -1.0919   -0.1077    0.8170 C   0  0  1  0  0  0  0  0  0  0  0  0
   -0.4136   -0.6011    1.5155 H   0  0  0  0  0  0  0  0  0  0  0  0
   -0.4834   -0.1723   -0.5965 C   0  0  0  0  0  0  0  0  0  0  0  0
   -0.5682   -1.1958   -0.9650 H   0  0  0  0  0  0  0  0  0  0  0  0
   -1.0540    0.4775   -1.2629 H   0  0  0  0  0  0  0  0  0  0  0  0
    0.9975    0.2349   -0.6385 C   0  0  0  0  0  0  0  0  0  0  0  0
    1.6117   -0.5709   -0.2343 H   0  0  0  0  0  0  0  0  0  0  0  0
    1.2898    0.4210   -1.6738 H   0  0  0  0  0  0  0  0  0  0  0  0
    1.2259    1.5064    0.1904 C   0  0  0  0  0  0  0  0  0  0  0  0
    0.5982    2.3074   -0.2076 H   0  0  0  0  0  0  0  0  0  0  0  0
    0.9409    1.3122    1.2263 H   0  0  0  0  0  0  0  0  0  0  0  0
    2.6993    1.9283    0.1291 C   0  0  0  0  0  0  0  0  0  0  0  0
    3.3110    1.1108    0.5243 H   0  0  0  0  0  0  0  0  0  0  0  0
    2.9751    2.0766   -0.9193 H   0  0  0  0  0  0  0  0  0  0  0  0
    2.9441    3.1709    0.9040 N   0  3  0  0  0  0  0  0  0  0  0  0
    2.7005    3.0366    1.8774 H   0  0  0  0  0  0  0  0  0  0  0  0
    3.9199    3.4357    0.8532 H   0  0  0  0  0  0  0  0  0  0  0  0
    2.3865    3.9330    0.5364 H   0  0  0  0  0  0  0  0  0  0  0  0
   -1.3103    1.3348    1.2791 C   0  0  0  0  0  0  0  0  0  0  0  0
   -2.2333    1.9891    0.8084 O   0  0  0  0  0  0  0  0  0  0  0  0
   -0.4429    1.8293    2.1683 N   0  0  0  0  0  0  0  0  0  0  0  0
    0.2668    1.2118    2.5263 H   0  0  0  0  0  0  0  0  0  0  0  0
   -0.5118    3.1863    2.7135 C   0  0  0  0  0  0  0  0  0  0  0  0
   -1.4470    3.3159    3.2625 H   0  0  0  0  0  0  0  0  0  0  0  0
    0.3243    3.3682    3.3896 H   0  0  0  0  0  0  0  0  0  0  0  0
   -0.4850    3.9172    1.9023 H   0  0  0  0  0  0  0  0  0  0  0  0
  5  6  2  0  0  0  0
  5  7  1  0  0  0  0
  2  3  1  0  0  0  0
  2  4  1  0  0  0  0
  2  5  1  0  0  0  0
  1  2  1  0  0  0  0
 27 28  2  0  0  0  0
 27 29  1  0  0  0  0
 23 24  1  0  0  0  0
 23 25  1  0  0  0  0
 23 26  1  0  0  0  0
 20 21  1  0  0  0  0
 20 22  1  0  0  0  0
 20 23  1  0  0  0  0
 17 18  1  0  0  0  0
 17 19  1  0  0  0  0
 17 20  1  0  0  0  0
 14 15  1  0  0  0  0
 14 16  1  0  0  0  0
 14 17  1  0  0  0  0
 11 12  1  0  0  0  0
 11 13  1  0  0  0  0
 11 14  1  0  0  0  0
  9 10  1  0  0  0  0
  9 11  1  0  0  0  0
  9 27  1  0  0  0  0
  7  8  1  0  0  0  0
  7  9  1  0  0  0  0
 31 32  1  0  0  0  0
 31 33  1  0  0  0  0
 31 34  1  0  0  0  0
 29 30  1  0  0  0  0
 29 31  1  0  0  0  0
M  CHG  1  23   1
M  END
$$$$
default_name
  -OEChem-02102213163D

 34 33  0     1  0  0  0  0  0999 V2000
   -3.8899   -3.6747    1.6490 H   0  0  0  0  0  0  0  0  0  0  0  0
   -3.9109   -2.6717    1.2250 C   0  0  0  0  0  0  0  0  0  0  0  0
   -4.6009   -2.0517    1.7950 H   0  0  0  0  0  0  0  0  0  0  0  0
   -4.2309   -2.7237    0.1860 H   0  0  0  0  0  0  0  0  0  0  0  0
   -2.5229   -2.0787    1.2980 C   0  0  0  0  0  0  0  0  0  0  0  0
   -1.5999   -2.7227    1.7810 O   0  0  0  0  0  0  0  0  0  0  0  0
   -2.3659   -0.8447    0.8120 N   0  0  0  0  0  0  0  0  0  0  0  0
   -3.1749   -0.3807    0.4220 H   0  0  0  0  0  0  0  0  0  0  0  0
   -1.0919   -0.1077    0.8170 C   0  0  1  0  0  0  0  0  0  0  0  0
   -0.4136   -0.6011    1.5155 H   0  0  0  0  0  0  0  0  0  0  0  0
   -0.4834   -0.1723   -0.5965 C   0  0  0  0  0  0  0  0  0  0  0  0
   -0.5682   -1.1958   -0.9650 H   0  0  0  0  0  0  0  0  0  0  0  0
   -1.0540    0.4775   -1.2629 H   0  0  0  0  0  0  0  0  0  0  0  0
    0.9975    0.2349   -0.6385 C   0  0  0  0  0  0  0  0  0  0  0  0
    1.6248   -0.6453   -0.4916 H   0  0  0  0  0  0  0  0  0  0  0  0
    1.2219    0.6741   -1.6125 H   0  0  0  0  0  0  0  0  0  0  0  0
    1.3016    1.2596    0.4632 C   0  0  0  0  0  0  0  0  0  0  0  0
    0.6611    2.1335    0.3220 H   0  0  0  0  0  0  0  0  0  0  0  0
    1.0843    0.8124    1.4352 H   0  0  0  0  0  0  0  0  0  0  0  0
    2.7739    1.6857    0.4067 C   0  0  0  0  0  0  0  0  0  0  0  0
    3.3980    0.7964    0.5422 H   0  0  0  0  0  0  0  0  0  0  0  0
    2.9804    2.0916   -0.5882 H   0  0  0  0  0  0  0  0  0  0  0  0
    3.0901    2.6958    1.4479 N   0  3  0  0  0  0  0  0  0  0  0  0
    2.9109    2.3223    2.3716 H   0  0  0  0  0  0  0  0  0  0  0  0
    4.0643    2.9665    1.3970 H   0  0  0  0  0  0  0  0  0  0  0  0
    2.5211    3.5248    1.3215 H   0  0  0  0  0  0  0  0  0  0  0  0
   -1.3103    1.3348    1.2791 C   0  0  0  0  0  0  0  0  0  0  0  0
   -2.2333    1.9891    0.8084 O   0  0  0  0  0  0  0  0  0  0  0  0
   -0.4429    1.8293    2.1683 N   0  0  0  0  0  0  0  0  0  0  0  0
    0.2668    1.2118    2.5263 H   0  0  0  0  0  0  0  0  0  0  0  0
   -0.5118    3.1863    2.7135 C   0  0  0  0  0  0  0  0  0  0  0  0
   -1.4470    3.3159    3.2625 H   0  0  0  0  0  0  0  0  0  0  0  0
    0.3243    3.3682    3.3896 H   0  0  0  0  0  0  0  0  0  0  0  0
   -0.4850    3.9172    1.9023 H   0  0  0  0  0  0  0  0  0  0  0  0
  5  6  2  0  0  0  0
  5  7  1  0  0  0  0
  2  3  1  0  0  0  0
  2  4  1  0  0  0  0
  2  5  1  0  0  0  0
  1  2  1  0  0  0  0
 27 28  2  0  0  0  0
 27 29  1  0  0  0  0
 23 24  1  0  0  0  0
 23 25  1  0  0  0  0
 23 26  1  0  0  0  0
 20 21  1  0  0  0  0
 20 22  1  0  0  0  0
 20 23  1  0  0  0  0
 17 18  1  0  0  0  0
 17 19  1  0  0  0  0
 17 20  1  0  0  0  0
 14 15  1  0  0  0  0
 14 16  1  0  0  0  0
 14 17  1  0  0  0  0
 11 12  1  0  0  0  0
 11 13  1  0  0  0  0
 11 14  1  0  0  0  0
  9 10  1  0  0  0  0
  9 11  1  0  0  0  0
  9 27  1  0  0  0  0
  7  8  1  0  0  0  0
  7  9  1  0  0  0  0
 31 32  1  0  0  0  0
 31 33  1  0  0  0  0
 31 34  1  0  0  0  0
 29 30  1  0  0  0  0
 29 31  1  0  0  0  0
M  CHG  1  23   1
M  END
$$$$
default_name
  -OEChem-02102213163D

 34 33  0     1  0  0  0  0  0999 V2000
   -3.8899   -3.6747    1.6490 H   0  0  0  0  0  0  0  0  0  0  0  0
   -3.9109   -2.6717    1.2250 C   0  0  0  0  0  0  0  0  0  0  0  0
   -4.6009   -2.0517    1.7950 H   0  0  0  0  0  0  0  0  0  0  0  0
   -4.2309   -2.7237    0.1860 H   0  0  0  0  0  0  0  0  0  0  0  0
   -2.5229   -2.0787    1.2980 C   0  0  0  0  0  0  0  0  0  0  0  0
   -1.5999   -2.7227    1.7810 O   0  0  0  0  0  0  0  0  0  0  0  0
   -2.3659   -0.8447    0.8120 N   0  0  0  0  0  0  0  0  0  0  0  0
   -3.1749   -0.3807    0.4220 H   0  0  0  0  0  0  0  0  0  0  0  0
   -1.0919   -0.1077    0.8170 C   0  0  1  0  0  0  0  0  0  0  0  0
   -0.4136   -0.6011    1.5155 H   0  0  0  0  0  0  0  0  0  0  0  0
   -0.4834   -0.1723   -0.5965 C   0  0  0  0  0  0  0  0  0  0  0  0
   -0.5682   -1.1958   -0.9650 H   0  0  0  0  0  0  0  0  0  0  0  0
   -1.0540    0.4775   -1.2629 H   0  0  0  0  0  0  0  0  0  0  0  0
    0.9975    0.2349   -0.6385 C   0  0  0  0  0  0  0  0  0  0  0  0
    1.6194   -0.6530   -0.7595 H   0  0  0  0  0  0  0  0  0  0  0  0
    1.1624    0.9038   -1.4854 H   0  0  0  0  0  0  0  0  0  0  0  0
    1.3916    0.9525    0.6599 C   0  0  0  0  0  0  0  0  0  0  0  0
    0.7569    1.8329    0.7858 H   0  0  0  0  0  0  0  0  0  0  0  0
    1.2336    0.2764    1.5025 H   0  0  0  0  0  0  0  0  0  0  0  0
    2.8632    1.3816    0.6092 C   0  0  0  0  0  0  0  0  0  0  0  0
    3.4810    0.4877    0.4751 H   0  0  0  0  0  0  0  0  0  0  0  0
    3.0083    2.0234   -0.2651 H   0  0  0  0  0  0  0  0  0  0  0  0
    3.2652    2.1003    1.8447 N   0  3  0  0  0  0  0  0  0  0  0  0
    3.1431    1.5077    2.6563 H   0  0  0  0  0  0  0  0  0  0  0  0
    4.2378    2.3767    1.7953 H   0  0  0  0  0  0  0  0  0  0  0  0
    2.7020    2.9336    1.9687 H   0  0  0  0  0  0  0  0  0  0  0  0
   -1.3103    1.3348    1.2791 C   0  0  0  0  0  0  0  0  0  0  0  0
   -2.2333    1.9891    0.8084 O   0  0  0  0  0  0  0  0  0  0  0  0
   -0.4429    1.8293    2.1683 N   0  0  0  0  0  0  0  0  0  0  0  0
    0.2668    1.2118    2.5263 H   0  0  0  0  0  0  0  0  0  0  0  0
   -0.5118    3.1863    2.7135 C   0  0  0  0  0  0  0  0  0  0  0  0
   -1.4470    3.3159    3.2625 H   0  0  0  0  0  0  0  0  0  0  0  0
    0.3243    3.3682    3.3896 H   0  0  0  0  0  0  0  0  0  0  0  0
   -0.4850    3.9172    1.9023 H   0  0  0  0  0  0  0  0  0  0  0  0
  5  6  2  0  0  0  0
  5  7  1  0  0  0  0
  2  3  1  0  0  0  0
  2  4  1  0  0  0  0
  2  5  1  0  0  0  0
  1  2  1  0  0  0  0
 27 28  2  0  0  0  0
 27 29  1  0  0  0  0
 23 24  1  0  0  0  0
 23 25  1  0  0  0  0
 23 26  1  0  0  0  0
 20 21  1  0  0  0  0
 20 22  1  0  0  0  0
 20 23  1  0  0  0  0
 17 18  1  0  0  0  0
 17 19  1  0  0  0  0
 17 20  1  0  0  0  0
 14 15  1  0  0  0  0
 14 16  1  0  0  0  0
 14 17  1  0  0  0  0
 11 12  1  0  0  0  0
 11 13  1  0  0  0  0
 11 14  1  0  0  0  0
  9 10  1  0  0  0  0
  9 11  1  0  0  0  0
  9 27  1  0  0  0  0
  7  8  1  0  0  0  0
  7  9  1  0  0  0  0
 31 32  1  0  0  0  0
 31 33  1  0  0  0  0
 31 34  1  0  0  0  0
 29 30  1  0  0  0  0
 29 31  1  0  0  0  0
M  CHG  1  23   1
M  END
$$$$
default_name
  -OEChem-02102213163D

 34 33  0     1  0  0  0  0  0999 V2000
   -3.8899   -3.6747    1.6490 H   0  0  0  0  0  0  0  0  0  0  0  0
   -3.9109   -2.6717    1.2250 C   0  0  0  0  0  0  0  0  0  0  0  0
   -4.6009   -2.0517    1.7950 H   0  0  0  0  0  0  0  0  0  0  0  0
   -4.2309   -2.7237    0.1860 H   0  0  0  0  0  0  0  0  0  0  0  0
   -2.5229   -2.0787    1.2980 C   0  0  0  0  0  0  0  0  0  0  0  0
   -1.5999   -2.7227    1.7810 O   0  0  0  0  0  0  0  0  0  0  0  0
   -2.3659   -0.8447    0.8120 N   0  0  0  0  0  0  0  0  0  0  0  0
   -3.1749   -0.3807    0.4220 H   0  0  0  0  0  0  0  0  0  0  0  0
   -1.0919   -0.1077    0.8170 C   0  0  1  0  0  0  0  0  0  0  0  0
   -0.4136   -0.6011    1.5155 H   0  0  0  0  0  0  0  0  0  0  0  0
   -0.4834   -0.1723   -0.5965 C   0  0  0  0  0  0  0  0  0  0  0  0
   -0.5682   -1.1958   -0.9650 H   0  0  0  0  0  0  0  0  0  0  0  0
   -1.0540    0.4775   -1.2629 H   0  0  0  0  0  0  0  0  0  0  0  0
    0.9975    0.2349   -0.6385 C   0  0  0  0  0  0  0  0  0  0  0  0
    1.5957   -0.5937   -1.0199 H   0  0  0  0  0  0  0  0  0  0  0  0
    1.1152    1.0943   -1.3014 H   0  0  0  0  0  0  0  0  0  0  0  0
    1.4899    0.6062    0.7671 C   0  0  0  0  0  0  0  0  0  0  0  0
    0.8791    1.4262    1.1523 H   0  0  0  0  0  0  0  0  0  0  0  0
    1.3786   -0.2592    1.4235 H   0  0  0  0  0  0  0  0  0  0  0  0
    2.9613    1.0368    0.7228 C   0  0  0  0  0  0  0  0  0  0  0  0
    3.5544    0.2056    0.3276 H   0  0  0  0  0  0  0  0  0  0  0  0
    3.0570    1.8768    0.0282 H   0  0  0  0  0  0  0  0  0  0  0  0
    3.4572    1.4248    2.0674 N   0  3  0  0  0  0  0  0  0  0  0  0
    3.3810    0.6481    2.7122 H   0  0  0  0  0  0  0  0  0  0  0  0
    4.4286    1.7063    2.0210 H   0  0  0  0  0  0  0  0  0  0  0  0
    2.9170    2.1998    2.4340 H   0  0  0  0  0  0  0  0  0  0  0  0
   -1.3103    1.3348    1.2791 C   0  0  0  0  0  0  0  0  0  0  0  0
   -2.2333    1.9891    0.8084 O   0  0  0  0  0  0  0  0  0  0  0  0
   -0.4429    1.8293    2.1683 N   0  0  0  0  0  0  0  0  0  0  0  0
    0.2668    1.2118    2.5263 H   0  0  0  0  0  0  0  0  0  0  0  0
   -0.5118    3.1863    2.7135 C   0  0  0  0  0  0  0  0  0  0  0  0
   -1.4470    3.3159    3.2625 H   0  0  0  0  0  0  0  0  0  0  0  0
    0.3243    3.3682    3.3896 H   0  0  0  0  0  0  0  0  0  0  0  0
   -0.4850    3.9172    1.9023 H   0  0  0  0  0  0  0  0  0  0  0  0
  5  6  2  0  0  0  0
  5  7  1  0  0  0  0
  2  3  1  0  0  0  0
  2  4  1  0  0  0  0
  2  5  1  0  0  0  0
  1  2  1  0  0  0  0
 27 28  2  0  0  0  0
 27 29  1  0  0  0  0
 23 24  1  0  0  0  0
 23 25  1  0  0  0  0
 23 26  1  0  0  0  0
 20 21  1  0  0  0  0
 20 22  1  0  0  0  0
 20 23  1  0  0  0  0
 17 18  1  0  0  0  0
 17 19  1  0  0  0  0
 17 20  1  0  0  0  0
 14 15  1  0  0  0  0
 14 16  1  0  0  0  0
 14 17  1  0  0  0  0
 11 12  1  0  0  0  0
 11 13  1  0  0  0  0
 11 14  1  0  0  0  0
  9 10  1  0  0  0  0
  9 11  1  0  0  0  0
  9 27  1  0  0  0  0
  7  8  1  0  0  0  0
  7  9  1  0  0  0  0
 31 32  1  0  0  0  0
 31 33  1  0  0  0  0
 31 34  1  0  0  0  0
 29 30  1  0  0  0  0
 29 31  1  0  0  0  0
M  CHG  1  23   1
M  END
$$$$
default_name
  -OEChem-02102213163D

 34 33  0     1  0  0  0  0  0999 V2000
   -3.8899   -3.6747    1.6490 H   0  0  0  0  0  0  0  0  0  0  0  0
   -3.9109   -2.6717    1.2250 C   0  0  0  0  0  0  0  0  0  0  0  0
   -4.6009   -2.0517    1.7950 H   0  0  0  0  0  0  0  0  0  0  0  0
   -4.2309   -2.7237    0.1860 H   0  0  0  0  0  0  0  0  0  0  0  0
   -2.5229   -2.0787    1.2980 C   0  0  0  0  0  0  0  0  0  0  0  0
   -1.5999   -2.7227    1.7810 O   0  0  0  0  0  0  0  0  0  0  0  0
   -2.3659   -0.8447    0.8120 N   0  0  0  0  0  0  0  0  0  0  0  0
   -3.1749   -0.3807    0.4220 H   0  0  0  0  0  0  0  0  0  0  0  0
   -1.0919   -0.1077    0.8170 C   0  0  1  0  0  0  0  0  0  0  0  0
   -0.4136   -0.6011    1.5155 H   0  0  0  0  0  0  0  0  0  0  0  0
   -0.4834   -0.1723   -0.5965 C   0  0  0  0  0  0  0  0  0  0  0  0
   -0.5682   -1.1958   -0.9650 H   0  0  0  0  0  0  0  0  0  0  0  0
   -1.0540    0.4775   -1.2629 H   0  0  0  0  0  0  0  0  0  0  0  0
    0.9975    0.2349   -0.6385 C   0  0  0  0  0  0  0  0  0  0  0  0
    1.5553   -0.4712   -1.2550 H   0  0  0  0  0  0  0  0  0  0  0  0
    1.0836    1.2328   -1.0728 H   0  0  0  0  0  0  0  0  0  0  0  0
    1.5897    0.2442    0.7776 C   0  0  0  0  0  0  0  0  0  0  0  0
    1.0195    0.9411    1.3964 H   0  0  0  0  0  0  0  0  0  0  0  0
    1.5095   -0.7578    1.2037 H   0  0  0  0  0  0  0  0  0  0  0  0
    3.0614    0.6746    0.7398 C   0  0  0  0  0  0  0  0  0  0  0  0
    3.6131   -0.0305    0.1097 H   0  0  0  0  0  0  0  0  0  0  0  0
    3.1230    1.6616    0.2715 H   0  0  0  0  0  0  0  0  0  0  0  0
    3.6533    0.7154    2.1009 N   0  3  0  0  0  0  0  0  0  0  0  0
    3.6086   -0.1978    2.5354 H   0  0  0  0  0  0  0  0  0  0  0  0
    4.6236    1.0012    2.0587 H   0  0  0  0  0  0  0  0  0  0  0  0
    3.1514    1.3734    2.6857 H   0  0  0  0  0  0  0  0  0  0  0  0
   -1.3103    1.3348    1.2791 C   0  0  0  0  0  0  0  0  0  0  0  0
   -2.2333    1.9891    0.8084 O   0  0  0  0  0  0  0  0  0  0  0  0
   -0.4429    1.8293    2.1683 N   0  0  0  0  0  0  0  0  0  0  0  0
    0.2668    1.2118    2.5263 H   0  0  0  0  0  0  0  0  0  0  0  0
   -0.5118    3.1863    2.7135 C   0  0  0  0  0  0  0  0  0  0  0  0
   -1.4470    3.3159    3.2625 H   0  0  0  0  0  0  0  0  0  0  0  0
    0.3243    3.3682    3.3896 H   0  0  0  0  0  0  0  0  0  0  0  0
   -0.4850    3.9172    1.9023 H   0  0  0  0  0  0  0  0  0  0  0  0
  5  6  2  0  0  0  0
  5  7  1  0  0  0  0
  2  3  1  0  0  0  0
  2  4  1  0  0  0  0
  2  5  1  0  0  0  0
  1  2  1  0  0  0  0
 27 28  2  0  0  0  0
 27 29  1  0  0  0  0
 23 24  1  0  0  0  0
 23 25  1  0  0  0  0
 23 26  1  0  0  0  0
 20 21  1  0  0  0  0
 20 22  1  0  0  0  0
 20 23  1  0  0  0  0
 17 18  1  0  0  0  0
 17 19  1  0  0  0  0
 17 20  1  0  0  0  0
 14 15  1  0  0  0  0
 14 16  1  0  0  0  0
 14 17  1  0  0  0  0
 11 12  1  0  0  0  0
 11 13  1  0  0  0  0
 11 14  1  0  0  0  0
  9 10  1  0  0  0  0
  9 11  1  0  0  0  0
  9 27  1  0  0  0  0
  7  8  1  0  0  0  0
  7  9  1  0  0  0  0
 31 32  1  0  0  0  0
 31 33  1  0  0  0  0
 31 34  1  0  0  0  0
 29 30  1  0  0  0  0
 29 31  1  0  0  0  0
M  CHG  1  23   1
M  END
$$$$
default_name
  -OEChem-02102213163D

 34 33  0     1  0  0  0  0  0999 V2000
   -3.8899   -3.6747    1.6490 H   0  0  0  0  0  0  0  0  0  0  0  0
   -3.9109   -2.6717    1.2250 C   0  0  0  0  0  0  0  0  0  0  0  0
   -4.6009   -2.0517    1.7950 H   0  0  0  0  0  0  0  0  0  0  0  0
   -4.2309   -2.7237    0.1860 H   0  0  0  0  0  0  0  0  0  0  0  0
   -2.5229   -2.0787    1.2980 C   0  0  0  0  0  0  0  0  0  0  0  0
   -1.5999   -2.7227    1.7810 O   0  0  0  0  0  0  0  0  0  0  0  0
   -2.3659   -0.8447    0.8120 N   0  0  0  0  0  0  0  0  0  0  0  0
   -3.1749   -0.3807    0.4220 H   0  0  0  0  0  0  0  0  0  0  0  0
   -1.0919   -0.1077    0.8170 C   0  0  1  0  0  0  0  0  0  0  0  0
   -0.4136   -0.6011    1.5155 H   0  0  0  0  0  0  0  0  0  0  0  0
   -0.4834   -0.1723   -0.5965 C   0  0  0  0  0  0  0  0  0  0  0  0
   -0.5682   -1.1958   -0.9650 H   0  0  0  0  0  0  0  0  0  0  0  0
   -1.0540    0.4775   -1.2629 H   0  0  0  0  0  0  0  0  0  0  0  0
    0.9975    0.2349   -0.6385 C   0  0  0  0  0  0  0  0  0  0  0  0
    1.5011   -0.2940   -1.4488 H   0  0  0  0  0  0  0  0  0  0  0  0
    1.0698    1.3098   -0.8153 H   0  0  0  0  0  0  0  0  0  0  0  0
    1.6843   -0.1087    0.6905 C   0  0  0  0  0  0  0  0  0  0  0  0
    1.1683    0.4107    1.5016 H   0  0  0  0  0  0  0  0  0  0  0  0
    1.6173   -1.1855    0.8580 H   0  0  0  0  0  0  0  0  0  0  0  0
    3.1566    0.3199    0.6590 C   0  0  0  0  0  0  0  0  0  0  0  0
    3.6533   -0.2047   -0.1637 H   0  0  0  0  0  0  0  0  0  0  0  0
    3.2020    1.3926    0.4484 H   0  0  0  0  0  0  0  0  0  0  0  0
    3.8399    0.0204    1.9428 N   0  3  0  0  0  0  0  0  0  0  0  0
    3.8104   -0.9724    2.1380 H   0  0  0  0  0  0  0  0  0  0  0  0
    4.8095    0.3093    1.9058 H   0  0  0  0  0  0  0  0  0  0  0  0
    3.3893    0.5108    2.7065 H   0  0  0  0  0  0  0  0  0  0  0  0
   -1.3103    1.3348    1.2791 C   0  0  0  0  0  0  0  0  0  0  0  0
   -2.2333    1.9891    0.8084 O   0  0  0  0  0  0  0  0  0  0  0  0
   -0.4429    1.8293    2.1683 N   0  0  0  0  0  0  0  0  0  0  0  0
    0.2668    1.2118    2.5263 H   0  0  0  0  0  0  0  0  0  0  0  0
   -0.5118    3.1863    2.7135 C   0  0  0  0  0  0  0  0  0  0  0  0
   -1.4470    3.3159    3.2625 H   0  0  0  0  0  0  0  0  0  0  0  0
    0.3243    3.3682    3.3896 H   0  0  0  0  0  0  0  0  0  0  0  0
   -0.4850    3.9172    1.9023 H   0  0  0  0  0  0  0  0  0  0  0  0
  5  6  2  0  0  0  0
  5  7  1  0  0  0  0
  2  3  1  0  0  0  0
  2  4  1  0  0  0  0
  2  5  1  0  0  0  0
  1  2  1  0  0  0  0
 27 28  2  0  0  0  0
 27 29  1  0  0  0  0
 23 24  1  0  0  0  0
 23 25  1  0  0  0  0
 23 26  1  0  0  0  0
 20 21  1  0  0  0  0
 20 22  1  0  0  0  0
 20 23  1  0  0  0  0
 17 18  1  0  0  0  0
 17 19  1  0  0  0  0
 17 20  1  0  0  0  0
 14 15  1  0  0  0  0
 14 16  1  0  0  0  0
 14 17  1  0  0  0  0
 11 12  1  0  0  0  0
 11 13  1  0  0  0  0
 11 14  1  0  0  0  0
  9 10  1  0  0  0  0
  9 11  1  0  0  0  0
  9 27  1  0  0  0  0
  7  8  1  0  0  0  0
  7  9  1  0  0  0  0
 31 32  1  0  0  0  0
 31 33  1  0  0  0  0
 31 34  1  0  0  0  0
 29 30  1  0  0  0  0
 29 31  1  0  0  0  0
M  CHG  1  23   1
M  END
$$$$
default_name
  -OEChem-02102213163D

 34 33  0     1  0  0  0  0  0999 V2000
   -3.8899   -3.6747    1.6490 H   0  0  0  0  0  0  0  0  0  0  0  0
   -3.9109   -2.6717    1.2250 C   0  0  0  0  0  0  0  0  0  0  0  0
   -4.6009   -2.0517    1.7950 H   0  0  0  0  0  0  0  0  0  0  0  0
   -4.2309   -2.7237    0.1860 H   0  0  0  0  0  0  0  0  0  0  0  0
   -2.5229   -2.0787    1.2980 C   0  0  0  0  0  0  0  0  0  0  0  0
   -1.5999   -2.7227    1.7810 O   0  0  0  0  0  0  0  0  0  0  0  0
   -2.3659   -0.8447    0.8120 N   0  0  0  0  0  0  0  0  0  0  0  0
   -3.1749   -0.3807    0.4220 H   0  0  0  0  0  0  0  0  0  0  0  0
   -1.0919   -0.1077    0.8170 C   0  0  1  0  0  0  0  0  0  0  0  0
   -0.4136   -0.6011    1.5155 H   0  0  0  0  0  0  0  0  0  0  0  0
   -0.4834   -0.1723   -0.5965 C   0  0  0  0  0  0  0  0  0  0  0  0
   -0.5682   -1.1958   -0.9650 H   0  0  0  0  0  0  0  0  0  0  0  0
   -1.0540    0.4775   -1.2629 H   0  0  0  0  0  0  0  0  0  0  0  0
    0.9975    0.2349   -0.6385 C   0  0  0  0  0  0  0  0  0  0  0  0
    1.4367   -0.0741   -1.5880 H   0  0  0  0  0  0  0  0  0  0  0  0
    1.0746    1.3200   -0.5464 H   0  0  0  0  0  0  0  0  0  0  0  0
    1.7672   -0.4286    0.5119 C   0  0  0  0  0  0  0  0  0  0  0  0
    1.3156   -0.1290    1.4607 H   0  0  0  0  0  0  0  0  0  0  0  0
    1.6947   -1.5132    0.4100 H   0  0  0  0  0  0  0  0  0  0  0  0
    3.2406   -0.0033    0.4860 C   0  0  0  0  0  0  0  0  0  0  0  0
    3.6721   -0.3050   -0.4740 H   0  0  0  0  0  0  0  0  0  0  0  0
    3.2885    1.0881    0.5467 H   0  0  0  0  0  0  0  0  0  0  0  0
    4.0044   -0.6127    1.6039 N   0  3  0  0  0  0  0  0  0  0  0  0
    3.9725   -1.6229    1.5471 H   0  0  0  0  0  0  0  0  0  0  0  0
    4.9737   -0.3222    1.5728 H   0  0  0  0  0  0  0  0  0  0  0  0
    3.6143   -0.3294    2.4952 H   0  0  0  0  0  0  0  0  0  0  0  0
   -1.3103    1.3348    1.2791 C   0  0  0  0  0  0  0  0  0  0  0  0
   -2.2333    1.9891    0.8084 O   0  0  0  0  0  0  0  0  0  0  0  0
   -0.4429    1.8293    2.1683 N   0  0  0  0  0  0  0  0  0  0  0  0
    0.2668    1.2118    2.5263 H   0  0  0  0  0  0  0  0  0  0  0  0
   -0.5118    3.1863    2.7135 C   0  0  0  0  0  0  0  0  0  0  0  0
   -1.4470    3.3159    3.2625 H   0  0  0  0  0  0  0  0  0  0  0  0
    0.3243    3.3682    3.3896 H   0  0  0  0  0  0  0  0  0  0  0  0
   -0.4850    3.9172    1.9023 H   0  0  0  0  0  0  0  0  0  0  0  0
  5  6  2  0  0  0  0
  5  7  1  0  0  0  0
  2  3  1  0  0  0  0
  2  4  1  0  0  0  0
  2  5  1  0  0  0  0
  1  2  1  0  0  0  0
 27 28  2  0  0  0  0
 27 29  1  0  0  0  0
 23 24  1  0  0  0  0
 23 25  1  0  0  0  0
 23 26  1  0  0  0  0
 20 21  1  0  0  0  0
 20 22  1  0  0  0  0
 20 23  1  0  0  0  0
 17 18  1  0  0  0  0
 17 19  1  0  0  0  0
 17 20  1  0  0  0  0
 14 15  1  0  0  0  0
 14 16  1  0  0  0  0
 14 17  1  0  0  0  0
 11 12  1  0  0  0  0
 11 13  1  0  0  0  0
 11 14  1  0  0  0  0
  9 10  1  0  0  0  0
  9 11  1  0  0  0  0
  9 27  1  0  0  0  0
  7  8  1  0  0  0  0
  7  9  1  0  0  0  0
 31 32  1  0  0  0  0
 31 33  1  0  0  0  0
 31 34  1  0  0  0  0
 29 30  1  0  0  0  0
 29 31  1  0  0  0  0
M  CHG  1  23   1
M  END
$$$$
default_name
  -OEChem-02102213163D

 34 33  0     1  0  0  0  0  0999 V2000
   -3.8899   -3.6747    1.6490 H   0  0  0  0  0  0  0  0  0  0  0  0
   -3.9109   -2.6717    1.2250 C   0  0  0  0  0  0  0  0  0  0  0  0
   -4.6009   -2.0517    1.7950 H   0  0  0  0  0  0  0  0  0  0  0  0
   -4.2309   -2.7237    0.1860 H   0  0  0  0  0  0  0  0  0  0  0  0
   -2.5229   -2.0787    1.2980 C   0  0  0  0  0  0  0  0  0  0  0  0
   -1.5999   -2.7227    1.7810 O   0  0  0  0  0  0  0  0  0  0  0  0
   -2.3659   -0.8447    0.8120 N   0  0  0  0  0  0  0  0  0  0  0  0
   -3.1749   -0.3807    0.4220 H   0  0  0  0  0  0  0  0  0  0  0  0
   -1.0919   -0.1077    0.8170 C   0  0  1  0  0  0  0  0  0  0  0  0
   -0.4136   -0.6011    1.5155 H   0  0  0  0  0  0  0  0  0  0  0  0
   -0.4834   -0.1723   -0.5965 C   0  0  0  0  0  0  0  0  0  0  0  0
   -0.5682   -1.1958   -0.9650 H   0  0  0  0  0  0  0  0  0  0  0  0
   -1.0540    0.4775   -1.2629 H   0  0  0  0  0  0  0  0  0  0  0  0
    0.9975    0.2349   -0.6385 C   0  0  0  0  0  0  0  0  0  0  0  0
    1.3664    0.1735   -1.6632 H   0  0  0  0  0  0  0  0  0  0  0  0
    1.0978    1.2628   -0.2845 H   0  0  0  0  0  0  0  0  0  0  0  0
    1.8327   -0.6936    0.2539 C   0  0  0  0  0  0  0  0  0  0  0  0
    1.4512   -0.6412    1.2764 H   0  0  0  0  0  0  0  0  0  0  0  0
    1.7364   -1.7185   -0.1099 H   0  0  0  0  0  0  0  0  0  0  0  0
    3.3076   -0.2729    0.2324 C   0  0  0  0  0  0  0  0  0  0  0  0
    3.6682   -0.3246   -0.8001 H   0  0  0  0  0  0  0  0  0  0  0  0
    3.3767    0.7689    0.5597 H   0  0  0  0  0  0  0  0  0  0  0  0
    4.1356   -1.1409    1.1073 N   0  3  0  0  0  0  0  0  0  0  0  0
    4.0840   -2.1050    0.8029 H   0  0  0  0  0  0  0  0  0  0  0  0
    5.1050   -0.8502    1.0823 H   0  0  0  0  0  0  0  0  0  0  0  0
    3.8112   -1.0897    2.0660 H   0  0  0  0  0  0  0  0  0  0  0  0
   -1.3103    1.3348    1.2791 C   0  0  0  0  0  0  0  0  0  0  0  0
   -2.2333    1.9891    0.8084 O   0  0  0  0  0  0  0  0  0  0  0  0
   -0.4429    1.8293    2.1683 N   0  0  0  0  0  0  0  0  0  0  0  0
    0.2668    1.2118    2.5263 H   0  0  0  0  0  0  0  0  0  0  0  0
   -0.5118    3.1863    2.7135 C   0  0  0  0  0  0  0  0  0  0  0  0
   -1.4470    3.3159    3.2625 H   0  0  0  0  0  0  0  0  0  0  0  0
    0.3243    3.3682    3.3896 H   0  0  0  0  0  0  0  0  0  0  0  0
   -0.4850    3.9172    1.9023 H   0  0  0  0  0  0  0  0  0  0  0  0
  5  6  2  0  0  0  0
  5  7  1  0  0  0  0
  2  3  1  0  0  0  0
  2  4  1  0  0  0  0
  2  5  1  0  0  0  0
  1  2  1  0  0  0  0
 27 28  2  0  0  0  0
 27 29  1  0  0  0  0
 23 24  1  0  0  0  0
 23 25  1  0  0  0  0
 23 26  1  0  0  0  0
 20 21  1  0  0  0  0
 20 22  1  0  0  0  0
 20 23  1  0  0  0  0
 17 18  1  0  0  0  0
 17 19  1  0  0  0  0
 17 20  1  0  0  0  0
 14 15  1  0  0  0  0
 14 16  1  0  0  0  0
 14 17  1  0  0  0  0
 11 12  1  0  0  0  0
 11 13  1  0  0  0  0
 11 14  1  0  0  0  0
  9 10  1  0  0  0  0
  9 11  1  0  0  0  0
  9 27  1  0  0  0  0
  7  8  1  0  0  0  0
  7  9  1  0  0  0  0
 31 32  1  0  0  0  0
 31 33  1  0  0  0  0
 31 34  1  0  0  0  0
 29 30  1  0  0  0  0
 29 31  1  0  0  0  0
M  CHG  1  23   1
M  END
$$$$
default_name
  -OEChem-02102213163D

 34 33  0     1  0  0  0  0  0999 V2000
   -3.8899   -3.6747    1.6490 H   0  0  0  0  0  0  0  0  0  0  0  0
   -3.9109   -2.6717    1.2250 C   0  0  0  0  0  0  0  0  0  0  0  0
   -4.6009   -2.0517    1.7950 H   0  0  0  0  0  0  0  0  0  0  0  0
   -4.2309   -2.7237    0.1860 H   0  0  0  0  0  0  0  0  0  0  0  0
   -2.5229   -2.0787    1.2980 C   0  0  0  0  0  0  0  0  0  0  0  0
   -1.5999   -2.7227    1.7810 O   0  0  0  0  0  0  0  0  0  0  0  0
   -2.3659   -0.8447    0.8120 N   0  0  0  0  0  0  0  0  0  0  0  0
   -3.1749   -0.3807    0.4220 H   0  0  0  0  0  0  0  0  0  0  0  0
   -1.0919   -0.1077    0.8170 C   0  0  1  0  0  0  0  0  0  0  0  0
   -0.4136   -0.6011    1.5155 H   0  0  0  0  0  0  0  0  0  0  0  0
   -0.4834   -0.1723   -0.5965 C   0  0  0  0  0  0  0  0  0  0  0  0
   -0.5682   -1.1958   -0.9650 H   0  0  0  0  0  0  0  0  0  0  0  0
   -1.0540    0.4775   -1.2629 H   0  0  0  0  0  0  0  0  0  0  0  0
    0.9975    0.2349   -0.6385 C   0  0  0  0  0  0  0  0  0  0  0  0
    1.2952    0.4319   -1.6692 H   0  0  0  0  0  0  0  0  0  0  0  0
    1.1377    1.1420   -0.0474 H   0  0  0  0  0  0  0  0  0  0  0  0
    1.8765   -0.8856   -0.0660 C   0  0  0  0  0  0  0  0  0  0  0  0
    1.5659   -1.0908    0.9613 H   0  0  0  0  0  0  0  0  0  0  0  0
    1.7396   -1.7874   -0.6660 H   0  0  0  0  0  0  0  0  0  0  0  0
    3.3529   -0.4705   -0.0843 C   0  0  0  0  0  0  0  0  0  0  0  0
    3.6420   -0.2622   -1.1196 H   0  0  0  0  0  0  0  0  0  0  0  0
    3.4605    0.4566    0.4867 H   0  0  0  0  0  0  0  0  0  0  0  0
    4.2245   -1.5282    0.4869 N   0  3  0  0  0  0  0  0  0  0  0  0
    4.1371   -2.3858   -0.0438 H   0  0  0  0  0  0  0  0  0  0  0  0
    5.1945   -1.2389    0.4678 H   0  0  0  0  0  0  0  0  0  0  0  0
    3.9666   -1.7185    1.4482 H   0  0  0  0  0  0  0  0  0  0  0  0
   -1.3103    1.3348    1.2791 C   0  0  0  0  0  0  0  0  0  0  0  0
   -2.2333    1.9891    0.8084 O   0  0  0  0  0  0  0  0  0  0  0  0
   -0.4429    1.8293    2.1683 N   0  0  0  0  0  0  0  0  0  0  0  0
    0.2668    1.2118    2.5263 H   0  0  0  0  0  0  0  0  0  0  0  0
   -0.5118    3.1863    2.7135 C   0  0  0  0  0  0  0  0  0  0  0  0
   -1.4470    3.3159    3.2625 H   0  0  0  0  0  0  0  0  0  0  0  0
    0.3243    3.3682    3.3896 H   0  0  0  0  0  0  0  0  0  0  0  0
   -0.4850    3.9172    1.9023 H   0  0  0  0  0  0  0  0  0  0  0  0
  5  6  2  0  0  0  0
  5  7  1  0  0  0  0
  2  3  1  0  0  0  0
  2  4  1  0  0  0  0
  2  5  1  0  0  0  0
  1  2  1  0  0  0  0
 27 28  2  0  0  0  0
 27 29  1  0  0  0  0
 23 24  1  0  0  0  0
 23 25  1  0  0  0  0
 23 26  1  0  0  0  0
 20 21  1  0  0  0  0
 20 22  1  0  0  0  0
 20 23  1  0  0  0  0
 17 18  1  0  0  0  0
 17 19  1  0  0  0  0
 17 20  1  0  0  0  0
 14 15  1  0  0  0  0
 14 16  1  0  0  0  0
 14 17  1  0  0  0  0
 11 12  1  0  0  0  0
 11 13  1  0  0  0  0
 11 14  1  0  0  0  0
  9 10  1  0  0  0  0
  9 11  1  0  0  0  0
  9 27  1  0  0  0  0
  7  8  1  0  0  0  0
  7  9  1  0  0  0  0
 31 32  1  0  0  0  0
 31 33  1  0  0  0  0
 31 34  1  0  0  0  0
 29 30  1  0  0  0  0
 29 31  1  0  0  0  0
M  CHG  1  23   1
M  END
$$$$
default_name
  -OEChem-02102213163D

 34 33  0     1  0  0  0  0  0999 V2000
   -3.8899   -3.6747    1.6490 H   0  0  0  0  0  0  0  0  0  0  0  0
   -3.9109   -2.6717    1.2250 C   0  0  0  0  0  0  0  0  0  0  0  0
   -4.6009   -2.0517    1.7950 H   0  0  0  0  0  0  0  0  0  0  0  0
   -4.2309   -2.7237    0.1860 H   0  0  0  0  0  0  0  0  0  0  0  0
   -2.5229   -2.0787    1.2980 C   0  0  0  0  0  0  0  0  0  0  0  0
   -1.5999   -2.7227    1.7810 O   0  0  0  0  0  0  0  0  0  0  0  0
   -2.3659   -0.8447    0.8120 N   0  0  0  0  0  0  0  0  0  0  0  0
   -3.1749   -0.3807    0.4220 H   0  0  0  0  0  0  0  0  0  0  0  0
   -1.0919   -0.1077    0.8170 C   0  0  1  0  0  0  0  0  0  0  0  0
   -0.4136   -0.6011    1.5155 H   0  0  0  0  0  0  0  0  0  0  0  0
   -0.4834   -0.1723   -0.5965 C   0  0  0  0  0  0  0  0  0  0  0  0
   -0.5682   -1.1958   -0.9650 H   0  0  0  0  0  0  0  0  0  0  0  0
   -1.0540    0.4775   -1.2629 H   0  0  0  0  0  0  0  0  0  0  0  0
    0.9975    0.2349   -0.6385 C   0  0  0  0  0  0  0  0  0  0  0  0
    1.2278    0.6835   -1.6057 H   0  0  0  0  0  0  0  0  0  0  0  0
    1.1917    0.9659    0.1488 H   0  0  0  0  0  0  0  0  0  0  0  0
    1.8954   -0.9917   -0.4258 C   0  0  0  0  0  0  0  0  0  0  0  0
    1.6519   -1.4474    0.5370 H   0  0  0  0  0  0  0  0  0  0  0  0
    1.7040   -1.7153   -1.2207 H   0  0  0  0  0  0  0  0  0  0  0  0
    3.3736   -0.5827   -0.4427 C   0  0  0  0  0  0  0  0  0  0  0  0
    3.5952   -0.1220   -1.4109 H   0  0  0  0  0  0  0  0  0  0  0  0
    3.5342    0.1726    0.3324 H   0  0  0  0  0  0  0  0  0  0  0  0
    4.2650   -1.7481   -0.2151 N   0  3  0  0  0  0  0  0  0  0  0  0
    4.1284   -2.4462   -0.9354 H   0  0  0  0  0  0  0  0  0  0  0  0
    5.2359   -1.4616   -0.2289 H   0  0  0  0  0  0  0  0  0  0  0  0
    4.0699   -2.1729    0.6840 H   0  0  0  0  0  0  0  0  0  0  0  0
   -1.3103    1.3348    1.2791 C   0  0  0  0  0  0  0  0  0  0  0  0
   -2.2333    1.9891    0.8084 O   0  0  0  0  0  0  0  0  0  0  0  0
   -0.4429    1.8293    2.1683 N   0  0  0  0  0  0  0  0  0  0  0  0
    0.2668    1.2118    2.5263 H   0  0  0  0  0  0  0  0  0  0  0  0
   -0.5118    3.1863    2.7135 C   0  0  0  0  0  0  0  0  0  0  0  0
   -1.4470    3.3159    3.2625 H   0  0  0  0  0  0  0  0  0  0  0  0
    0.3243    3.3682    3.3896 H   0  0  0  0  0  0  0  0  0  0  0  0
   -0.4850    3.9172    1.9023 H   0  0  0  0  0  0  0  0  0  0  0  0
  5  6  2  0  0  0  0
  5  7  1  0  0  0  0
  2  3  1  0  0  0  0
  2  4  1  0  0  0  0
  2  5  1  0  0  0  0
  1  2  1  0  0  0  0
 27 28  2  0  0  0  0
 27 29  1  0  0  0  0
 23 24  1  0  0  0  0
 23 25  1  0  0  0  0
 23 26  1  0  0  0  0
 20 21  1  0  0  0  0
 20 22  1  0  0  0  0
 20 23  1  0  0  0  0
 17 18  1  0  0  0  0
 17 19  1  0  0  0  0
 17 20  1  0  0  0  0
 14 15  1  0  0  0  0
 14 16  1  0  0  0  0
 14 17  1  0  0  0  0
 11 12  1  0  0  0  0
 11 13  1  0  0  0  0
 11 14  1  0  0  0  0
  9 10  1  0  0  0  0
  9 11  1  0  0  0  0
  9 27  1  0  0  0  0
  7  8  1  0  0  0  0
  7  9  1  0  0  0  0
 31 32  1  0  0  0  0
 31 33  1  0  0  0  0
 31 34  1  0  0  0  0
 29 30  1  0  0  0  0
 29 31  1  0  0  0  0
M  CHG  1  23   1
M  END
$$$$
default_name
  -OEChem-02102213163D

 34 33  0     1  0  0  0  0  0999 V2000
   -3.8899   -3.6747    1.6490 H   0  0  0  0  0  0  0  0  0  0  0  0
   -3.9109   -2.6717    1.2250 C   0  0  0  0  0  0  0  0  0  0  0  0
   -4.6009   -2.0517    1.7950 H   0  0  0  0  0  0  0  0  0  0  0  0
   -4.2309   -2.7237    0.1860 H   0  0  0  0  0  0  0  0  0  0  0  0
   -2.5229   -2.0787    1.2980 C   0  0  0  0  0  0  0  0  0  0  0  0
   -1.5999   -2.7227    1.7810 O   0  0  0  0  0  0  0  0  0  0  0  0
   -2.3659   -0.8447    0.8120 N   0  0  0  0  0  0  0  0  0  0  0  0
   -3.1749   -0.3807    0.4220 H   0  0  0  0  0  0  0  0  0  0  0  0
   -1.0919   -0.1077    0.8170 C   0  0  1  0  0  0  0  0  0  0  0  0
   -0.4136   -0.6011    1.5155 H   0  0  0  0  0  0  0  0  0  0  0  0
   -0.4834   -0.1723   -0.5965 C   0  0  0  0  0  0  0  0  0  0  0  0
   -0.5682   -1.1958   -0.9650 H   0  0  0  0  0  0  0  0  0  0  0  0
   -1.0540    0.4775   -1.2629 H   0  0  0  0  0  0  0  0  0  0  0  0
    0.9975    0.2349   -0.6385 C   0  0  0  0  0  0  0  0  0  0  0  0
    1.1688    0.9112   -1.4770 H   0  0  0  0  0  0  0  0  0  0  0  0
    1.2561    0.7464    0.2907 H   0  0  0  0  0  0  0  0  0  0  0  0
    1.8883   -1.0045   -0.8011 C   0  0  0  0  0  0  0  0  0  0  0  0
    1.7034   -1.6866    0.0322 H   0  0  0  0  0  0  0  0  0  0  0  0
    1.6321   -1.5070   -1.7360 H   0  0  0  0  0  0  0  0  0  0  0  0
    3.3682   -0.6019   -0.8183 C   0  0  0  0  0  0  0  0  0  0  0  0
    3.5309    0.0864   -1.6541 H   0  0  0  0  0  0  0  0  0  0  0  0
    3.5928   -0.0637    0.1075 H   0  0  0  0  0  0  0  0  0  0  0  0
    4.2545   -1.7857   -0.9508 N   0  3  0  0  0  0  0  0  0  0  0  0
    4.0584   -2.2820   -1.8110 H   0  0  0  0  0  0  0  0  0  0  0  0
    5.2266   -1.5033   -0.9602 H   0  0  0  0  0  0  0  0  0  0  0  0
    4.1140   -2.4219   -0.1746 H   0  0  0  0  0  0  0  0  0  0  0  0
   -1.3103    1.3348    1.2791 C   0  0  0  0  0  0  0  0  0  0  0  0
   -2.2333    1.9891    0.8084 O   0  0  0  0  0  0  0  0  0  0  0  0
   -0.4429    1.8293    2.1683 N   0  0  0  0  0  0  0  0  0  0  0  0
    0.2668    1.2118    2.5263 H   0  0  0  0  0  0  0  0  0  0  0  0
   -0.5118    3.1863    2.7135 C   0  0  0  0  0  0  0  0  0  0  0  0
   -1.4470    3.3159    3.2625 H   0  0  0  0  0  0  0  0  0  0  0  0
    0.3243    3.3682    3.3896 H   0  0  0  0  0  0  0  0  0  0  0  0
   -0.4850    3.9172    1.9023 H   0  0  0  0  0  0  0  0  0  0  0  0
  5  6  2  0  0  0  0
  5  7  1  0  0  0  0
  2  3  1  0  0  0  0
  2  4  1  0  0  0  0
  2  5  1  0  0  0  0
  1  2  1  0  0  0  0
 27 28  2  0  0  0  0
 27 29  1  0  0  0  0
 23 24  1  0  0  0  0
 23 25  1  0  0  0  0
 23 26  1  0  0  0  0
 20 21  1  0  0  0  0
 20 22  1  0  0  0  0
 20 23  1  0  0  0  0
 17 18  1  0  0  0  0
 17 19  1  0  0  0  0
 17 20  1  0  0  0  0
 14 15  1  0  0  0  0
 14 16  1  0  0  0  0
 14 17  1  0  0  0  0
 11 12  1  0  0  0  0
 11 13  1  0  0  0  0
 11 14  1  0  0  0  0
  9 10  1  0  0  0  0
  9 11  1  0  0  0  0
  9 27  1  0  0  0  0
  7  8  1  0  0  0  0
  7  9  1  0  0  0  0
 31 32  1  0  0  0  0
 31 33  1  0  0  0  0
 31 34  1  0  0  0  0
 29 30  1  0  0  0  0
 29 31  1  0  0  0  0
M  CHG  1  23   1
M  END
$$$$
default_name
  -OEChem-02102213163D

 34 33  0     1  0  0  0  0  0999 V2000
   -3.8899   -3.6747    1.6490 H   0  0  0  0  0  0  0  0  0  0  0  0
   -3.9109   -2.6717    1.2250 C   0  0  0  0  0  0  0  0  0  0  0  0
   -4.6009   -2.0517    1.7950 H   0  0  0  0  0  0  0  0  0  0  0  0
   -4.2309   -2.7237    0.1860 H   0  0  0  0  0  0  0  0  0  0  0  0
   -2.5229   -2.0787    1.2980 C   0  0  0  0  0  0  0  0  0  0  0  0
   -1.5999   -2.7227    1.7810 O   0  0  0  0  0  0  0  0  0  0  0  0
   -2.3659   -0.8447    0.8120 N   0  0  0  0  0  0  0  0  0  0  0  0
   -3.1749   -0.3807    0.4220 H   0  0  0  0  0  0  0  0  0  0  0  0
   -1.0919   -0.1077    0.8170 C   0  0  1  0  0  0  0  0  0  0  0  0
   -0.4136   -0.6011    1.5155 H   0  0  0  0  0  0  0  0  0  0  0  0
   -0.4834   -0.1723   -0.5965 C   0  0  0  0  0  0  0  0  0  0  0  0
   -0.5682   -1.1958   -0.9650 H   0  0  0  0  0  0  0  0  0  0  0  0
   -1.0540    0.4775   -1.2629 H   0  0  0  0  0  0  0  0  0  0  0  0
    0.9975    0.2349   -0.6385 C   0  0  0  0  0  0  0  0  0  0  0  0
    1.1223    1.0995   -1.2918 H   0  0  0  0  0  0  0  0  0  0  0  0
    1.3264    0.4986    0.3685 H   0  0  0  0  0  0  0  0  0  0  0  0
    1.8556   -0.9232   -1.1664 C   0  0  0  0  0  0  0  0  0  0  0  0
    1.7167   -1.7920   -0.5186 H   0  0  0  0  0  0  0  0  0  0  0  0
    1.5287   -1.1767   -2.1768 H   0  0  0  0  0  0  0  0  0  0  0  0
    3.3371   -0.5266   -1.1855 C   0  0  0  0  0  0  0  0  0  0  0  0
    3.4537    0.3488   -1.8326 H   0  0  0  0  0  0  0  0  0  0  0  0
    3.6324   -0.2363   -0.1727 H   0  0  0  0  0  0  0  0  0  0  0  0
    4.1936   -1.6384   -1.6701 N   0  3  0  0  0  0  0  0  0  0  0  0
    3.9319   -1.9045   -2.6111 H   0  0  0  0  0  0  0  0  0  0  0  0
    5.1672   -1.3610   -1.6763 H   0  0  0  0  0  0  0  0  0  0  0  0
    4.0959   -2.4485   -1.0691 H   0  0  0  0  0  0  0  0  0  0  0  0
   -1.3103    1.3348    1.2791 C   0  0  0  0  0  0  0  0  0  0  0  0
   -2.2333    1.9891    0.8084 O   0  0  0  0  0  0  0  0  0  0  0  0
   -0.4429    1.8293    2.1683 N   0  0  0  0  0  0  0  0  0  0  0  0
    0.2668    1.2118    2.5263 H   0  0  0  0  0  0  0  0  0  0  0  0
   -0.5118    3.1863    2.7135 C   0  0  0  0  0  0  0  0  0  0  0  0
   -1.4470    3.3159    3.2625 H   0  0  0  0  0  0  0  0  0  0  0  0
    0.3243    3.3682    3.3896 H   0  0  0  0  0  0  0  0  0  0  0  0
   -0.4850    3.9172    1.9023 H   0  0  0  0  0  0  0  0  0  0  0  0
  5  6  2  0  0  0  0
  5  7  1  0  0  0  0
  2  3  1  0  0  0  0
  2  4  1  0  0  0  0
  2  5  1  0  0  0  0
  1  2  1  0  0  0  0
 27 28  2  0  0  0  0
 27 29  1  0  0  0  0
 23 24  1  0  0  0  0
 23 25  1  0  0  0  0
 23 26  1  0  0  0  0
 20 21  1  0  0  0  0
 20 22  1  0  0  0  0
 20 23  1  0  0  0  0
 17 18  1  0  0  0  0
 17 19  1  0  0  0  0
 17 20  1  0  0  0  0
 14 15  1  0  0  0  0
 14 16  1  0  0  0  0
 14 17  1  0  0  0  0
 11 12  1  0  0  0  0
 11 13  1  0  0  0  0
 11 14  1  0  0  0  0
  9 10  1  0  0  0  0
  9 11  1  0  0  0  0
  9 27  1  0  0  0  0
  7  8  1  0  0  0  0
  7  9  1  0  0  0  0
 31 32  1  0  0  0  0
 31 33  1  0  0  0  0
 31 34  1  0  0  0  0
 29 30  1  0  0  0  0
 29 31  1  0  0  0  0
M  CHG  1  23   1
M  END
$$$$
default_name
  -OEChem-02102213163D

 34 33  0     1  0  0  0  0  0999 V2000
   -3.8899   -3.6747    1.6490 H   0  0  0  0  0  0  0  0  0  0  0  0
   -3.9109   -2.6717    1.2250 C   0  0  0  0  0  0  0  0  0  0  0  0
   -4.6009   -2.0517    1.7950 H   0  0  0  0  0  0  0  0  0  0  0  0
   -4.2309   -2.7237    0.1860 H   0  0  0  0  0  0  0  0  0  0  0  0
   -2.5229   -2.0787    1.2980 C   0  0  0  0  0  0  0  0  0  0  0  0
   -1.5999   -2.7227    1.7810 O   0  0  0  0  0  0  0  0  0  0  0  0
   -2.3659   -0.8447    0.8120 N   0  0  0  0  0  0  0  0  0  0  0  0
   -3.1749   -0.3807    0.4220 H   0  0  0  0  0  0  0  0  0  0  0  0
   -1.0919   -0.1077    0.8170 C   0  0  1  0  0  0  0  0  0  0  0  0
   -0.4136   -0.6011    1.5155 H   0  0  0  0  0  0  0  0  0  0  0  0
   -0.4834   -0.1723   -0.5965 C   0  0  0  0  0  0  0  0  0  0  0  0
   -0.5682   -1.1958   -0.9650 H   0  0  0  0  0  0  0  0  0  0  0  0
   -1.0540    0.4775   -1.2629 H   0  0  0  0  0  0  0  0  0  0  0  0
    0.9975    0.2349   -0.6385 C   0  0  0  0  0  0  0  0  0  0  0  0
    1.0915    1.2354   -1.0628 H   0  0  0  0  0  0  0  0  0  0  0  0
    1.3980    0.2393    0.3771 H   0  0  0  0  0  0  0  0  0  0  0  0
    1.7995   -0.7533   -1.4966 C   0  0  0  0  0  0  0  0  0  0  0  0
    1.6911   -1.7566   -1.0778 H   0  0  0  0  0  0  0  0  0  0  0  0
    1.4010   -0.7470   -2.5131 H   0  0  0  0  0  0  0  0  0  0  0  0
    3.2824   -0.3621   -1.5192 C   0  0  0  0  0  0  0  0  0  0  0  0
    3.3687    0.6474   -1.9343 H   0  0  0  0  0  0  0  0  0  0  0  0
    3.6501   -0.3334   -0.4891 H   0  0  0  0  0  0  0  0  0  0  0  0
    4.0864   -1.3163   -2.3239 N   0  3  0  0  0  0  0  0  0  0  0  0
    3.7575   -1.3394   -3.2811 H   0  0  0  0  0  0  0  0  0  0  0  0
    5.0616   -1.0445   -2.3285 H   0  0  0  0  0  0  0  0  0  0  0  0
    4.0169   -2.2509   -1.9385 H   0  0  0  0  0  0  0  0  0  0  0  0
   -1.3103    1.3348    1.2791 C   0  0  0  0  0  0  0  0  0  0  0  0
   -2.2333    1.9891    0.8084 O   0  0  0  0  0  0  0  0  0  0  0  0
   -0.4429    1.8293    2.1683 N   0  0  0  0  0  0  0  0  0  0  0  0
    0.2668    1.2118    2.5263 H   0  0  0  0  0  0  0  0  0  0  0  0
   -0.5118    3.1863    2.7135 C   0  0  0  0  0  0  0  0  0  0  0  0
   -1.4470    3.3159    3.2625 H   0  0  0  0  0  0  0  0  0  0  0  0
    0.3243    3.3682    3.3896 H   0  0  0  0  0  0  0  0  0  0  0  0
   -0.4850    3.9172    1.9023 H   0  0  0  0  0  0  0  0  0  0  0  0
  5  6  2  0  0  0  0
  5  7  1  0  0  0  0
  2  3  1  0  0  0  0
  2  4  1  0  0  0  0
  2  5  1  0  0  0  0
  1  2  1  0  0  0  0
 27 28  2  0  0  0  0
 27 29  1  0  0  0  0
 23 24  1  0  0  0  0
 23 25  1  0  0  0  0
 23 26  1  0  0  0  0
 20 21  1  0  0  0  0
 20 22  1  0  0  0  0
 20 23  1  0  0  0  0
 17 18  1  0  0  0  0
 17 19  1  0  0  0  0
 17 20  1  0  0  0  0
 14 15  1  0  0  0  0
 14 16  1  0  0  0  0
 14 17  1  0  0  0  0
 11 12  1  0  0  0  0
 11 13  1  0  0  0  0
 11 14  1  0  0  0  0
  9 10  1  0  0  0  0
  9 11  1  0  0  0  0
  9 27  1  0  0  0  0
  7  8  1  0  0  0  0
  7  9  1  0  0  0  0
 31 32  1  0  0  0  0
 31 33  1  0  0  0  0
 31 34  1  0  0  0  0
 29 30  1  0  0  0  0
 29 31  1  0  0  0  0
M  CHG  1  23   1
M  END
$$$$
default_name
  -OEChem-02102213163D

 34 33  0     1  0  0  0  0  0999 V2000
   -3.8899   -3.6747    1.6490 H   0  0  0  0  0  0  0  0  0  0  0  0
   -3.9109   -2.6717    1.2250 C   0  0  0  0  0  0  0  0  0  0  0  0
   -4.6009   -2.0517    1.7950 H   0  0  0  0  0  0  0  0  0  0  0  0
   -4.2309   -2.7237    0.1860 H   0  0  0  0  0  0  0  0  0  0  0  0
   -2.5229   -2.0787    1.2980 C   0  0  0  0  0  0  0  0  0  0  0  0
   -1.5999   -2.7227    1.7810 O   0  0  0  0  0  0  0  0  0  0  0  0
   -2.3659   -0.8447    0.8120 N   0  0  0  0  0  0  0  0  0  0  0  0
   -3.1749   -0.3807    0.4220 H   0  0  0  0  0  0  0  0  0  0  0  0
   -1.0919   -0.1077    0.8170 C   0  0  1  0  0  0  0  0  0  0  0  0
   -0.4136   -0.6011    1.5155 H   0  0  0  0  0  0  0  0  0  0  0  0
   -0.4834   -0.1723   -0.5965 C   0  0  0  0  0  0  0  0  0  0  0  0
   -0.5682   -1.1958   -0.9650 H   0  0  0  0  0  0  0  0  0  0  0  0
   -1.0540    0.4775   -1.2629 H   0  0  0  0  0  0  0  0  0  0  0  0
    0.9975    0.2349   -0.6385 C   0  0  0  0  0  0  0  0  0  0  0  0
    1.0783    1.3098   -0.8055 H   0  0  0  0  0  0  0  0  0  0  0  0
    1.4658   -0.0138    0.3158 H   0  0  0  0  0  0  0  0  0  0  0  0
    1.7238   -0.5064   -1.7694 C   0  0  0  0  0  0  0  0  0  0  0  0
    1.6283   -1.5827   -1.6073 H   0  0  0  0  0  0  0  0  0  0  0  0
    1.2576   -0.2471   -2.7221 H   0  0  0  0  0  0  0  0  0  0  0  0
    3.2078   -0.1195   -1.7968 C   0  0  0  0  0  0  0  0  0  0  0  0
    3.2818    0.9617   -1.9522 H   0  0  0  0  0  0  0  0  0  0  0  0
    3.6448   -0.3484   -0.8202 H   0  0  0  0  0  0  0  0  0  0  0  0
    3.9403   -0.8413   -2.8678 N   0  3  0  0  0  0  0  0  0  0  0  0
    3.5471   -0.6252   -3.7753 H   0  0  0  0  0  0  0  0  0  0  0  0
    4.9172   -0.5754   -2.8723 H   0  0  0  0  0  0  0  0  0  0  0  0
    3.8823   -1.8426   -2.7236 H   0  0  0  0  0  0  0  0  0  0  0  0
   -1.3103    1.3348    1.2791 C   0  0  0  0  0  0  0  0  0  0  0  0
   -2.2333    1.9891    0.8084 O   0  0  0  0  0  0  0  0  0  0  0  0
   -0.4429    1.8293    2.1683 N   0  0  0  0  0  0  0  0  0  0  0  0
    0.2668    1.2118    2.5263 H   0  0  0  0  0  0  0  0  0  0  0  0
   -0.5118    3.1863    2.7135 C   0  0  0  0  0  0  0  0  0  0  0  0
   -1.4470    3.3159    3.2625 H   0  0  0  0  0  0  0  0  0  0  0  0
    0.3243    3.3682    3.3896 H   0  0  0  0  0  0  0  0  0  0  0  0
   -0.4850    3.9172    1.9023 H   0  0  0  0  0  0  0  0  0  0  0  0
  5  6  2  0  0  0  0
  5  7  1  0  0  0  0
  2  3  1  0  0  0  0
  2  4  1  0  0  0  0
  2  5  1  0  0  0  0
  1  2  1  0  0  0  0
 27 28  2  0  0  0  0
 27 29  1  0  0  0  0
 23 24  1  0  0  0  0
 23 25  1  0  0  0  0
 23 26  1  0  0  0  0
 20 21  1  0  0  0  0
 20 22  1  0  0  0  0
 20 23  1  0  0  0  0
 17 18  1  0  0  0  0
 17 19  1  0  0  0  0
 17 20  1  0  0  0  0
 14 15  1  0  0  0  0
 14 16  1  0  0  0  0
 14 17  1  0  0  0  0
 11 12  1  0  0  0  0
 11 13  1  0  0  0  0
 11 14  1  0  0  0  0
  9 10  1  0  0  0  0
  9 11  1  0  0  0  0
  9 27  1  0  0  0  0
  7  8  1  0  0  0  0
  7  9  1  0  0  0  0
 31 32  1  0  0  0  0
 31 33  1  0  0  0  0
 31 34  1  0  0  0  0
 29 30  1  0  0  0  0
 29 31  1  0  0  0  0
M  CHG  1  23   1
M  END
$$$$
default_name
  -OEChem-02102213163D

 34 33  0     1  0  0  0  0  0999 V2000
   -3.8899   -3.6747    1.6490 H   0  0  0  0  0  0  0  0  0  0  0  0
   -3.9109   -2.6717    1.2250 C   0  0  0  0  0  0  0  0  0  0  0  0
   -4.6009   -2.0517    1.7950 H   0  0  0  0  0  0  0  0  0  0  0  0
   -4.2309   -2.7237    0.1860 H   0  0  0  0  0  0  0  0  0  0  0  0
   -2.5229   -2.0787    1.2980 C   0  0  0  0  0  0  0  0  0  0  0  0
   -1.5999   -2.7227    1.7810 O   0  0  0  0  0  0  0  0  0  0  0  0
   -2.3659   -0.8447    0.8120 N   0  0  0  0  0  0  0  0  0  0  0  0
   -3.1749   -0.3807    0.4220 H   0  0  0  0  0  0  0  0  0  0  0  0
   -1.0919   -0.1077    0.8170 C   0  0  1  0  0  0  0  0  0  0  0  0
   -0.4136   -0.6011    1.5155 H   0  0  0  0  0  0  0  0  0  0  0  0
   -0.4834   -0.1723   -0.5965 C   0  0  0  0  0  0  0  0  0  0  0  0
   -0.5682   -1.1958   -0.9650 H   0  0  0  0  0  0  0  0  0  0  0  0
   -1.0540    0.4775   -1.2629 H   0  0  0  0  0  0  0  0  0  0  0  0
    0.9975    0.2349   -0.6385 C   0  0  0  0  0  0  0  0  0  0  0  0
    1.0838    1.3176   -0.5376 H   0  0  0  0  0  0  0  0  0  0  0  0
    1.5254   -0.2434    0.1888 H   0  0  0  0  0  0  0  0  0  0  0  0
    1.6338   -0.1993   -1.9661 C   0  0  0  0  0  0  0  0  0  0  0  0
    1.5325   -1.2822   -2.0712 H   0  0  0  0  0  0  0  0  0  0  0  0
    1.1083    0.2888   -2.7893 H   0  0  0  0  0  0  0  0  0  0  0  0
    3.1184    0.1845   -1.9993 C   0  0  0  0  0  0  0  0  0  0  0  0
    3.1988    1.2705   -1.8851 H   0  0  0  0  0  0  0  0  0  0  0  0
    3.6169   -0.2803   -1.1434 H   0  0  0  0  0  0  0  0  0  0  0  0
    3.7653   -0.2457   -3.2646 N   0  3  0  0  0  0  0  0  0  0  0  0
    3.3149    0.1895   -4.0600 H   0  0  0  0  0  0  0  0  0  0  0  0
    4.7437    0.0145   -3.2706 H   0  0  0  0  0  0  0  0  0  0  0  0
    3.7014   -1.2514   -3.3709 H   0  0  0  0  0  0  0  0  0  0  0  0
   -1.3103    1.3348    1.2791 C   0  0  0  0  0  0  0  0  0  0  0  0
   -2.2333    1.9891    0.8084 O   0  0  0  0  0  0  0  0  0  0  0  0
   -0.4429    1.8293    2.1683 N   0  0  0  0  0  0  0  0  0  0  0  0
    0.2668    1.2118    2.5263 H   0  0  0  0  0  0  0  0  0  0  0  0
   -0.5118    3.1863    2.7135 C   0  0  0  0  0  0  0  0  0  0  0  0
   -1.4470    3.3159    3.2625 H   0  0  0  0  0  0  0  0  0  0  0  0
    0.3243    3.3682    3.3896 H   0  0  0  0  0  0  0  0  0  0  0  0
   -0.4850    3.9172    1.9023 H   0  0  0  0  0  0  0  0  0  0  0  0
  5  6  2  0  0  0  0
  5  7  1  0  0  0  0
  2  3  1  0  0  0  0
  2  4  1  0  0  0  0
  2  5  1  0  0  0  0
  1  2  1  0  0  0  0
 27 28  2  0  0  0  0
 27 29  1  0  0  0  0
 23 24  1  0  0  0  0
 23 25  1  0  0  0  0
 23 26  1  0  0  0  0
 20 21  1  0  0  0  0
 20 22  1  0  0  0  0
 20 23  1  0  0  0  0
 17 18  1  0  0  0  0
 17 19  1  0  0  0  0
 17 20  1  0  0  0  0
 14 15  1  0  0  0  0
 14 16  1  0  0  0  0
 14 17  1  0  0  0  0
 11 12  1  0  0  0  0
 11 13  1  0  0  0  0
 11 14  1  0  0  0  0
  9 10  1  0  0  0  0
  9 11  1  0  0  0  0
  9 27  1  0  0  0  0
  7  8  1  0  0  0  0
  7  9  1  0  0  0  0
 31 32  1  0  0  0  0
 31 33  1  0  0  0  0
 31 34  1  0  0  0  0
 29 30  1  0  0  0  0
 29 31  1  0  0  0  0
M  CHG  1  23   1
M  END
$$$$
default_name
  -OEChem-02102213163D

 34 33  0     1  0  0  0  0  0999 V2000
   -3.8899   -3.6747    1.6490 H   0  0  0  0  0  0  0  0  0  0  0  0
   -3.9109   -2.6717    1.2250 C   0  0  0  0  0  0  0  0  0  0  0  0
   -4.6009   -2.0517    1.7950 H   0  0  0  0  0  0  0  0  0  0  0  0
   -4.2309   -2.7237    0.1860 H   0  0  0  0  0  0  0  0  0  0  0  0
   -2.5229   -2.0787    1.2980 C   0  0  0  0  0  0  0  0  0  0  0  0
   -1.5999   -2.7227    1.7810 O   0  0  0  0  0  0  0  0  0  0  0  0
   -2.3659   -0.8447    0.8120 N   0  0  0  0  0  0  0  0  0  0  0  0
   -3.1749   -0.3807    0.4220 H   0  0  0  0  0  0  0  0  0  0  0  0
   -1.0919   -0.1077    0.8170 C   0  0  1  0  0  0  0  0  0  0  0  0
   -0.4136   -0.6011    1.5155 H   0  0  0  0  0  0  0  0  0  0  0  0
   -0.4834   -0.1723   -0.5965 C   0  0  0  0  0  0  0  0  0  0  0  0
   -0.7997   -1.1036   -1.0689 H   0  0  0  0  0  0  0  0  0  0  0  0
   -0.8682    0.6585   -1.1911 H   0  0  0  0  0  0  0  0  0  0  0  0
    1.0523   -0.1273   -0.5983 C   0  0  0  0  0  0  0  0  0  0  0  0
    1.3933    0.7986   -0.1331 H   0  0  0  0  0  0  0  0  0  0  0  0
    1.4375   -0.9753   -0.0287 H   0  0  0  0  0  0  0  0  0  0  0  0
    1.5874   -0.1954   -2.0354 C   0  0  0  0  0  0  0  0  0  0  0  0
    1.2319   -1.1165   -2.5034 H   0  0  0  0  0  0  0  0  0  0  0  0
    1.2069    0.6595   -2.5979 H   0  0  0  0  0  0  0  0  0  0  0  0
    3.1211   -0.1755   -2.0374 C   0  0  0  0  0  0  0  0  0  0  0  0
    3.4568    0.7499   -1.5582 H   0  0  0  0  0  0  0  0  0  0  0  0
    3.4804   -1.0147   -1.4342 H   0  0  0  0  0  0  0  0  0  0  0  0
    3.6664   -0.2646   -3.4155 N   0  3  0  0  0  0  0  0  0  0  0  0
    3.3457    0.5152   -3.9758 H   0  0  0  0  0  0  0  0  0  0  0  0
    4.6785   -0.2506   -3.3994 H   0  0  0  0  0  0  0  0  0  0  0  0
    3.3656   -1.1240   -3.8604 H   0  0  0  0  0  0  0  0  0  0  0  0
   -1.3103    1.3348    1.2791 C   0  0  0  0  0  0  0  0  0  0  0  0
   -2.2333    1.9891    0.8084 O   0  0  0  0  0  0  0  0  0  0  0  0
   -0.4429    1.8293    2.1683 N   0  0  0  0  0  0  0  0  0  0  0  0
    0.2668    1.2118    2.5263 H   0  0  0  0  0  0  0  0  0  0  0  0
   -0.5118    3.1863    2.7135 C   0  0  0  0  0  0  0  0  0  0  0  0
   -1.4470    3.3159    3.2625 H   0  0  0  0  0  0  0  0  0  0  0  0
    0.3243    3.3682    3.3896 H   0  0  0  0  0  0  0  0  0  0  0  0
   -0.4850    3.9172    1.9023 H   0  0  0  0  0  0  0  0  0  0  0  0
  5  6  2  0  0  0  0
  5  7  1  0  0  0  0
  2  3  1  0  0  0  0
  2  4  1  0  0  0  0
  2  5  1  0  0  0  0
  1  2  1  0  0  0  0
 27 28  2  0  0  0  0
 27 29  1  0  0  0  0
 23 24  1  0  0  0  0
 23 25  1  0  0  0  0
 23 26  1  0  0  0  0
 20 21  1  0  0  0  0
 20 22  1  0  0  0  0
 20 23  1  0  0  0  0
 17 18  1  0  0  0  0
 17 19  1  0  0  0  0
 17 20  1  0  0  0  0
 14 15  1  0  0  0  0
 14 16  1  0  0  0  0
 14 17  1  0  0  0  0
 11 12  1  0  0  0  0
 11 13  1  0  0  0  0
 11 14  1  0  0  0  0
  9 10  1  0  0  0  0
  9 11  1  0  0  0  0
  9 27  1  0  0  0  0
  7  8  1  0  0  0  0
  7  9  1  0  0  0  0
 31 32  1  0  0  0  0
 31 33  1  0  0  0  0
 31 34  1  0  0  0  0
 29 30  1  0  0  0  0
 29 31  1  0  0  0  0
M  CHG  1  23   1
M  END
$$$$
default_name
  -OEChem-02102213163D

 34 33  0     1  0  0  0  0  0999 V2000
   -3.8899   -3.6747    1.6490 H   0  0  0  0  0  0  0  0  0  0  0  0
   -3.9109   -2.6717    1.2250 C   0  0  0  0  0  0  0  0  0  0  0  0
   -4.6009   -2.0517    1.7950 H   0  0  0  0  0  0  0  0  0  0  0  0
   -4.2309   -2.7237    0.1860 H   0  0  0  0  0  0  0  0  0  0  0  0
   -2.5229   -2.0787    1.2980 C   0  0  0  0  0  0  0  0  0  0  0  0
   -1.5999   -2.7227    1.7810 O   0  0  0  0  0  0  0  0  0  0  0  0
   -2.3659   -0.8447    0.8120 N   0  0  0  0  0  0  0  0  0  0  0  0
   -3.1749   -0.3807    0.4220 H   0  0  0  0  0  0  0  0  0  0  0  0
   -1.0919   -0.1077    0.8170 C   0  0  1  0  0  0  0  0  0  0  0  0
   -0.4136   -0.6011    1.5155 H   0  0  0  0  0  0  0  0  0  0  0  0
   -0.4834   -0.1723   -0.5965 C   0  0  0  0  0  0  0  0  0  0  0  0
   -0.7997   -1.1036   -1.0689 H   0  0  0  0  0  0  0  0  0  0  0  0
   -0.8682    0.6585   -1.1911 H   0  0  0  0  0  0  0  0  0  0  0  0
    1.0523   -0.1273   -0.5983 C   0  0  0  0  0  0  0  0  0  0  0  0
    1.3980    0.6470    0.0880 H   0  0  0  0  0  0  0  0  0  0  0  0
    1.4407   -1.0935   -0.2705 H   0  0  0  0  0  0  0  0  0  0  0  0
    1.5765    0.1791   -2.0081 C   0  0  0  0  0  0  0  0  0  0  0  0
    1.2162   -0.5898   -2.6958 H   0  0  0  0  0  0  0  0  0  0  0  0
    1.1929    1.1501   -2.3274 H   0  0  0  0  0  0  0  0  0  0  0  0
    3.1101    0.1998   -2.0166 C   0  0  0  0  0  0  0  0  0  0  0  0
    3.4506    0.9700   -1.3169 H   0  0  0  0  0  0  0  0  0  0  0  0
    3.4729   -0.7666   -1.6538 H   0  0  0  0  0  0  0  0  0  0  0  0
    3.6448    0.4707   -3.3750 N   0  3  0  0  0  0  0  0  0  0  0  0
    3.3210    1.3687   -3.7120 H   0  0  0  0  0  0  0  0  0  0  0  0
    4.6571    0.4807   -3.3636 H   0  0  0  0  0  0  0  0  0  0  0  0
    3.3396   -0.2445   -4.0248 H   0  0  0  0  0  0  0  0  0  0  0  0
   -1.3103    1.3348    1.2791 C   0  0  0  0  0  0  0  0  0  0  0  0
   -2.2333    1.9891    0.8084 O   0  0  0  0  0  0  0  0  0  0  0  0
   -0.4429    1.8293    2.1683 N   0  0  0  0  0  0  0  0  0  0  0  0
    0.2668    1.2118    2.5263 H   0  0  0  0  0  0  0  0  0  0  0  0
   -0.5118    3.1863    2.7135 C   0  0  0  0  0  0  0  0  0  0  0  0
   -1.4470    3.3159    3.2625 H   0  0  0  0  0  0  0  0  0  0  0  0
    0.3243    3.3682    3.3896 H   0  0  0  0  0  0  0  0  0  0  0  0
   -0.4850    3.9172    1.9023 H   0  0  0  0  0  0  0  0  0  0  0  0
  5  6  2  0  0  0  0
  5  7  1  0  0  0  0
  2  3  1  0  0  0  0
  2  4  1  0  0  0  0
  2  5  1  0  0  0  0
  1  2  1  0  0  0  0
 27 28  2  0  0  0  0
 27 29  1  0  0  0  0
 23 24  1  0  0  0  0
 23 25  1  0  0  0  0
 23 26  1  0  0  0  0
 20 21  1  0  0  0  0
 20 22  1  0  0  0  0
 20 23  1  0  0  0  0
 17 18  1  0  0  0  0
 17 19  1  0  0  0  0
 17 20  1  0  0  0  0
 14 15  1  0  0  0  0
 14 16  1  0  0  0  0
 14 17  1  0  0  0  0
 11 12  1  0  0  0  0
 11 13  1  0  0  0  0
 11 14  1  0  0  0  0
  9 10  1  0  0  0  0
  9 11  1  0  0  0  0
  9 27  1  0  0  0  0
  7  8  1  0  0  0  0
  7  9  1  0  0  0  0
 31 32  1  0  0  0  0
 31 33  1  0  0  0  0
 31 34  1  0  0  0  0
 29 30  1  0  0  0  0
 29 31  1  0  0  0  0
M  CHG  1  23   1
M  END
$$$$
default_name
  -OEChem-02102213163D

 34 33  0     1  0  0  0  0  0999 V2000
   -3.8899   -3.6747    1.6490 H   0  0  0  0  0  0  0  0  0  0  0  0
   -3.9109   -2.6717    1.2250 C   0  0  0  0  0  0  0  0  0  0  0  0
   -4.6009   -2.0517    1.7950 H   0  0  0  0  0  0  0  0  0  0  0  0
   -4.2309   -2.7237    0.1860 H   0  0  0  0  0  0  0  0  0  0  0  0
   -2.5229   -2.0787    1.2980 C   0  0  0  0  0  0  0  0  0  0  0  0
   -1.5999   -2.7227    1.7810 O   0  0  0  0  0  0  0  0  0  0  0  0
   -2.3659   -0.8447    0.8120 N   0  0  0  0  0  0  0  0  0  0  0  0
   -3.1749   -0.3807    0.4220 H   0  0  0  0  0  0  0  0  0  0  0  0
   -1.0919   -0.1077    0.8170 C   0  0  1  0  0  0  0  0  0  0  0  0
   -0.4136   -0.6011    1.5155 H   0  0  0  0  0  0  0  0  0  0  0  0
   -0.4834   -0.1723   -0.5965 C   0  0  0  0  0  0  0  0  0  0  0  0
   -0.7997   -1.1036   -1.0689 H   0  0  0  0  0  0  0  0  0  0  0  0
   -0.8682    0.6585   -1.1911 H   0  0  0  0  0  0  0  0  0  0  0  0
    1.0523   -0.1273   -0.5983 C   0  0  0  0  0  0  0  0  0  0  0  0
    1.4042    0.4433    0.2622 H   0  0  0  0  0  0  0  0  0  0  0  0
    1.4419   -1.1451   -0.5346 H   0  0  0  0  0  0  0  0  0  0  0  0
    1.5662    0.5337   -1.8848 C   0  0  0  0  0  0  0  0  0  0  0  0
    1.1998   -0.0313   -2.7452 H   0  0  0  0  0  0  0  0  0  0  0  0
    1.1815    1.5541   -1.9391 H   0  0  0  0  0  0  0  0  0  0  0  0
    3.0998    0.5570   -1.8994 C   0  0  0  0  0  0  0  0  0  0  0  0
    3.4466    1.1202   -1.0269 H   0  0  0  0  0  0  0  0  0  0  0  0
    3.4640   -0.4701   -1.8017 H   0  0  0  0  0  0  0  0  0  0  0  0
    3.6246    1.1705   -3.1455 N   0  3  0  0  0  0  0  0  0  0  0  0
    3.2993    2.1249   -3.2362 H   0  0  0  0  0  0  0  0  0  0  0  0
    4.6369    1.1779   -3.1396 H   0  0  0  0  0  0  0  0  0  0  0  0
    3.3135    0.6475   -3.9558 H   0  0  0  0  0  0  0  0  0  0  0  0
   -1.3103    1.3348    1.2791 C   0  0  0  0  0  0  0  0  0  0  0  0
   -2.2333    1.9891    0.8084 O   0  0  0  0  0  0  0  0  0  0  0  0
   -0.4429    1.8293    2.1683 N   0  0  0  0  0  0  0  0  0  0  0  0
    0.2668    1.2118    2.5263 H   0  0  0  0  0  0  0  0  0  0  0  0
   -0.5118    3.1863    2.7135 C   0  0  0  0  0  0  0  0  0  0  0  0
   -1.4470    3.3159    3.2625 H   0  0  0  0  0  0  0  0  0  0  0  0
    0.3243    3.3682    3.3896 H   0  0  0  0  0  0  0  0  0  0  0  0
   -0.4850    3.9172    1.9023 H   0  0  0  0  0  0  0  0  0  0  0  0
  5  6  2  0  0  0  0
  5  7  1  0  0  0  0
  2  3  1  0  0  0  0
  2  4  1  0  0  0  0
  2  5  1  0  0  0  0
  1  2  1  0  0  0  0
 27 28  2  0  0  0  0
 27 29  1  0  0  0  0
 23 24  1  0  0  0  0
 23 25  1  0  0  0  0
 23 26  1  0  0  0  0
 20 21  1  0  0  0  0
 20 22  1  0  0  0  0
 20 23  1  0  0  0  0
 17 18  1  0  0  0  0
 17 19  1  0  0  0  0
 17 20  1  0  0  0  0
 14 15  1  0  0  0  0
 14 16  1  0  0  0  0
 14 17  1  0  0  0  0
 11 12  1  0  0  0  0
 11 13  1  0  0  0  0
 11 14  1  0  0  0  0
  9 10  1  0  0  0  0
  9 11  1  0  0  0  0
  9 27  1  0  0  0  0
  7  8  1  0  0  0  0
  7  9  1  0  0  0  0
 31 32  1  0  0  0  0
 31 33  1  0  0  0  0
 31 34  1  0  0  0  0
 29 30  1  0  0  0  0
 29 31  1  0  0  0  0
M  CHG  1  23   1
M  END
$$$$
default_name
  -OEChem-02102213163D

 34 33  0     1  0  0  0  0  0999 V2000
   -3.8899   -3.6747    1.6490 H   0  0  0  0  0  0  0  0  0  0  0  0
   -3.9109   -2.6717    1.2250 C   0  0  0  0  0  0  0  0  0  0  0  0
   -4.6009   -2.0517    1.7950 H   0  0  0  0  0  0  0  0  0  0  0  0
   -4.2309   -2.7237    0.1860 H   0  0  0  0  0  0  0  0  0  0  0  0
   -2.5229   -2.0787    1.2980 C   0  0  0  0  0  0  0  0  0  0  0  0
   -1.5999   -2.7227    1.7810 O   0  0  0  0  0  0  0  0  0  0  0  0
   -2.3659   -0.8447    0.8120 N   0  0  0  0  0  0  0  0  0  0  0  0
   -3.1749   -0.3807    0.4220 H   0  0  0  0  0  0  0  0  0  0  0  0
   -1.0919   -0.1077    0.8170 C   0  0  1  0  0  0  0  0  0  0  0  0
   -0.4136   -0.6011    1.5155 H   0  0  0  0  0  0  0  0  0  0  0  0
   -0.4834   -0.1723   -0.5965 C   0  0  0  0  0  0  0  0  0  0  0  0
   -0.7997   -1.1036   -1.0689 H   0  0  0  0  0  0  0  0  0  0  0  0
   -0.8682    0.6585   -1.1911 H   0  0  0  0  0  0  0  0  0  0  0  0
    1.0523   -0.1273   -0.5983 C   0  0  0  0  0  0  0  0  0  0  0  0
    1.4114    0.2015    0.3778 H   0  0  0  0  0  0  0  0  0  0  0  0
    1.4410   -1.1267   -0.8030 H   0  0  0  0  0  0  0  0  0  0  0  0
    1.5573    0.8444   -1.6739 C   0  0  0  0  0  0  0  0  0  0  0  0
    1.1837    0.5209   -2.6484 H   0  0  0  0  0  0  0  0  0  0  0  0
    1.1735    1.8438   -1.4595 H   0  0  0  0  0  0  0  0  0  0  0  0
    3.0908    0.8718   -1.6937 C   0  0  0  0  0  0  0  0  0  0  0  0
    3.4449    1.1903   -0.7078 H   0  0  0  0  0  0  0  0  0  0  0  0
    3.4544   -0.1454   -1.8678 H   0  0  0  0  0  0  0  0  0  0  0  0
    3.6069    1.7870   -2.7426 N   0  3  0  0  0  0  0  0  0  0  0  0
    3.2823    2.7322   -2.5808 H   0  0  0  0  0  0  0  0  0  0  0  0
    4.6193    1.7934   -2.7427 H   0  0  0  0  0  0  0  0  0  0  0  0
    3.2891    1.4913   -3.6582 H   0  0  0  0  0  0  0  0  0  0  0  0
   -1.3103    1.3348    1.2791 C   0  0  0  0  0  0  0  0  0  0  0  0
   -2.2333    1.9891    0.8084 O   0  0  0  0  0  0  0  0  0  0  0  0
   -0.4429    1.8293    2.1683 N   0  0  0  0  0  0  0  0  0  0  0  0
    0.2668    1.2118    2.5263 H   0  0  0  0  0  0  0  0  0  0  0  0
   -0.5118    3.1863    2.7135 C   0  0  0  0  0  0  0  0  0  0  0  0
   -1.4470    3.3159    3.2625 H   0  0  0  0  0  0  0  0  0  0  0  0
    0.3243    3.3682    3.3896 H   0  0  0  0  0  0  0  0  0  0  0  0
   -0.4850    3.9172    1.9023 H   0  0  0  0  0  0  0  0  0  0  0  0
  5  6  2  0  0  0  0
  5  7  1  0  0  0  0
  2  3  1  0  0  0  0
  2  4  1  0  0  0  0
  2  5  1  0  0  0  0
  1  2  1  0  0  0  0
 27 28  2  0  0  0  0
 27 29  1  0  0  0  0
 23 24  1  0  0  0  0
 23 25  1  0  0  0  0
 23 26  1  0  0  0  0
 20 21  1  0  0  0  0
 20 22  1  0  0  0  0
 20 23  1  0  0  0  0
 17 18  1  0  0  0  0
 17 19  1  0  0  0  0
 17 20  1  0  0  0  0
 14 15  1  0  0  0  0
 14 16  1  0  0  0  0
 14 17  1  0  0  0  0
 11 12  1  0  0  0  0
 11 13  1  0  0  0  0
 11 14  1  0  0  0  0
  9 10  1  0  0  0  0
  9 11  1  0  0  0  0
  9 27  1  0  0  0  0
  7  8  1  0  0  0  0
  7  9  1  0  0  0  0
 31 32  1  0  0  0  0
 31 33  1  0  0  0  0
 31 34  1  0  0  0  0
 29 30  1  0  0  0  0
 29 31  1  0  0  0  0
M  CHG  1  23   1
M  END
$$$$
default_name
  -OEChem-02102213163D

 34 33  0     1  0  0  0  0  0999 V2000
   -3.8899   -3.6747    1.6490 H   0  0  0  0  0  0  0  0  0  0  0  0
   -3.9109   -2.6717    1.2250 C   0  0  0  0  0  0  0  0  0  0  0  0
   -4.6009   -2.0517    1.7950 H   0  0  0  0  0  0  0  0  0  0  0  0
   -4.2309   -2.7237    0.1860 H   0  0  0  0  0  0  0  0  0  0  0  0
   -2.5229   -2.0787    1.2980 C   0  0  0  0  0  0  0  0  0  0  0  0
   -1.5999   -2.7227    1.7810 O   0  0  0  0  0  0  0  0  0  0  0  0
   -2.3659   -0.8447    0.8120 N   0  0  0  0  0  0  0  0  0  0  0  0
   -3.1749   -0.3807    0.4220 H   0  0  0  0  0  0  0  0  0  0  0  0
   -1.0919   -0.1077    0.8170 C   0  0  1  0  0  0  0  0  0  0  0  0
   -0.4136   -0.6011    1.5155 H   0  0  0  0  0  0  0  0  0  0  0  0
   -0.4834   -0.1723   -0.5965 C   0  0  0  0  0  0  0  0  0  0  0  0
   -0.7997   -1.1036   -1.0689 H   0  0  0  0  0  0  0  0  0  0  0  0
   -0.8682    0.6585   -1.1911 H   0  0  0  0  0  0  0  0  0  0  0  0
    1.0523   -0.1273   -0.5983 C   0  0  0  0  0  0  0  0  0  0  0  0
    1.4192   -0.0620    0.4269 H   0  0  0  0  0  0  0  0  0  0  0  0
    1.4382   -1.0395   -1.0576 H   0  0  0  0  0  0  0  0  0  0  0  0
    1.5505    1.0899   -1.3898 C   0  0  0  0  0  0  0  0  0  0  0  0
    1.1690    1.0293   -2.4119 H   0  0  0  0  0  0  0  0  0  0  0  0
    1.1696    1.9996   -0.9211 H   0  0  0  0  0  0  0  0  0  0  0  0
    3.0837    1.1225   -1.4134 C   0  0  0  0  0  0  0  0  0  0  0  0
    3.4457    1.1754   -0.3815 H   0  0  0  0  0  0  0  0  0  0  0  0
    3.4447    0.1853   -1.8476 H   0  0  0  0  0  0  0  0  0  0  0  0
    3.5932    2.2784   -2.1938 N   0  3  0  0  0  0  0  0  0  0  0  0
    3.2710    3.1493   -1.7906 H   0  0  0  0  0  0  0  0  0  0  0  0
    4.6055    2.2853   -2.2000 H   0  0  0  0  0  0  0  0  0  0  0  0
    3.2681    2.2294   -3.1523 H   0  0  0  0  0  0  0  0  0  0  0  0
   -1.3103    1.3348    1.2791 C   0  0  0  0  0  0  0  0  0  0  0  0
   -2.2333    1.9891    0.8084 O   0  0  0  0  0  0  0  0  0  0  0  0
   -0.4429    1.8293    2.1683 N   0  0  0  0  0  0  0  0  0  0  0  0
    0.2668    1.2118    2.5263 H   0  0  0  0  0  0  0  0  0  0  0  0
   -0.5118    3.1863    2.7135 C   0  0  0  0  0  0  0  0  0  0  0  0
   -1.4470    3.3159    3.2625 H   0  0  0  0  0  0  0  0  0  0  0  0
    0.3243    3.3682    3.3896 H   0  0  0  0  0  0  0  0  0  0  0  0
   -0.4850    3.9172    1.9023 H   0  0  0  0  0  0  0  0  0  0  0  0
  5  6  2  0  0  0  0
  5  7  1  0  0  0  0
  2  3  1  0  0  0  0
  2  4  1  0  0  0  0
  2  5  1  0  0  0  0
  1  2  1  0  0  0  0
 27 28  2  0  0  0  0
 27 29  1  0  0  0  0
 23 24  1  0  0  0  0
 23 25  1  0  0  0  0
 23 26  1  0  0  0  0
 20 21  1  0  0  0  0
 20 22  1  0  0  0  0
 20 23  1  0  0  0  0
 17 18  1  0  0  0  0
 17 19  1  0  0  0  0
 17 20  1  0  0  0  0
 14 15  1  0  0  0  0
 14 16  1  0  0  0  0
 14 17  1  0  0  0  0
 11 12  1  0  0  0  0
 11 13  1  0  0  0  0
 11 14  1  0  0  0  0
  9 10  1  0  0  0  0
  9 11  1  0  0  0  0
  9 27  1  0  0  0  0
  7  8  1  0  0  0  0
  7  9  1  0  0  0  0
 31 32  1  0  0  0  0
 31 33  1  0  0  0  0
 31 34  1  0  0  0  0
 29 30  1  0  0  0  0
 29 31  1  0  0  0  0
M  CHG  1  23   1
M  END
$$$$
default_name
  -OEChem-02102213163D

 34 33  0     1  0  0  0  0  0999 V2000
   -3.8899   -3.6747    1.6490 H   0  0  0  0  0  0  0  0  0  0  0  0
   -3.9109   -2.6717    1.2250 C   0  0  0  0  0  0  0  0  0  0  0  0
   -4.6009   -2.0517    1.7950 H   0  0  0  0  0  0  0  0  0  0  0  0
   -4.2309   -2.7237    0.1860 H   0  0  0  0  0  0  0  0  0  0  0  0
   -2.5229   -2.0787    1.2980 C   0  0  0  0  0  0  0  0  0  0  0  0
   -1.5999   -2.7227    1.7810 O   0  0  0  0  0  0  0  0  0  0  0  0
   -2.3659   -0.8447    0.8120 N   0  0  0  0  0  0  0  0  0  0  0  0
   -3.1749   -0.3807    0.4220 H   0  0  0  0  0  0  0  0  0  0  0  0
   -1.0919   -0.1077    0.8170 C   0  0  1  0  0  0  0  0  0  0  0  0
   -0.4136   -0.6011    1.5155 H   0  0  0  0  0  0  0  0  0  0  0  0
   -0.4834   -0.1723   -0.5965 C   0  0  0  0  0  0  0  0  0  0  0  0
   -0.7997   -1.1036   -1.0689 H   0  0  0  0  0  0  0  0  0  0  0  0
   -0.8682    0.6585   -1.1911 H   0  0  0  0  0  0  0  0  0  0  0  0
    1.0523   -0.1273   -0.5983 C   0  0  0  0  0  0  0  0  0  0  0  0
    1.4270   -0.3292    0.4060 H   0  0  0  0  0  0  0  0  0  0  0  0
    1.4335   -0.8893   -1.2809 H   0  0  0  0  0  0  0  0  0  0  0  0
    1.5461    1.2536   -1.0517 C   0  0  0  0  0  0  0  0  0  0  0  0
    1.1568    1.4592   -2.0517 H   0  0  0  0  0  0  0  0  0  0  0  0
    1.1700    2.0107   -0.3608 H   0  0  0  0  0  0  0  0  0  0  0  0
    3.0792    1.2923   -1.0779 C   0  0  0  0  0  0  0  0  0  0  0  0
    3.4490    1.0766   -0.0702 H   0  0  0  0  0  0  0  0  0  0  0  0
    3.4356    0.4995   -1.7424 H   0  0  0  0  0  0  0  0  0  0  0  0
    3.5842    2.6110   -1.5365 N   0  3  0  0  0  0  0  0  0  0  0  0
    3.2662    3.3477   -0.9192 H   0  0  0  0  0  0  0  0  0  0  0  0
    4.5965    2.6199   -1.5484 H   0  0  0  0  0  0  0  0  0  0  0  0
    3.2518    2.8115   -2.4725 H   0  0  0  0  0  0  0  0  0  0  0  0
   -1.3103    1.3348    1.2791 C   0  0  0  0  0  0  0  0  0  0  0  0
   -2.2333    1.9891    0.8084 O   0  0  0  0  0  0  0  0  0  0  0  0
   -0.4429    1.8293    2.1683 N   0  0  0  0  0  0  0  0  0  0  0  0
    0.2668    1.2118    2.5263 H   0  0  0  0  0  0  0  0  0  0  0  0
   -0.5118    3.1863    2.7135 C   0  0  0  0  0  0  0  0  0  0  0  0
   -1.4470    3.3159    3.2625 H   0  0  0  0  0  0  0  0  0  0  0  0
    0.3243    3.3682    3.3896 H   0  0  0  0  0  0  0  0  0  0  0  0
   -0.4850    3.9172    1.9023 H   0  0  0  0  0  0  0  0  0  0  0  0
  5  6  2  0  0  0  0
  5  7  1  0  0  0  0
  2  3  1  0  0  0  0
  2  4  1  0  0  0  0
  2  5  1  0  0  0  0
  1  2  1  0  0  0  0
 27 28  2  0  0  0  0
 27 29  1  0  0  0  0
 23 24  1  0  0  0  0
 23 25  1  0  0  0  0
 23 26  1  0  0  0  0
 20 21  1  0  0  0  0
 20 22  1  0  0  0  0
 20 23  1  0  0  0  0
 17 18  1  0  0  0  0
 17 19  1  0  0  0  0
 17 20  1  0  0  0  0
 14 15  1  0  0  0  0
 14 16  1  0  0  0  0
 14 17  1  0  0  0  0
 11 12  1  0  0  0  0
 11 13  1  0  0  0  0
 11 14  1  0  0  0  0
  9 10  1  0  0  0  0
  9 11  1  0  0  0  0
  9 27  1  0  0  0  0
  7  8  1  0  0  0  0
  7  9  1  0  0  0  0
 31 32  1  0  0  0  0
 31 33  1  0  0  0  0
 31 34  1  0  0  0  0
 29 30  1  0  0  0  0
 29 31  1  0  0  0  0
M  CHG  1  23   1
M  END
$$$$
default_name
  -OEChem-02102213163D

 34 33  0     1  0  0  0  0  0999 V2000
   -3.8899   -3.6747    1.6490 H   0  0  0  0  0  0  0  0  0  0  0  0
   -3.9109   -2.6717    1.2250 C   0  0  0  0  0  0  0  0  0  0  0  0
   -4.6009   -2.0517    1.7950 H   0  0  0  0  0  0  0  0  0  0  0  0
   -4.2309   -2.7237    0.1860 H   0  0  0  0  0  0  0  0  0  0  0  0
   -2.5229   -2.0787    1.2980 C   0  0  0  0  0  0  0  0  0  0  0  0
   -1.5999   -2.7227    1.7810 O   0  0  0  0  0  0  0  0  0  0  0  0
   -2.3659   -0.8447    0.8120 N   0  0  0  0  0  0  0  0  0  0  0  0
   -3.1749   -0.3807    0.4220 H   0  0  0  0  0  0  0  0  0  0  0  0
   -1.0919   -0.1077    0.8170 C   0  0  1  0  0  0  0  0  0  0  0  0
   -0.4136   -0.6011    1.5155 H   0  0  0  0  0  0  0  0  0  0  0  0
   -0.4834   -0.1723   -0.5965 C   0  0  0  0  0  0  0  0  0  0  0  0
   -0.7997   -1.1036   -1.0689 H   0  0  0  0  0  0  0  0  0  0  0  0
   -0.8682    0.6585   -1.1911 H   0  0  0  0  0  0  0  0  0  0  0  0
    1.0523   -0.1273   -0.5983 C   0  0  0  0  0  0  0  0  0  0  0  0
    1.4343   -0.5819    0.3167 H   0  0  0  0  0  0  0  0  0  0  0  0
    1.4273   -0.6865   -1.4577 H   0  0  0  0  0  0  0  0  0  0  0  0
    1.5444    1.3242   -0.6828 C   0  0  0  0  0  0  0  0  0  0  0  0
    1.1479    1.7813   -1.5926 H   0  0  0  0  0  0  0  0  0  0  0  0
    1.1745    1.8766    0.1833 H   0  0  0  0  0  0  0  0  0  0  0  0
    3.0773    1.3694   -0.7098 C   0  0  0  0  0  0  0  0  0  0  0  0
    3.4545    0.9006    0.2050 H   0  0  0  0  0  0  0  0  0  0  0  0
    3.4277    0.7758   -1.5595 H   0  0  0  0  0  0  0  0  0  0  0  0
    3.5806    2.7622   -0.8154 N   0  3  0  0  0  0  0  0  0  0  0  0
    3.2683    3.3139   -0.0262 H   0  0  0  0  0  0  0  0  0  0  0  0
    4.5928    2.7747   -0.8324 H   0  0  0  0  0  0  0  0  0  0  0  0
    3.2414    3.1978   -1.6652 H   0  0  0  0  0  0  0  0  0  0  0  0
   -1.3103    1.3348    1.2791 C   0  0  0  0  0  0  0  0  0  0  0  0
   -2.2333    1.9891    0.8084 O   0  0  0  0  0  0  0  0  0  0  0  0
   -0.4429    1.8293    2.1683 N   0  0  0  0  0  0  0  0  0  0  0  0
    0.2668    1.2118    2.5263 H   0  0  0  0  0  0  0  0  0  0  0  0
   -0.5118    3.1863    2.7135 C   0  0  0  0  0  0  0  0  0  0  0  0
   -1.4470    3.3159    3.2625 H   0  0  0  0  0  0  0  0  0  0  0  0
    0.3243    3.3682    3.3896 H   0  0  0  0  0  0  0  0  0  0  0  0
   -0.4850    3.9172    1.9023 H   0  0  0  0  0  0  0  0  0  0  0  0
  5  6  2  0  0  0  0
  5  7  1  0  0  0  0
  2  3  1  0  0  0  0
  2  4  1  0  0  0  0
  2  5  1  0  0  0  0
  1  2  1  0  0  0  0
 27 28  2  0  0  0  0
 27 29  1  0  0  0  0
 23 24  1  0  0  0  0
 23 25  1  0  0  0  0
 23 26  1  0  0  0  0
 20 21  1  0  0  0  0
 20 22  1  0  0  0  0
 20 23  1  0  0  0  0
 17 18  1  0  0  0  0
 17 19  1  0  0  0  0
 17 20  1  0  0  0  0
 14 15  1  0  0  0  0
 14 16  1  0  0  0  0
 14 17  1  0  0  0  0
 11 12  1  0  0  0  0
 11 13  1  0  0  0  0
 11 14  1  0  0  0  0
  9 10  1  0  0  0  0
  9 11  1  0  0  0  0
  9 27  1  0  0  0  0
  7  8  1  0  0  0  0
  7  9  1  0  0  0  0
 31 32  1  0  0  0  0
 31 33  1  0  0  0  0
 31 34  1  0  0  0  0
 29 30  1  0  0  0  0
 29 31  1  0  0  0  0
M  CHG  1  23   1
M  END
$$$$
default_name
  -OEChem-02102213163D

 34 33  0     1  0  0  0  0  0999 V2000
   -3.8899   -3.6747    1.6490 H   0  0  0  0  0  0  0  0  0  0  0  0
   -3.9109   -2.6717    1.2250 C   0  0  0  0  0  0  0  0  0  0  0  0
   -4.6009   -2.0517    1.7950 H   0  0  0  0  0  0  0  0  0  0  0  0
   -4.2309   -2.7237    0.1860 H   0  0  0  0  0  0  0  0  0  0  0  0
   -2.5229   -2.0787    1.2980 C   0  0  0  0  0  0  0  0  0  0  0  0
   -1.5999   -2.7227    1.7810 O   0  0  0  0  0  0  0  0  0  0  0  0
   -2.3659   -0.8447    0.8120 N   0  0  0  0  0  0  0  0  0  0  0  0
   -3.1749   -0.3807    0.4220 H   0  0  0  0  0  0  0  0  0  0  0  0
   -1.0919   -0.1077    0.8170 C   0  0  1  0  0  0  0  0  0  0  0  0
   -0.4136   -0.6011    1.5155 H   0  0  0  0  0  0  0  0  0  0  0  0
   -0.4834   -0.1723   -0.5965 C   0  0  0  0  0  0  0  0  0  0  0  0
   -0.7997   -1.1036   -1.0689 H   0  0  0  0  0  0  0  0  0  0  0  0
   -0.8682    0.6585   -1.1911 H   0  0  0  0  0  0  0  0  0  0  0  0
    1.0523   -0.1273   -0.5983 C   0  0  0  0  0  0  0  0  0  0  0  0
    1.4406   -0.8029    0.1650 H   0  0  0  0  0  0  0  0  0  0  0  0
    1.4201   -0.4449   -1.5760 H   0  0  0  0  0  0  0  0  0  0  0  0
    1.5457    1.2970   -0.3082 C   0  0  0  0  0  0  0  0  0  0  0  0
    1.1429    1.9736   -1.0657 H   0  0  0  0  0  0  0  0  0  0  0  0
    1.1831    1.6062    0.6742 H   0  0  0  0  0  0  0  0  0  0  0  0
    3.0784    1.3487   -0.3342 C   0  0  0  0  0  0  0  0  0  0  0  0
    3.4618    0.6595    0.4252 H   0  0  0  0  0  0  0  0  0  0  0  0
    3.4216    0.9954   -1.3113 H   0  0  0  0  0  0  0  0  0  0  0  0
    3.5827    2.7218   -0.0798 N   0  3  0  0  0  0  0  0  0  0  0  0
    3.2770    3.0503    0.8277 H   0  0  0  0  0  0  0  0  0  0  0  0
    4.5947    2.7388   -0.1007 H   0  0  0  0  0  0  0  0  0  0  0  0
    3.2376    3.3621   -0.7853 H   0  0  0  0  0  0  0  0  0  0  0  0
   -1.3103    1.3348    1.2791 C   0  0  0  0  0  0  0  0  0  0  0  0
   -2.2333    1.9891    0.8084 O   0  0  0  0  0  0  0  0  0  0  0  0
   -0.4429    1.8293    2.1683 N   0  0  0  0  0  0  0  0  0  0  0  0
    0.2668    1.2118    2.5263 H   0  0  0  0  0  0  0  0  0  0  0  0
   -0.5118    3.1863    2.7135 C   0  0  0  0  0  0  0  0  0  0  0  0
   -1.4470    3.3159    3.2625 H   0  0  0  0  0  0  0  0  0  0  0  0
    0.3243    3.3682    3.3896 H   0  0  0  0  0  0  0  0  0  0  0  0
   -0.4850    3.9172    1.9023 H   0  0  0  0  0  0  0  0  0  0  0  0
  5  6  2  0  0  0  0
  5  7  1  0  0  0  0
  2  3  1  0  0  0  0
  2  4  1  0  0  0  0
  2  5  1  0  0  0  0
  1  2  1  0  0  0  0
 27 28  2  0  0  0  0
 27 29  1  0  0  0  0
 23 24  1  0  0  0  0
 23 25  1  0  0  0  0
 23 26  1  0  0  0  0
 20 21  1  0  0  0  0
 20 22  1  0  0  0  0
 20 23  1  0  0  0  0
 17 18  1  0  0  0  0
 17 19  1  0  0  0  0
 17 20  1  0  0  0  0
 14 15  1  0  0  0  0
 14 16  1  0  0  0  0
 14 17  1  0  0  0  0
 11 12  1  0  0  0  0
 11 13  1  0  0  0  0
 11 14  1  0  0  0  0
  9 10  1  0  0  0  0
  9 11  1  0  0  0  0
  9 27  1  0  0  0  0
  7  8  1  0  0  0  0
  7  9  1  0  0  0  0
 31 32  1  0  0  0  0
 31 33  1  0  0  0  0
 31 34  1  0  0  0  0
 29 30  1  0  0  0  0
 29 31  1  0  0  0  0
M  CHG  1  23   1
M  END
$$$$
default_name
  -OEChem-02102213163D

 34 33  0     1  0  0  0  0  0999 V2000
   -3.8899   -3.6747    1.6490 H   0  0  0  0  0  0  0  0  0  0  0  0
   -3.9109   -2.6717    1.2250 C   0  0  0  0  0  0  0  0  0  0  0  0
   -4.6009   -2.0517    1.7950 H   0  0  0  0  0  0  0  0  0  0  0  0
   -4.2309   -2.7237    0.1860 H   0  0  0  0  0  0  0  0  0  0  0  0
   -2.5229   -2.0787    1.2980 C   0  0  0  0  0  0  0  0  0  0  0  0
   -1.5999   -2.7227    1.7810 O   0  0  0  0  0  0  0  0  0  0  0  0
   -2.3659   -0.8447    0.8120 N   0  0  0  0  0  0  0  0  0  0  0  0
   -3.1749   -0.3807    0.4220 H   0  0  0  0  0  0  0  0  0  0  0  0
   -1.0919   -0.1077    0.8170 C   0  0  1  0  0  0  0  0  0  0  0  0
   -0.4136   -0.6011    1.5155 H   0  0  0  0  0  0  0  0  0  0  0  0
   -0.4834   -0.1723   -0.5965 C   0  0  0  0  0  0  0  0  0  0  0  0
   -0.7997   -1.1036   -1.0689 H   0  0  0  0  0  0  0  0  0  0  0  0
   -0.8682    0.6585   -1.1911 H   0  0  0  0  0  0  0  0  0  0  0  0
    1.0523   -0.1273   -0.5983 C   0  0  0  0  0  0  0  0  0  0  0  0
    1.4455   -0.9771   -0.0387 H   0  0  0  0  0  0  0  0  0  0  0  0
    1.4123   -0.1809   -1.6276 H   0  0  0  0  0  0  0  0  0  0  0  0
    1.5497    1.1738    0.0467 C   0  0  0  0  0  0  0  0  0  0  0  0
    1.1421    2.0230   -0.5070 H   0  0  0  0  0  0  0  0  0  0  0  0
    1.1949    1.2181    1.0783 H   0  0  0  0  0  0  0  0  0  0  0  0
    3.0823    1.2315    0.0231 C   0  0  0  0  0  0  0  0  0  0  0  0
    3.4705    0.3695    0.5755 H   0  0  0  0  0  0  0  0  0  0  0  0
    3.4176    1.1432   -1.0146 H   0  0  0  0  0  0  0  0  0  0  0  0
    3.5903    2.4924    0.6203 N   0  3  0  0  0  0  0  0  0  0  0  0
    3.2919    2.5747    1.5841 H   0  0  0  0  0  0  0  0  0  0  0  0
    4.6021    2.5150    0.5968 H   0  0  0  0  0  0  0  0  0  0  0  0
    3.2407    3.2932    0.1071 H   0  0  0  0  0  0  0  0  0  0  0  0
   -1.3103    1.3348    1.2791 C   0  0  0  0  0  0  0  0  0  0  0  0
   -2.2333    1.9891    0.8084 O   0  0  0  0  0  0  0  0  0  0  0  0
   -0.4429    1.8293    2.1683 N   0  0  0  0  0  0  0  0  0  0  0  0
    0.2668    1.2118    2.5263 H   0  0  0  0  0  0  0  0  0  0  0  0
   -0.5118    3.1863    2.7135 C   0  0  0  0  0  0  0  0  0  0  0  0
   -1.4470    3.3159    3.2625 H   0  0  0  0  0  0  0  0  0  0  0  0
    0.3243    3.3682    3.3896 H   0  0  0  0  0  0  0  0  0  0  0  0
   -0.4850    3.9172    1.9023 H   0  0  0  0  0  0  0  0  0  0  0  0
  5  6  2  0  0  0  0
  5  7  1  0  0  0  0
  2  3  1  0  0  0  0
  2  4  1  0  0  0  0
  2  5  1  0  0  0  0
  1  2  1  0  0  0  0
 27 28  2  0  0  0  0
 27 29  1  0  0  0  0
 23 24  1  0  0  0  0
 23 25  1  0  0  0  0
 23 26  1  0  0  0  0
 20 21  1  0  0  0  0
 20 22  1  0  0  0  0
 20 23  1  0  0  0  0
 17 18  1  0  0  0  0
 17 19  1  0  0  0  0
 17 20  1  0  0  0  0
 14 15  1  0  0  0  0
 14 16  1  0  0  0  0
 14 17  1  0  0  0  0
 11 12  1  0  0  0  0
 11 13  1  0  0  0  0
 11 14  1  0  0  0  0
  9 10  1  0  0  0  0
  9 11  1  0  0  0  0
  9 27  1  0  0  0  0
  7  8  1  0  0  0  0
  7  9  1  0  0  0  0
 31 32  1  0  0  0  0
 31 33  1  0  0  0  0
 31 34  1  0  0  0  0
 29 30  1  0  0  0  0
 29 31  1  0  0  0  0
M  CHG  1  23   1
M  END
$$$$
default_name
  -OEChem-02102213163D

 34 33  0     1  0  0  0  0  0999 V2000
   -3.8899   -3.6747    1.6490 H   0  0  0  0  0  0  0  0  0  0  0  0
   -3.9109   -2.6717    1.2250 C   0  0  0  0  0  0  0  0  0  0  0  0
   -4.6009   -2.0517    1.7950 H   0  0  0  0  0  0  0  0  0  0  0  0
   -4.2309   -2.7237    0.1860 H   0  0  0  0  0  0  0  0  0  0  0  0
   -2.5229   -2.0787    1.2980 C   0  0  0  0  0  0  0  0  0  0  0  0
   -1.5999   -2.7227    1.7810 O   0  0  0  0  0  0  0  0  0  0  0  0
   -2.3659   -0.8447    0.8120 N   0  0  0  0  0  0  0  0  0  0  0  0
   -3.1749   -0.3807    0.4220 H   0  0  0  0  0  0  0  0  0  0  0  0
   -1.0919   -0.1077    0.8170 C   0  0  1  0  0  0  0  0  0  0  0  0
   -0.4136   -0.6011    1.5155 H   0  0  0  0  0  0  0  0  0  0  0  0
   -0.4834   -0.1723   -0.5965 C   0  0  0  0  0  0  0  0  0  0  0  0
   -0.7997   -1.1036   -1.0689 H   0  0  0  0  0  0  0  0  0  0  0  0
   -0.8682    0.6585   -1.1911 H   0  0  0  0  0  0  0  0  0  0  0  0
    1.0523   -0.1273   -0.5983 C   0  0  0  0  0  0  0  0  0  0  0  0
    1.4486   -1.0926   -0.2807 H   0  0  0  0  0  0  0  0  0  0  0  0
    1.4044    0.0875   -1.6092 H   0  0  0  0  0  0  0  0  0  0  0  0
    1.5563    0.9630    0.3575 C   0  0  0  0  0  0  0  0  0  0  0  0
    1.1456    1.9263    0.0455 H   0  0  0  0  0  0  0  0  0  0  0  0
    1.2094    0.7387    1.3681 H   0  0  0  0  0  0  0  0  0  0  0  0
    3.0887    1.0259    0.3380 C   0  0  0  0  0  0  0  0  0  0  0  0
    3.4799    0.0506    0.6455 H   0  0  0  0  0  0  0  0  0  0  0  0
    3.4160    1.2093   -0.6898 H   0  0  0  0  0  0  0  0  0  0  0  0
    3.6028    2.0897    1.2371 N   0  3  0  0  0  0  0  0  0  0  0  0
    3.3119    1.9197    2.1917 H   0  0  0  0  0  0  0  0  0  0  0  0
    4.6145    2.1183    1.2126 H   0  0  0  0  0  0  0  0  0  0  0  0
    3.2505    2.9958    0.9512 H   0  0  0  0  0  0  0  0  0  0  0  0
   -1.3103    1.3348    1.2791 C   0  0  0  0  0  0  0  0  0  0  0  0
   -2.2333    1.9891    0.8084 O   0  0  0  0  0  0  0  0  0  0  0  0
   -0.4429    1.8293    2.1683 N   0  0  0  0  0  0  0  0  0  0  0  0
    0.2668    1.2118    2.5263 H   0  0  0  0  0  0  0  0  0  0  0  0
   -0.5118    3.1863    2.7135 C   0  0  0  0  0  0  0  0  0  0  0  0
   -1.4470    3.3159    3.2625 H   0  0  0  0  0  0  0  0  0  0  0  0
    0.3243    3.3682    3.3896 H   0  0  0  0  0  0  0  0  0  0  0  0
   -0.4850    3.9172    1.9023 H   0  0  0  0  0  0  0  0  0  0  0  0
  5  6  2  0  0  0  0
  5  7  1  0  0  0  0
  2  3  1  0  0  0  0
  2  4  1  0  0  0  0
  2  5  1  0  0  0  0
  1  2  1  0  0  0  0
 27 28  2  0  0  0  0
 27 29  1  0  0  0  0
 23 24  1  0  0  0  0
 23 25  1  0  0  0  0
 23 26  1  0  0  0  0
 20 21  1  0  0  0  0
 20 22  1  0  0  0  0
 20 23  1  0  0  0  0
 17 18  1  0  0  0  0
 17 19  1  0  0  0  0
 17 20  1  0  0  0  0
 14 15  1  0  0  0  0
 14 16  1  0  0  0  0
 14 17  1  0  0  0  0
 11 12  1  0  0  0  0
 11 13  1  0  0  0  0
 11 14  1  0  0  0  0
  9 10  1  0  0  0  0
  9 11  1  0  0  0  0
  9 27  1  0  0  0  0
  7  8  1  0  0  0  0
  7  9  1  0  0  0  0
 31 32  1  0  0  0  0
 31 33  1  0  0  0  0
 31 34  1  0  0  0  0
 29 30  1  0  0  0  0
 29 31  1  0  0  0  0
M  CHG  1  23   1
M  END
$$$$
default_name
  -OEChem-02102213163D

 34 33  0     1  0  0  0  0  0999 V2000
   -3.8899   -3.6747    1.6490 H   0  0  0  0  0  0  0  0  0  0  0  0
   -3.9109   -2.6717    1.2250 C   0  0  0  0  0  0  0  0  0  0  0  0
   -4.6009   -2.0517    1.7950 H   0  0  0  0  0  0  0  0  0  0  0  0
   -4.2309   -2.7237    0.1860 H   0  0  0  0  0  0  0  0  0  0  0  0
   -2.5229   -2.0787    1.2980 C   0  0  0  0  0  0  0  0  0  0  0  0
   -1.5999   -2.7227    1.7810 O   0  0  0  0  0  0  0  0  0  0  0  0
   -2.3659   -0.8447    0.8120 N   0  0  0  0  0  0  0  0  0  0  0  0
   -3.1749   -0.3807    0.4220 H   0  0  0  0  0  0  0  0  0  0  0  0
   -1.0919   -0.1077    0.8170 C   0  0  1  0  0  0  0  0  0  0  0  0
   -0.4136   -0.6011    1.5155 H   0  0  0  0  0  0  0  0  0  0  0  0
   -0.4834   -0.1723   -0.5965 C   0  0  0  0  0  0  0  0  0  0  0  0
   -0.7997   -1.1036   -1.0689 H   0  0  0  0  0  0  0  0  0  0  0  0
   -0.8682    0.6585   -1.1911 H   0  0  0  0  0  0  0  0  0  0  0  0
    1.0523   -0.1273   -0.5983 C   0  0  0  0  0  0  0  0  0  0  0  0
    1.4497   -1.1417   -0.5443 H   0  0  0  0  0  0  0  0  0  0  0  0
    1.3971    0.3419   -1.5219 H   0  0  0  0  0  0  0  0  0  0  0  0
    1.5649    0.6789    0.6031 C   0  0  0  0  0  0  0  0  0  0  0  0
    1.1532    1.6898    0.5541 H   0  0  0  0  0  0  0  0  0  0  0  0
    1.2253    0.2006    1.5239 H   0  0  0  0  0  0  0  0  0  0  0  0
    3.0972    0.7458    0.5889 C   0  0  0  0  0  0  0  0  0  0  0  0
    3.4895   -0.2755    0.6306 H   0  0  0  0  0  0  0  0  0  0  0  0
    3.4170    1.1891   -0.3590 H   0  0  0  0  0  0  0  0  0  0  0  0
    3.6195    1.5411    1.7286 N   0  3  0  0  0  0  0  0  0  0  0  0
    3.3355    1.1297    2.6089 H   0  0  0  0  0  0  0  0  0  0  0  0
    4.6310    1.5758    1.7046 H   0  0  0  0  0  0  0  0  0  0  0  0
    3.2662    2.4901    1.6896 H   0  0  0  0  0  0  0  0  0  0  0  0
   -1.3103    1.3348    1.2791 C   0  0  0  0  0  0  0  0  0  0  0  0
   -2.2333    1.9891    0.8084 O   0  0  0  0  0  0  0  0  0  0  0  0
   -0.4429    1.8293    2.1683 N   0  0  0  0  0  0  0  0  0  0  0  0
    0.2668    1.2118    2.5263 H   0  0  0  0  0  0  0  0  0  0  0  0
   -0.5118    3.1863    2.7135 C   0  0  0  0  0  0  0  0  0  0  0  0
   -1.4470    3.3159    3.2625 H   0  0  0  0  0  0  0  0  0  0  0  0
    0.3243    3.3682    3.3896 H   0  0  0  0  0  0  0  0  0  0  0  0
   -0.4850    3.9172    1.9023 H   0  0  0  0  0  0  0  0  0  0  0  0
  5  6  2  0  0  0  0
  5  7  1  0  0  0  0
  2  3  1  0  0  0  0
  2  4  1  0  0  0  0
  2  5  1  0  0  0  0
  1  2  1  0  0  0  0
 27 28  2  0  0  0  0
 27 29  1  0  0  0  0
 23 24  1  0  0  0  0
 23 25  1  0  0  0  0
 23 26  1  0  0  0  0
 20 21  1  0  0  0  0
 20 22  1  0  0  0  0
 20 23  1  0  0  0  0
 17 18  1  0  0  0  0
 17 19  1  0  0  0  0
 17 20  1  0  0  0  0
 14 15  1  0  0  0  0
 14 16  1  0  0  0  0
 14 17  1  0  0  0  0
 11 12  1  0  0  0  0
 11 13  1  0  0  0  0
 11 14  1  0  0  0  0
  9 10  1  0  0  0  0
  9 11  1  0  0  0  0
  9 27  1  0  0  0  0
  7  8  1  0  0  0  0
  7  9  1  0  0  0  0
 31 32  1  0  0  0  0
 31 33  1  0  0  0  0
 31 34  1  0  0  0  0
 29 30  1  0  0  0  0
 29 31  1  0  0  0  0
M  CHG  1  23   1
M  END
$$$$
default_name
  -OEChem-02102213163D

 34 33  0     1  0  0  0  0  0999 V2000
   -3.8899   -3.6747    1.6490 H   0  0  0  0  0  0  0  0  0  0  0  0
   -3.9109   -2.6717    1.2250 C   0  0  0  0  0  0  0  0  0  0  0  0
   -4.6009   -2.0517    1.7950 H   0  0  0  0  0  0  0  0  0  0  0  0
   -4.2309   -2.7237    0.1860 H   0  0  0  0  0  0  0  0  0  0  0  0
   -2.5229   -2.0787    1.2980 C   0  0  0  0  0  0  0  0  0  0  0  0
   -1.5999   -2.7227    1.7810 O   0  0  0  0  0  0  0  0  0  0  0  0
   -2.3659   -0.8447    0.8120 N   0  0  0  0  0  0  0  0  0  0  0  0
   -3.1749   -0.3807    0.4220 H   0  0  0  0  0  0  0  0  0  0  0  0
   -1.0919   -0.1077    0.8170 C   0  0  1  0  0  0  0  0  0  0  0  0
   -0.4136   -0.6011    1.5155 H   0  0  0  0  0  0  0  0  0  0  0  0
   -0.4834   -0.1723   -0.5965 C   0  0  0  0  0  0  0  0  0  0  0  0
   -0.7997   -1.1036   -1.0689 H   0  0  0  0  0  0  0  0  0  0  0  0
   -0.8682    0.6585   -1.1911 H   0  0  0  0  0  0  0  0  0  0  0  0
    1.0523   -0.1273   -0.5983 C   0  0  0  0  0  0  0  0  0  0  0  0
    1.4488   -1.1208   -0.8116 H   0  0  0  0  0  0  0  0  0  0  0  0
    1.3907    0.5651   -1.3717 H   0  0  0  0  0  0  0  0  0  0  0  0
    1.5750    0.3410    0.7668 C   0  0  0  0  0  0  0  0  0  0  0  0
    1.1643    1.3299    0.9842 H   0  0  0  0  0  0  0  0  0  0  0  0
    1.2418   -0.3595    1.5351 H   0  0  0  0  0  0  0  0  0  0  0  0
    3.1072    0.4103    0.7587 C   0  0  0  0  0  0  0  0  0  0  0  0
    3.4985   -0.5868    0.5318 H   0  0  0  0  0  0  0  0  0  0  0  0
    3.4205    1.0840   -0.0446 H   0  0  0  0  0  0  0  0  0  0  0  0
    3.6392    0.8841    2.0614 N   0  3  0  0  0  0  0  0  0  0  0  0
    3.3613    0.2588    2.8074 H   0  0  0  0  0  0  0  0  0  0  0  0
    4.6505    0.9245    2.0394 H   0  0  0  0  0  0  0  0  0  0  0  0
    3.2868    1.8106    2.2719 H   0  0  0  0  0  0  0  0  0  0  0  0
   -1.3103    1.3348    1.2791 C   0  0  0  0  0  0  0  0  0  0  0  0
   -2.2333    1.9891    0.8084 O   0  0  0  0  0  0  0  0  0  0  0  0
   -0.4429    1.8293    2.1683 N   0  0  0  0  0  0  0  0  0  0  0  0
    0.2668    1.2118    2.5263 H   0  0  0  0  0  0  0  0  0  0  0  0
   -0.5118    3.1863    2.7135 C   0  0  0  0  0  0  0  0  0  0  0  0
   -1.4470    3.3159    3.2625 H   0  0  0  0  0  0  0  0  0  0  0  0
    0.3243    3.3682    3.3896 H   0  0  0  0  0  0  0  0  0  0  0  0
   -0.4850    3.9172    1.9023 H   0  0  0  0  0  0  0  0  0  0  0  0
  5  6  2  0  0  0  0
  5  7  1  0  0  0  0
  2  3  1  0  0  0  0
  2  4  1  0  0  0  0
  2  5  1  0  0  0  0
  1  2  1  0  0  0  0
 27 28  2  0  0  0  0
 27 29  1  0  0  0  0
 23 24  1  0  0  0  0
 23 25  1  0  0  0  0
 23 26  1  0  0  0  0
 20 21  1  0  0  0  0
 20 22  1  0  0  0  0
 20 23  1  0  0  0  0
 17 18  1  0  0  0  0
 17 19  1  0  0  0  0
 17 20  1  0  0  0  0
 14 15  1  0  0  0  0
 14 16  1  0  0  0  0
 14 17  1  0  0  0  0
 11 12  1  0  0  0  0
 11 13  1  0  0  0  0
 11 14  1  0  0  0  0
  9 10  1  0  0  0  0
  9 11  1  0  0  0  0
  9 27  1  0  0  0  0
  7  8  1  0  0  0  0
  7  9  1  0  0  0  0
 31 32  1  0  0  0  0
 31 33  1  0  0  0  0
 31 34  1  0  0  0  0
 29 30  1  0  0  0  0
 29 31  1  0  0  0  0
M  CHG  1  23   1
M  END
$$$$
default_name
  -OEChem-02102213163D

 34 33  0     1  0  0  0  0  0999 V2000
   -3.8899   -3.6747    1.6490 H   0  0  0  0  0  0  0  0  0  0  0  0
   -3.9109   -2.6717    1.2250 C   0  0  0  0  0  0  0  0  0  0  0  0
   -4.6009   -2.0517    1.7950 H   0  0  0  0  0  0  0  0  0  0  0  0
   -4.2309   -2.7237    0.1860 H   0  0  0  0  0  0  0  0  0  0  0  0
   -2.5229   -2.0787    1.2980 C   0  0  0  0  0  0  0  0  0  0  0  0
   -1.5999   -2.7227    1.7810 O   0  0  0  0  0  0  0  0  0  0  0  0
   -2.3659   -0.8447    0.8120 N   0  0  0  0  0  0  0  0  0  0  0  0
   -3.1749   -0.3807    0.4220 H   0  0  0  0  0  0  0  0  0  0  0  0
   -1.0919   -0.1077    0.8170 C   0  0  1  0  0  0  0  0  0  0  0  0
   -0.4136   -0.6011    1.5155 H   0  0  0  0  0  0  0  0  0  0  0  0
   -0.4834   -0.1723   -0.5965 C   0  0  0  0  0  0  0  0  0  0  0  0
   -0.7997   -1.1036   -1.0689 H   0  0  0  0  0  0  0  0  0  0  0  0
   -0.8682    0.6585   -1.1911 H   0  0  0  0  0  0  0  0  0  0  0  0
    1.0523   -0.1273   -0.5983 C   0  0  0  0  0  0  0  0  0  0  0  0
    1.4459   -1.0316   -1.0644 H   0  0  0  0  0  0  0  0  0  0  0  0
    1.3857    0.7418   -1.1688 H   0  0  0  0  0  0  0  0  0  0  0  0
    1.5859   -0.0277    0.8375 C   0  0  0  0  0  0  0  0  0  0  0  0
    1.1781    0.8710    1.3064 H   0  0  0  0  0  0  0  0  0  0  0  0
    1.2576   -0.9034    1.4009 H   0  0  0  0  0  0  0  0  0  0  0  0
    3.1181    0.0424    0.8358 C   0  0  0  0  0  0  0  0  0  0  0  0
    3.5064   -0.8618    0.3557 H   0  0  0  0  0  0  0  0  0  0  0  0
    3.4262    0.9012    0.2318 H   0  0  0  0  0  0  0  0  0  0  0  0
    3.6605    0.1634    2.2126 N   0  3  0  0  0  0  0  0  0  0  0  0
    3.3875   -0.6339    2.7736 H   0  0  0  0  0  0  0  0  0  0  0  0
    4.6717    0.2088    2.1941 H   0  0  0  0  0  0  0  0  0  0  0  0
    3.3110    1.0036    2.6583 H   0  0  0  0  0  0  0  0  0  0  0  0
   -1.3103    1.3348    1.2791 C   0  0  0  0  0  0  0  0  0  0  0  0
   -2.2333    1.9891    0.8084 O   0  0  0  0  0  0  0  0  0  0  0  0
   -0.4429    1.8293    2.1683 N   0  0  0  0  0  0  0  0  0  0  0  0
    0.2668    1.2118    2.5263 H   0  0  0  0  0  0  0  0  0  0  0  0
   -0.5118    3.1863    2.7135 C   0  0  0  0  0  0  0  0  0  0  0  0
   -1.4470    3.3159    3.2625 H   0  0  0  0  0  0  0  0  0  0  0  0
    0.3243    3.3682    3.3896 H   0  0  0  0  0  0  0  0  0  0  0  0
   -0.4850    3.9172    1.9023 H   0  0  0  0  0  0  0  0  0  0  0  0
  5  6  2  0  0  0  0
  5  7  1  0  0  0  0
  2  3  1  0  0  0  0
  2  4  1  0  0  0  0
  2  5  1  0  0  0  0
  1  2  1  0  0  0  0
 27 28  2  0  0  0  0
 27 29  1  0  0  0  0
 23 24  1  0  0  0  0
 23 25  1  0  0  0  0
 23 26  1  0  0  0  0
 20 21  1  0  0  0  0
 20 22  1  0  0  0  0
 20 23  1  0  0  0  0
 17 18  1  0  0  0  0
 17 19  1  0  0  0  0
 17 20  1  0  0  0  0
 14 15  1  0  0  0  0
 14 16  1  0  0  0  0
 14 17  1  0  0  0  0
 11 12  1  0  0  0  0
 11 13  1  0  0  0  0
 11 14  1  0  0  0  0
  9 10  1  0  0  0  0
  9 11  1  0  0  0  0
  9 27  1  0  0  0  0
  7  8  1  0  0  0  0
  7  9  1  0  0  0  0
 31 32  1  0  0  0  0
 31 33  1  0  0  0  0
 31 34  1  0  0  0  0
 29 30  1  0  0  0  0
 29 31  1  0  0  0  0
M  CHG  1  23   1
M  END
$$$$
default_name
  -OEChem-02102213163D

 34 33  0     1  0  0  0  0  0999 V2000
   -3.8899   -3.6747    1.6490 H   0  0  0  0  0  0  0  0  0  0  0  0
   -3.9109   -2.6717    1.2250 C   0  0  0  0  0  0  0  0  0  0  0  0
   -4.6009   -2.0517    1.7950 H   0  0  0  0  0  0  0  0  0  0  0  0
   -4.2309   -2.7237    0.1860 H   0  0  0  0  0  0  0  0  0  0  0  0
   -2.5229   -2.0787    1.2980 C   0  0  0  0  0  0  0  0  0  0  0  0
   -1.5999   -2.7227    1.7810 O   0  0  0  0  0  0  0  0  0  0  0  0
   -2.3659   -0.8447    0.8120 N   0  0  0  0  0  0  0  0  0  0  0  0
   -3.1749   -0.3807    0.4220 H   0  0  0  0  0  0  0  0  0  0  0  0
   -1.0919   -0.1077    0.8170 C   0  0  1  0  0  0  0  0  0  0  0  0
   -0.4136   -0.6011    1.5155 H   0  0  0  0  0  0  0  0  0  0  0  0
   -0.4834   -0.1723   -0.5965 C   0  0  0  0  0  0  0  0  0  0  0  0
   -0.7997   -1.1036   -1.0689 H   0  0  0  0  0  0  0  0  0  0  0  0
   -0.8682    0.6585   -1.1911 H   0  0  0  0  0  0  0  0  0  0  0  0
    1.0523   -0.1273   -0.5983 C   0  0  0  0  0  0  0  0  0  0  0  0
    1.4412   -0.8799   -1.2855 H   0  0  0  0  0  0  0  0  0  0  0  0
    1.3826    0.8601   -0.9270 H   0  0  0  0  0  0  0  0  0  0  0  0
    1.5969   -0.4022    0.8102 C   0  0  0  0  0  0  0  0  0  0  0  0
    1.1938    0.3443    1.4988 H   0  0  0  0  0  0  0  0  0  0  0  0
    1.2717   -1.3941    1.1304 H   0  0  0  0  0  0  0  0  0  0  0  0
    3.1291   -0.3330    0.8151 C   0  0  0  0  0  0  0  0  0  0  0  0
    3.5126   -1.0819    0.1145 H   0  0  0  0  0  0  0  0  0  0  0  0
    3.4337    0.6530    0.4514 H   0  0  0  0  0  0  0  0  0  0  0  0
    3.6821   -0.5719    2.1721 N   0  3  0  0  0  0  0  0  0  0  0  0
    3.4122   -1.4873    2.5098 H   0  0  0  0  0  0  0  0  0  0  0  0
    4.6932   -0.5226    2.1583 H   0  0  0  0  0  0  0  0  0  0  0  0
    3.3370    0.1242    2.8227 H   0  0  0  0  0  0  0  0  0  0  0  0
   -1.3103    1.3348    1.2791 C   0  0  0  0  0  0  0  0  0  0  0  0
   -2.2333    1.9891    0.8084 O   0  0  0  0  0  0  0  0  0  0  0  0
   -0.4429    1.8293    2.1683 N   0  0  0  0  0  0  0  0  0  0  0  0
    0.2668    1.2118    2.5263 H   0  0  0  0  0  0  0  0  0  0  0  0
   -0.5118    3.1863    2.7135 C   0  0  0  0  0  0  0  0  0  0  0  0
   -1.4470    3.3159    3.2625 H   0  0  0  0  0  0  0  0  0  0  0  0
    0.3243    3.3682    3.3896 H   0  0  0  0  0  0  0  0  0  0  0  0
   -0.4850    3.9172    1.9023 H   0  0  0  0  0  0  0  0  0  0  0  0
  5  6  2  0  0  0  0
  5  7  1  0  0  0  0
  2  3  1  0  0  0  0
  2  4  1  0  0  0  0
  2  5  1  0  0  0  0
  1  2  1  0  0  0  0
 27 28  2  0  0  0  0
 27 29  1  0  0  0  0
 23 24  1  0  0  0  0
 23 25  1  0  0  0  0
 23 26  1  0  0  0  0
 20 21  1  0  0  0  0
 20 22  1  0  0  0  0
 20 23  1  0  0  0  0
 17 18  1  0  0  0  0
 17 19  1  0  0  0  0
 17 20  1  0  0  0  0
 14 15  1  0  0  0  0
 14 16  1  0  0  0  0
 14 17  1  0  0  0  0
 11 12  1  0  0  0  0
 11 13  1  0  0  0  0
 11 14  1  0  0  0  0
  9 10  1  0  0  0  0
  9 11  1  0  0  0  0
  9 27  1  0  0  0  0
  7  8  1  0  0  0  0
  7  9  1  0  0  0  0
 31 32  1  0  0  0  0
 31 33  1  0  0  0  0
 31 34  1  0  0  0  0
 29 30  1  0  0  0  0
 29 31  1  0  0  0  0
M  CHG  1  23   1
M  END
$$$$
default_name
  -OEChem-02102213163D

 34 33  0     1  0  0  0  0  0999 V2000
   -3.8899   -3.6747    1.6490 H   0  0  0  0  0  0  0  0  0  0  0  0
   -3.9109   -2.6717    1.2250 C   0  0  0  0  0  0  0  0  0  0  0  0
   -4.6009   -2.0517    1.7950 H   0  0  0  0  0  0  0  0  0  0  0  0
   -4.2309   -2.7237    0.1860 H   0  0  0  0  0  0  0  0  0  0  0  0
   -2.5229   -2.0787    1.2980 C   0  0  0  0  0  0  0  0  0  0  0  0
   -1.5999   -2.7227    1.7810 O   0  0  0  0  0  0  0  0  0  0  0  0
   -2.3659   -0.8447    0.8120 N   0  0  0  0  0  0  0  0  0  0  0  0
   -3.1749   -0.3807    0.4220 H   0  0  0  0  0  0  0  0  0  0  0  0
   -1.0919   -0.1077    0.8170 C   0  0  1  0  0  0  0  0  0  0  0  0
   -0.4136   -0.6011    1.5155 H   0  0  0  0  0  0  0  0  0  0  0  0
   -0.4834   -0.1723   -0.5965 C   0  0  0  0  0  0  0  0  0  0  0  0
   -0.7997   -1.1036   -1.0689 H   0  0  0  0  0  0  0  0  0  0  0  0
   -0.8682    0.6585   -1.1911 H   0  0  0  0  0  0  0  0  0  0  0  0
    1.0523   -0.1273   -0.5983 C   0  0  0  0  0  0  0  0  0  0  0  0
    1.4350   -0.6763   -1.4597 H   0  0  0  0  0  0  0  0  0  0  0  0
    1.3814    0.9117   -0.6629 H   0  0  0  0  0  0  0  0  0  0  0  0
    1.6071   -0.7569    0.6869 C   0  0  0  0  0  0  0  0  0  0  0  0
    1.2103   -0.2142    1.5482 H   0  0  0  0  0  0  0  0  0  0  0  0
    1.2831   -1.7980    0.7421 H   0  0  0  0  0  0  0  0  0  0  0  0
    3.1395   -0.6902    0.6978 C   0  0  0  0  0  0  0  0  0  0  0  0
    3.5166   -1.2321   -0.1756 H   0  0  0  0  0  0  0  0  0  0  0  0
    3.4426    0.3565    0.5993 H   0  0  0  0  0  0  0  0  0  0  0  0
    3.7023   -1.2717    1.9426 N   0  3  0  0  0  0  0  0  0  0  0  0
    3.4339   -2.2435    2.0340 H   0  0  0  0  0  0  0  0  0  0  0  0
    4.7133   -1.2198    1.9343 H   0  0  0  0  0  0  0  0  0  0  0  0
    3.3631   -0.7679    2.7537 H   0  0  0  0  0  0  0  0  0  0  0  0
   -1.3103    1.3348    1.2791 C   0  0  0  0  0  0  0  0  0  0  0  0
   -2.2333    1.9891    0.8084 O   0  0  0  0  0  0  0  0  0  0  0  0
   -0.4429    1.8293    2.1683 N   0  0  0  0  0  0  0  0  0  0  0  0
    0.2668    1.2118    2.5263 H   0  0  0  0  0  0  0  0  0  0  0  0
   -0.5118    3.1863    2.7135 C   0  0  0  0  0  0  0  0  0  0  0  0
   -1.4470    3.3159    3.2625 H   0  0  0  0  0  0  0  0  0  0  0  0
    0.3243    3.3682    3.3896 H   0  0  0  0  0  0  0  0  0  0  0  0
   -0.4850    3.9172    1.9023 H   0  0  0  0  0  0  0  0  0  0  0  0
  5  6  2  0  0  0  0
  5  7  1  0  0  0  0
  2  3  1  0  0  0  0
  2  4  1  0  0  0  0
  2  5  1  0  0  0  0
  1  2  1  0  0  0  0
 27 28  2  0  0  0  0
 27 29  1  0  0  0  0
 23 24  1  0  0  0  0
 23 25  1  0  0  0  0
 23 26  1  0  0  0  0
 20 21  1  0  0  0  0
 20 22  1  0  0  0  0
 20 23  1  0  0  0  0
 17 18  1  0  0  0  0
 17 19  1  0  0  0  0
 17 20  1  0  0  0  0
 14 15  1  0  0  0  0
 14 16  1  0  0  0  0
 14 17  1  0  0  0  0
 11 12  1  0  0  0  0
 11 13  1  0  0  0  0
 11 14  1  0  0  0  0
  9 10  1  0  0  0  0
  9 11  1  0  0  0  0
  9 27  1  0  0  0  0
  7  8  1  0  0  0  0
  7  9  1  0  0  0  0
 31 32  1  0  0  0  0
 31 33  1  0  0  0  0
 31 34  1  0  0  0  0
 29 30  1  0  0  0  0
 29 31  1  0  0  0  0
M  CHG  1  23   1
M  END
$$$$
default_name
  -OEChem-02102213163D

 34 33  0     1  0  0  0  0  0999 V2000
   -3.8899   -3.6747    1.6490 H   0  0  0  0  0  0  0  0  0  0  0  0
   -3.9109   -2.6717    1.2250 C   0  0  0  0  0  0  0  0  0  0  0  0
   -4.6009   -2.0517    1.7950 H   0  0  0  0  0  0  0  0  0  0  0  0
   -4.2309   -2.7237    0.1860 H   0  0  0  0  0  0  0  0  0  0  0  0
   -2.5229   -2.0787    1.2980 C   0  0  0  0  0  0  0  0  0  0  0  0
   -1.5999   -2.7227    1.7810 O   0  0  0  0  0  0  0  0  0  0  0  0
   -2.3659   -0.8447    0.8120 N   0  0  0  0  0  0  0  0  0  0  0  0
   -3.1749   -0.3807    0.4220 H   0  0  0  0  0  0  0  0  0  0  0  0
   -1.0919   -0.1077    0.8170 C   0  0  1  0  0  0  0  0  0  0  0  0
   -0.4136   -0.6011    1.5155 H   0  0  0  0  0  0  0  0  0  0  0  0
   -0.4834   -0.1723   -0.5965 C   0  0  0  0  0  0  0  0  0  0  0  0
   -0.7997   -1.1036   -1.0689 H   0  0  0  0  0  0  0  0  0  0  0  0
   -0.8682    0.6585   -1.1911 H   0  0  0  0  0  0  0  0  0  0  0  0
    1.0523   -0.1273   -0.5983 C   0  0  0  0  0  0  0  0  0  0  0  0
    1.4277   -0.4345   -1.5753 H   0  0  0  0  0  0  0  0  0  0  0  0
    1.3822    0.8933   -0.3945 H   0  0  0  0  0  0  0  0  0  0  0  0
    1.6160   -1.0675    0.4760 C   0  0  0  0  0  0  0  0  0  0  0  0
    1.2264   -0.7665    1.4514 H   0  0  0  0  0  0  0  0  0  0  0  0
    1.2910   -2.0877    0.2624 H   0  0  0  0  0  0  0  0  0  0  0  0
    3.1485   -1.0049    0.4921 C   0  0  0  0  0  0  0  0  0  0  0  0
    3.5183   -1.3022   -0.4946 H   0  0  0  0  0  0  0  0  0  0  0  0
    3.4522    0.0319    0.6654 H   0  0  0  0  0  0  0  0  0  0  0  0
    3.7199   -1.8883    1.5397 N   0  3  0  0  0  0  0  0  0  0  0  0
    3.4509   -2.8508    1.3787 H   0  0  0  0  0  0  0  0  0  0  0  0
    4.7309   -1.8353    1.5374 H   0  0  0  0  0  0  0  0  0  0  0  0
    3.3875   -1.6117    2.4561 H   0  0  0  0  0  0  0  0  0  0  0  0
   -1.3103    1.3348    1.2791 C   0  0  0  0  0  0  0  0  0  0  0  0
   -2.2333    1.9891    0.8084 O   0  0  0  0  0  0  0  0  0  0  0  0
   -0.4429    1.8293    2.1683 N   0  0  0  0  0  0  0  0  0  0  0  0
    0.2668    1.2118    2.5263 H   0  0  0  0  0  0  0  0  0  0  0  0
   -0.5118    3.1863    2.7135 C   0  0  0  0  0  0  0  0  0  0  0  0
   -1.4470    3.3159    3.2625 H   0  0  0  0  0  0  0  0  0  0  0  0
    0.3243    3.3682    3.3896 H   0  0  0  0  0  0  0  0  0  0  0  0
   -0.4850    3.9172    1.9023 H   0  0  0  0  0  0  0  0  0  0  0  0
  5  6  2  0  0  0  0
  5  7  1  0  0  0  0
  2  3  1  0  0  0  0
  2  4  1  0  0  0  0
  2  5  1  0  0  0  0
  1  2  1  0  0  0  0
 27 28  2  0  0  0  0
 27 29  1  0  0  0  0
 23 24  1  0  0  0  0
 23 25  1  0  0  0  0
 23 26  1  0  0  0  0
 20 21  1  0  0  0  0
 20 22  1  0  0  0  0
 20 23  1  0  0  0  0
 17 18  1  0  0  0  0
 17 19  1  0  0  0  0
 17 20  1  0  0  0  0
 14 15  1  0  0  0  0
 14 16  1  0  0  0  0
 14 17  1  0  0  0  0
 11 12  1  0  0  0  0
 11 13  1  0  0  0  0
 11 14  1  0  0  0  0
  9 10  1  0  0  0  0
  9 11  1  0  0  0  0
  9 27  1  0  0  0  0
  7  8  1  0  0  0  0
  7  9  1  0  0  0  0
 31 32  1  0  0  0  0
 31 33  1  0  0  0  0
 31 34  1  0  0  0  0
 29 30  1  0  0  0  0
 29 31  1  0  0  0  0
M  CHG  1  23   1
M  END
$$$$
default_name
  -OEChem-02102213163D

 34 33  0     1  0  0  0  0  0999 V2000
   -3.8899   -3.6747    1.6490 H   0  0  0  0  0  0  0  0  0  0  0  0
   -3.9109   -2.6717    1.2250 C   0  0  0  0  0  0  0  0  0  0  0  0
   -4.6009   -2.0517    1.7950 H   0  0  0  0  0  0  0  0  0  0  0  0
   -4.2309   -2.7237    0.1860 H   0  0  0  0  0  0  0  0  0  0  0  0
   -2.5229   -2.0787    1.2980 C   0  0  0  0  0  0  0  0  0  0  0  0
   -1.5999   -2.7227    1.7810 O   0  0  0  0  0  0  0  0  0  0  0  0
   -2.3659   -0.8447    0.8120 N   0  0  0  0  0  0  0  0  0  0  0  0
   -3.1749   -0.3807    0.4220 H   0  0  0  0  0  0  0  0  0  0  0  0
   -1.0919   -0.1077    0.8170 C   0  0  1  0  0  0  0  0  0  0  0  0
   -0.4136   -0.6011    1.5155 H   0  0  0  0  0  0  0  0  0  0  0  0
   -0.4834   -0.1723   -0.5965 C   0  0  0  0  0  0  0  0  0  0  0  0
   -0.7997   -1.1036   -1.0689 H   0  0  0  0  0  0  0  0  0  0  0  0
   -0.8682    0.6585   -1.1911 H   0  0  0  0  0  0  0  0  0  0  0  0
    1.0523   -0.1273   -0.5983 C   0  0  0  0  0  0  0  0  0  0  0  0
    1.4200   -0.1710   -1.6244 H   0  0  0  0  0  0  0  0  0  0  0  0
    1.3851    0.8060   -0.1399 H   0  0  0  0  0  0  0  0  0  0  0  0
    1.6229   -1.3131    0.1918 C   0  0  0  0  0  0  0  0  0  0  0  0
    1.2410   -1.2749    1.2149 H   0  0  0  0  0  0  0  0  0  0  0  0
    1.2949   -2.2435   -0.2759 H   0  0  0  0  0  0  0  0  0  0  0  0
    3.1555   -1.2557    0.2119 C   0  0  0  0  0  0  0  0  0  0  0  0
    3.5175   -1.2873   -0.8210 H   0  0  0  0  0  0  0  0  0  0  0  0
    3.4619   -0.2988    0.6452 H   0  0  0  0  0  0  0  0  0  0  0  0
    3.7337   -2.3796    0.9909 N   0  3  0  0  0  0  0  0  0  0  0  0
    3.4622   -3.2679    0.5884 H   0  0  0  0  0  0  0  0  0  0  0  0
    4.7447   -2.3271    0.9947 H   0  0  0  0  0  0  0  0  0  0  0  0
    3.4086   -2.3497    1.9502 H   0  0  0  0  0  0  0  0  0  0  0  0
   -1.3103    1.3348    1.2791 C   0  0  0  0  0  0  0  0  0  0  0  0
   -2.2333    1.9891    0.8084 O   0  0  0  0  0  0  0  0  0  0  0  0
   -0.4429    1.8293    2.1683 N   0  0  0  0  0  0  0  0  0  0  0  0
    0.2668    1.2118    2.5263 H   0  0  0  0  0  0  0  0  0  0  0  0
   -0.5118    3.1863    2.7135 C   0  0  0  0  0  0  0  0  0  0  0  0
   -1.4470    3.3159    3.2625 H   0  0  0  0  0  0  0  0  0  0  0  0
    0.3243    3.3682    3.3896 H   0  0  0  0  0  0  0  0  0  0  0  0
   -0.4850    3.9172    1.9023 H   0  0  0  0  0  0  0  0  0  0  0  0
  5  6  2  0  0  0  0
  5  7  1  0  0  0  0
  2  3  1  0  0  0  0
  2  4  1  0  0  0  0
  2  5  1  0  0  0  0
  1  2  1  0  0  0  0
 27 28  2  0  0  0  0
 27 29  1  0  0  0  0
 23 24  1  0  0  0  0
 23 25  1  0  0  0  0
 23 26  1  0  0  0  0
 20 21  1  0  0  0  0
 20 22  1  0  0  0  0
 20 23  1  0  0  0  0
 17 18  1  0  0  0  0
 17 19  1  0  0  0  0
 17 20  1  0  0  0  0
 14 15  1  0  0  0  0
 14 16  1  0  0  0  0
 14 17  1  0  0  0  0
 11 12  1  0  0  0  0
 11 13  1  0  0  0  0
 11 14  1  0  0  0  0
  9 10  1  0  0  0  0
  9 11  1  0  0  0  0
  9 27  1  0  0  0  0
  7  8  1  0  0  0  0
  7  9  1  0  0  0  0
 31 32  1  0  0  0  0
 31 33  1  0  0  0  0
 31 34  1  0  0  0  0
 29 30  1  0  0  0  0
 29 31  1  0  0  0  0
M  CHG  1  23   1
M  END
$$$$
default_name
  -OEChem-02102213163D

 34 33  0     1  0  0  0  0  0999 V2000
   -3.8899   -3.6747    1.6490 H   0  0  0  0  0  0  0  0  0  0  0  0
   -3.9109   -2.6717    1.2250 C   0  0  0  0  0  0  0  0  0  0  0  0
   -4.6009   -2.0517    1.7950 H   0  0  0  0  0  0  0  0  0  0  0  0
   -4.2309   -2.7237    0.1860 H   0  0  0  0  0  0  0  0  0  0  0  0
   -2.5229   -2.0787    1.2980 C   0  0  0  0  0  0  0  0  0  0  0  0
   -1.5999   -2.7227    1.7810 O   0  0  0  0  0  0  0  0  0  0  0  0
   -2.3659   -0.8447    0.8120 N   0  0  0  0  0  0  0  0  0  0  0  0
   -3.1749   -0.3807    0.4220 H   0  0  0  0  0  0  0  0  0  0  0  0
   -1.0919   -0.1077    0.8170 C   0  0  1  0  0  0  0  0  0  0  0  0
   -0.4136   -0.6011    1.5155 H   0  0  0  0  0  0  0  0  0  0  0  0
   -0.4834   -0.1723   -0.5965 C   0  0  0  0  0  0  0  0  0  0  0  0
   -0.7997   -1.1036   -1.0689 H   0  0  0  0  0  0  0  0  0  0  0  0
   -0.8682    0.6585   -1.1911 H   0  0  0  0  0  0  0  0  0  0  0  0
    1.0523   -0.1273   -0.5983 C   0  0  0  0  0  0  0  0  0  0  0  0
    1.4121    0.0962   -1.6036 H   0  0  0  0  0  0  0  0  0  0  0  0
    1.3898    0.6559    0.0834 H   0  0  0  0  0  0  0  0  0  0  0  0
    1.6273   -1.4767   -0.1462 C   0  0  0  0  0  0  0  0  0  0  0  0
    1.2532   -1.7047    0.8547 H   0  0  0  0  0  0  0  0  0  0  0  0
    1.2946   -2.2547   -0.8363 H   0  0  0  0  0  0  0  0  0  0  0  0
    3.1601   -1.4254   -0.1237 C   0  0  0  0  0  0  0  0  0  0  0  0
    3.5142   -1.1885   -1.1323 H   0  0  0  0  0  0  0  0  0  0  0  0
    3.4710   -0.6131    0.5401 H   0  0  0  0  0  0  0  0  0  0  0  0
    3.7427   -2.7122    0.3336 N   0  3  0  0  0  0  0  0  0  0  0  0
    3.4670   -3.4663   -0.2830 H   0  0  0  0  0  0  0  0  0  0  0  0
    4.7538   -2.6618    0.3431 H   0  0  0  0  0  0  0  0  0  0  0  0
    3.4248   -2.9318    1.2704 H   0  0  0  0  0  0  0  0  0  0  0  0
   -1.3103    1.3348    1.2791 C   0  0  0  0  0  0  0  0  0  0  0  0
   -2.2333    1.9891    0.8084 O   0  0  0  0  0  0  0  0  0  0  0  0
   -0.4429    1.8293    2.1683 N   0  0  0  0  0  0  0  0  0  0  0  0
    0.2668    1.2118    2.5263 H   0  0  0  0  0  0  0  0  0  0  0  0
   -0.5118    3.1863    2.7135 C   0  0  0  0  0  0  0  0  0  0  0  0
   -1.4470    3.3159    3.2625 H   0  0  0  0  0  0  0  0  0  0  0  0
    0.3243    3.3682    3.3896 H   0  0  0  0  0  0  0  0  0  0  0  0
   -0.4850    3.9172    1.9023 H   0  0  0  0  0  0  0  0  0  0  0  0
  5  6  2  0  0  0  0
  5  7  1  0  0  0  0
  2  3  1  0  0  0  0
  2  4  1  0  0  0  0
  2  5  1  0  0  0  0
  1  2  1  0  0  0  0
 27 28  2  0  0  0  0
 27 29  1  0  0  0  0
 23 24  1  0  0  0  0
 23 25  1  0  0  0  0
 23 26  1  0  0  0  0
 20 21  1  0  0  0  0
 20 22  1  0  0  0  0
 20 23  1  0  0  0  0
 17 18  1  0  0  0  0
 17 19  1  0  0  0  0
 17 20  1  0  0  0  0
 14 15  1  0  0  0  0
 14 16  1  0  0  0  0
 14 17  1  0  0  0  0
 11 12  1  0  0  0  0
 11 13  1  0  0  0  0
 11 14  1  0  0  0  0
  9 10  1  0  0  0  0
  9 11  1  0  0  0  0
  9 27  1  0  0  0  0
  7  8  1  0  0  0  0
  7  9  1  0  0  0  0
 31 32  1  0  0  0  0
 31 33  1  0  0  0  0
 31 34  1  0  0  0  0
 29 30  1  0  0  0  0
 29 31  1  0  0  0  0
M  CHG  1  23   1
M  END
$$$$
default_name
  -OEChem-02102213163D

 34 33  0     1  0  0  0  0  0999 V2000
   -3.8899   -3.6747    1.6490 H   0  0  0  0  0  0  0  0  0  0  0  0
   -3.9109   -2.6717    1.2250 C   0  0  0  0  0  0  0  0  0  0  0  0
   -4.6009   -2.0517    1.7950 H   0  0  0  0  0  0  0  0  0  0  0  0
   -4.2309   -2.7237    0.1860 H   0  0  0  0  0  0  0  0  0  0  0  0
   -2.5229   -2.0787    1.2980 C   0  0  0  0  0  0  0  0  0  0  0  0
   -1.5999   -2.7227    1.7810 O   0  0  0  0  0  0  0  0  0  0  0  0
   -2.3659   -0.8447    0.8120 N   0  0  0  0  0  0  0  0  0  0  0  0
   -3.1749   -0.3807    0.4220 H   0  0  0  0  0  0  0  0  0  0  0  0
   -1.0919   -0.1077    0.8170 C   0  0  1  0  0  0  0  0  0  0  0  0
   -0.4136   -0.6011    1.5155 H   0  0  0  0  0  0  0  0  0  0  0  0
   -0.4834   -0.1723   -0.5965 C   0  0  0  0  0  0  0  0  0  0  0  0
   -0.7997   -1.1036   -1.0689 H   0  0  0  0  0  0  0  0  0  0  0  0
   -0.8682    0.6585   -1.1911 H   0  0  0  0  0  0  0  0  0  0  0  0
    1.0523   -0.1273   -0.5983 C   0  0  0  0  0  0  0  0  0  0  0  0
    1.4048    0.3489   -1.5142 H   0  0  0  0  0  0  0  0  0  0  0  0
    1.3959    0.4531    0.2602 H   0  0  0  0  0  0  0  0  0  0  0  0
    1.6289   -1.5474   -0.5151 C   0  0  0  0  0  0  0  0  0  0  0  0
    1.2621   -2.0268    0.3956 H   0  0  0  0  0  0  0  0  0  0  0  0
    1.2900   -2.1205   -1.3804 H   0  0  0  0  0  0  0  0  0  0  0  0
    3.1619   -1.5026   -0.4918 C   0  0  0  0  0  0  0  0  0  0  0  0
    3.5087   -1.0125   -1.4074 H   0  0  0  0  0  0  0  0  0  0  0  0
    3.4789   -0.8894    0.3571 H   0  0  0  0  0  0  0  0  0  0  0  0
    3.7462   -2.8635   -0.3874 N   0  3  0  0  0  0  0  0  0  0  0  0
    3.4649   -3.4326   -1.1760 H   0  0  0  0  0  0  0  0  0  0  0  0
    4.7575   -2.8165   -0.3729 H   0  0  0  0  0  0  0  0  0  0  0  0
    3.4352   -3.3181    0.4631 H   0  0  0  0  0  0  0  0  0  0  0  0
   -1.3103    1.3348    1.2791 C   0  0  0  0  0  0  0  0  0  0  0  0
   -2.2333    1.9891    0.8084 O   0  0  0  0  0  0  0  0  0  0  0  0
   -0.4429    1.8293    2.1683 N   0  0  0  0  0  0  0  0  0  0  0  0
    0.2668    1.2118    2.5263 H   0  0  0  0  0  0  0  0  0  0  0  0
   -0.5118    3.1863    2.7135 C   0  0  0  0  0  0  0  0  0  0  0  0
   -1.4470    3.3159    3.2625 H   0  0  0  0  0  0  0  0  0  0  0  0
    0.3243    3.3682    3.3896 H   0  0  0  0  0  0  0  0  0  0  0  0
   -0.4850    3.9172    1.9023 H   0  0  0  0  0  0  0  0  0  0  0  0
  5  6  2  0  0  0  0
  5  7  1  0  0  0  0
  2  3  1  0  0  0  0
  2  4  1  0  0  0  0
  2  5  1  0  0  0  0
  1  2  1  0  0  0  0
 27 28  2  0  0  0  0
 27 29  1  0  0  0  0
 23 24  1  0  0  0  0
 23 25  1  0  0  0  0
 23 26  1  0  0  0  0
 20 21  1  0  0  0  0
 20 22  1  0  0  0  0
 20 23  1  0  0  0  0
 17 18  1  0  0  0  0
 17 19  1  0  0  0  0
 17 20  1  0  0  0  0
 14 15  1  0  0  0  0
 14 16  1  0  0  0  0
 14 17  1  0  0  0  0
 11 12  1  0  0  0  0
 11 13  1  0  0  0  0
 11 14  1  0  0  0  0
  9 10  1  0  0  0  0
  9 11  1  0  0  0  0
  9 27  1  0  0  0  0
  7  8  1  0  0  0  0
  7  9  1  0  0  0  0
 31 32  1  0  0  0  0
 31 33  1  0  0  0  0
 31 34  1  0  0  0  0
 29 30  1  0  0  0  0
 29 31  1  0  0  0  0
M  CHG  1  23   1
M  END
$$$$
default_name
  -OEChem-02102213163D

 34 33  0     1  0  0  0  0  0999 V2000
   -3.8899   -3.6747    1.6490 H   0  0  0  0  0  0  0  0  0  0  0  0
   -3.9109   -2.6717    1.2250 C   0  0  0  0  0  0  0  0  0  0  0  0
   -4.6009   -2.0517    1.7950 H   0  0  0  0  0  0  0  0  0  0  0  0
   -4.2309   -2.7237    0.1860 H   0  0  0  0  0  0  0  0  0  0  0  0
   -2.5229   -2.0787    1.2980 C   0  0  0  0  0  0  0  0  0  0  0  0
   -1.5999   -2.7227    1.7810 O   0  0  0  0  0  0  0  0  0  0  0  0
   -2.3659   -0.8447    0.8120 N   0  0  0  0  0  0  0  0  0  0  0  0
   -3.1749   -0.3807    0.4220 H   0  0  0  0  0  0  0  0  0  0  0  0
   -1.0919   -0.1077    0.8170 C   0  0  1  0  0  0  0  0  0  0  0  0
   -0.4136   -0.6011    1.5155 H   0  0  0  0  0  0  0  0  0  0  0  0
   -0.4834   -0.1723   -0.5965 C   0  0  0  0  0  0  0  0  0  0  0  0
   -0.7997   -1.1036   -1.0689 H   0  0  0  0  0  0  0  0  0  0  0  0
   -0.8682    0.6585   -1.1911 H   0  0  0  0  0  0  0  0  0  0  0  0
    1.0523   -0.1273   -0.5983 C   0  0  0  0  0  0  0  0  0  0  0  0
    1.3985    0.5699   -1.3625 H   0  0  0  0  0  0  0  0  0  0  0  0
    1.4032    0.2115    0.3785 H   0  0  0  0  0  0  0  0  0  0  0  0
    1.6277   -1.5201   -0.8898 C   0  0  0  0  0  0  0  0  0  0  0  0
    1.2671   -2.2191   -0.1313 H   0  0  0  0  0  0  0  0  0  0  0  0
    1.2815   -1.8502   -1.8712 H   0  0  0  0  0  0  0  0  0  0  0  0
    3.1608   -1.4818   -0.8674 C   0  0  0  0  0  0  0  0  0  0  0  0
    3.5014   -0.7714   -1.6276 H   0  0  0  0  0  0  0  0  0  0  0  0
    3.4850   -1.1089    0.1089 H   0  0  0  0  0  0  0  0  0  0  0  0
    3.7442   -2.8230   -1.1231 N   0  3  0  0  0  0  0  0  0  0  0  0
    3.4562   -3.1689   -2.0298 H   0  0  0  0  0  0  0  0  0  0  0  0
    4.7555   -2.7807   -1.1046 H   0  0  0  0  0  0  0  0  0  0  0  0
    3.4390   -3.4824   -0.4168 H   0  0  0  0  0  0  0  0  0  0  0  0
   -1.3103    1.3348    1.2791 C   0  0  0  0  0  0  0  0  0  0  0  0
   -2.2333    1.9891    0.8084 O   0  0  0  0  0  0  0  0  0  0  0  0
   -0.4429    1.8293    2.1683 N   0  0  0  0  0  0  0  0  0  0  0  0
    0.2668    1.2118    2.5263 H   0  0  0  0  0  0  0  0  0  0  0  0
   -0.5118    3.1863    2.7135 C   0  0  0  0  0  0  0  0  0  0  0  0
   -1.4470    3.3159    3.2625 H   0  0  0  0  0  0  0  0  0  0  0  0
    0.3243    3.3682    3.3896 H   0  0  0  0  0  0  0  0  0  0  0  0
   -0.4850    3.9172    1.9023 H   0  0  0  0  0  0  0  0  0  0  0  0
  5  6  2  0  0  0  0
  5  7  1  0  0  0  0
  2  3  1  0  0  0  0
  2  4  1  0  0  0  0
  2  5  1  0  0  0  0
  1  2  1  0  0  0  0
 27 28  2  0  0  0  0
 27 29  1  0  0  0  0
 23 24  1  0  0  0  0
 23 25  1  0  0  0  0
 23 26  1  0  0  0  0
 20 21  1  0  0  0  0
 20 22  1  0  0  0  0
 20 23  1  0  0  0  0
 17 18  1  0  0  0  0
 17 19  1  0  0  0  0
 17 20  1  0  0  0  0
 14 15  1  0  0  0  0
 14 16  1  0  0  0  0
 14 17  1  0  0  0  0
 11 12  1  0  0  0  0
 11 13  1  0  0  0  0
 11 14  1  0  0  0  0
  9 10  1  0  0  0  0
  9 11  1  0  0  0  0
  9 27  1  0  0  0  0
  7  8  1  0  0  0  0
  7  9  1  0  0  0  0
 31 32  1  0  0  0  0
 31 33  1  0  0  0  0
 31 34  1  0  0  0  0
 29 30  1  0  0  0  0
 29 31  1  0  0  0  0
M  CHG  1  23   1
M  END
$$$$
default_name
  -OEChem-02102213163D

 34 33  0     1  0  0  0  0  0999 V2000
   -3.8899   -3.6747    1.6490 H   0  0  0  0  0  0  0  0  0  0  0  0
   -3.9109   -2.6717    1.2250 C   0  0  0  0  0  0  0  0  0  0  0  0
   -4.6009   -2.0517    1.7950 H   0  0  0  0  0  0  0  0  0  0  0  0
   -4.2309   -2.7237    0.1860 H   0  0  0  0  0  0  0  0  0  0  0  0
   -2.5229   -2.0787    1.2980 C   0  0  0  0  0  0  0  0  0  0  0  0
   -1.5999   -2.7227    1.7810 O   0  0  0  0  0  0  0  0  0  0  0  0
   -2.3659   -0.8447    0.8120 N   0  0  0  0  0  0  0  0  0  0  0  0
   -3.1749   -0.3807    0.4220 H   0  0  0  0  0  0  0  0  0  0  0  0
   -1.0919   -0.1077    0.8170 C   0  0  1  0  0  0  0  0  0  0  0  0
   -0.4136   -0.6011    1.5155 H   0  0  0  0  0  0  0  0  0  0  0  0
   -0.4834   -0.1723   -0.5965 C   0  0  0  0  0  0  0  0  0  0  0  0
   -0.7997   -1.1036   -1.0689 H   0  0  0  0  0  0  0  0  0  0  0  0
   -0.8682    0.6585   -1.1911 H   0  0  0  0  0  0  0  0  0  0  0  0
    1.0523   -0.1273   -0.5983 C   0  0  0  0  0  0  0  0  0  0  0  0
    1.3937    0.7441   -1.1588 H   0  0  0  0  0  0  0  0  0  0  0  0
    1.4110   -0.0525    0.4301 H   0  0  0  0  0  0  0  0  0  0  0  0
    1.6236   -1.3969   -1.2446 C   0  0  0  0  0  0  0  0  0  0  0  0
    1.2679   -2.2686   -0.6900 H   0  0  0  0  0  0  0  0  0  0  0  0
    1.2696   -1.4621   -2.2753 H   0  0  0  0  0  0  0  0  0  0  0  0
    3.1570   -1.3647   -1.2247 C   0  0  0  0  0  0  0  0  0  0  0  0
    3.4927   -0.4815   -1.7779 H   0  0  0  0  0  0  0  0  0  0  0  0
    3.4890   -1.2568   -0.1877 H   0  0  0  0  0  0  0  0  0  0  0  0
    3.7366   -2.5936   -1.8231 N   0  3  0  0  0  0  0  0  0  0  0  0
    3.4413   -2.6934   -2.7863 H   0  0  0  0  0  0  0  0  0  0  0  0
    4.7481   -2.5568   -1.8021 H   0  0  0  0  0  0  0  0  0  0  0  0
    3.4359   -3.4135   -1.3092 H   0  0  0  0  0  0  0  0  0  0  0  0
   -1.3103    1.3348    1.2791 C   0  0  0  0  0  0  0  0  0  0  0  0
   -2.2333    1.9891    0.8084 O   0  0  0  0  0  0  0  0  0  0  0  0
   -0.4429    1.8293    2.1683 N   0  0  0  0  0  0  0  0  0  0  0  0
    0.2668    1.2118    2.5263 H   0  0  0  0  0  0  0  0  0  0  0  0
   -0.5118    3.1863    2.7135 C   0  0  0  0  0  0  0  0  0  0  0  0
   -1.4470    3.3159    3.2625 H   0  0  0  0  0  0  0  0  0  0  0  0
    0.3243    3.3682    3.3896 H   0  0  0  0  0  0  0  0  0  0  0  0
   -0.4850    3.9172    1.9023 H   0  0  0  0  0  0  0  0  0  0  0  0
  5  6  2  0  0  0  0
  5  7  1  0  0  0  0
  2  3  1  0  0  0  0
  2  4  1  0  0  0  0
  2  5  1  0  0  0  0
  1  2  1  0  0  0  0
 27 28  2  0  0  0  0
 27 29  1  0  0  0  0
 23 24  1  0  0  0  0
 23 25  1  0  0  0  0
 23 26  1  0  0  0  0
 20 21  1  0  0  0  0
 20 22  1  0  0  0  0
 20 23  1  0  0  0  0
 17 18  1  0  0  0  0
 17 19  1  0  0  0  0
 17 20  1  0  0  0  0
 14 15  1  0  0  0  0
 14 16  1  0  0  0  0
 14 17  1  0  0  0  0
 11 12  1  0  0  0  0
 11 13  1  0  0  0  0
 11 14  1  0  0  0  0
  9 10  1  0  0  0  0
  9 11  1  0  0  0  0
  9 27  1  0  0  0  0
  7  8  1  0  0  0  0
  7  9  1  0  0  0  0
 31 32  1  0  0  0  0
 31 33  1  0  0  0  0
 31 34  1  0  0  0  0
 29 30  1  0  0  0  0
 29 31  1  0  0  0  0
M  CHG  1  23   1
M  END
$$$$
default_name
  -OEChem-02102213163D

 34 33  0     1  0  0  0  0  0999 V2000
   -3.8899   -3.6747    1.6490 H   0  0  0  0  0  0  0  0  0  0  0  0
   -3.9109   -2.6717    1.2250 C   0  0  0  0  0  0  0  0  0  0  0  0
   -4.6009   -2.0517    1.7950 H   0  0  0  0  0  0  0  0  0  0  0  0
   -4.2309   -2.7237    0.1860 H   0  0  0  0  0  0  0  0  0  0  0  0
   -2.5229   -2.0787    1.2980 C   0  0  0  0  0  0  0  0  0  0  0  0
   -1.5999   -2.7227    1.7810 O   0  0  0  0  0  0  0  0  0  0  0  0
   -2.3659   -0.8447    0.8120 N   0  0  0  0  0  0  0  0  0  0  0  0
   -3.1749   -0.3807    0.4220 H   0  0  0  0  0  0  0  0  0  0  0  0
   -1.0919   -0.1077    0.8170 C   0  0  1  0  0  0  0  0  0  0  0  0
   -0.4136   -0.6011    1.5155 H   0  0  0  0  0  0  0  0  0  0  0  0
   -0.4834   -0.1723   -0.5965 C   0  0  0  0  0  0  0  0  0  0  0  0
   -0.7997   -1.1036   -1.0689 H   0  0  0  0  0  0  0  0  0  0  0  0
   -0.8682    0.6585   -1.1911 H   0  0  0  0  0  0  0  0  0  0  0  0
    1.0523   -0.1273   -0.5983 C   0  0  0  0  0  0  0  0  0  0  0  0
    1.3906    0.8597   -0.9168 H   0  0  0  0  0  0  0  0  0  0  0  0
    1.4188   -0.3209    0.4117 H   0  0  0  0  0  0  0  0  0  0  0  0
    1.6171   -1.1861   -1.5554 C   0  0  0  0  0  0  0  0  0  0  0  0
    1.2644   -2.1718   -1.2425 H   0  0  0  0  0  0  0  0  0  0  0  0
    1.2552   -0.9826   -2.5652 H   0  0  0  0  0  0  0  0  0  0  0  0
    3.1505   -1.1590   -1.5396 C   0  0  0  0  0  0  0  0  0  0  0  0
    3.4832   -0.1625   -1.8480 H   0  0  0  0  0  0  0  0  0  0  0  0
    3.4906   -1.3229   -0.5125 H   0  0  0  0  0  0  0  0  0  0  0  0
    3.7241   -2.1909   -2.4400 N   0  3  0  0  0  0  0  0  0  0  0  0
    3.4213   -2.0383   -3.3939 H   0  0  0  0  0  0  0  0  0  0  0  0
    4.7357   -2.1601   -2.4178 H   0  0  0  0  0  0  0  0  0  0  0  0
    3.4261   -3.1161   -2.1533 H   0  0  0  0  0  0  0  0  0  0  0  0
   -1.3103    1.3348    1.2791 C   0  0  0  0  0  0  0  0  0  0  0  0
   -2.2333    1.9891    0.8084 O   0  0  0  0  0  0  0  0  0  0  0  0
   -0.4429    1.8293    2.1683 N   0  0  0  0  0  0  0  0  0  0  0  0
    0.2668    1.2118    2.5263 H   0  0  0  0  0  0  0  0  0  0  0  0
   -0.5118    3.1863    2.7135 C   0  0  0  0  0  0  0  0  0  0  0  0
   -1.4470    3.3159    3.2625 H   0  0  0  0  0  0  0  0  0  0  0  0
    0.3243    3.3682    3.3896 H   0  0  0  0  0  0  0  0  0  0  0  0
   -0.4850    3.9172    1.9023 H   0  0  0  0  0  0  0  0  0  0  0  0
  5  6  2  0  0  0  0
  5  7  1  0  0  0  0
  2  3  1  0  0  0  0
  2  4  1  0  0  0  0
  2  5  1  0  0  0  0
  1  2  1  0  0  0  0
 27 28  2  0  0  0  0
 27 29  1  0  0  0  0
 23 24  1  0  0  0  0
 23 25  1  0  0  0  0
 23 26  1  0  0  0  0
 20 21  1  0  0  0  0
 20 22  1  0  0  0  0
 20 23  1  0  0  0  0
 17 18  1  0  0  0  0
 17 19  1  0  0  0  0
 17 20  1  0  0  0  0
 14 15  1  0  0  0  0
 14 16  1  0  0  0  0
 14 17  1  0  0  0  0
 11 12  1  0  0  0  0
 11 13  1  0  0  0  0
 11 14  1  0  0  0  0
  9 10  1  0  0  0  0
  9 11  1  0  0  0  0
  9 27  1  0  0  0  0
  7  8  1  0  0  0  0
  7  9  1  0  0  0  0
 31 32  1  0  0  0  0
 31 33  1  0  0  0  0
 31 34  1  0  0  0  0
 29 30  1  0  0  0  0
 29 31  1  0  0  0  0
M  CHG  1  23   1
M  END
$$$$
default_name
  -OEChem-02102213163D

 34 33  0     1  0  0  0  0  0999 V2000
   -3.8899   -3.6747    1.6490 H   0  0  0  0  0  0  0  0  0  0  0  0
   -3.9109   -2.6717    1.2250 C   0  0  0  0  0  0  0  0  0  0  0  0
   -4.6009   -2.0517    1.7950 H   0  0  0  0  0  0  0  0  0  0  0  0
   -4.2309   -2.7237    0.1860 H   0  0  0  0  0  0  0  0  0  0  0  0
   -2.5229   -2.0787    1.2980 C   0  0  0  0  0  0  0  0  0  0  0  0
   -1.5999   -2.7227    1.7810 O   0  0  0  0  0  0  0  0  0  0  0  0
   -2.3659   -0.8447    0.8120 N   0  0  0  0  0  0  0  0  0  0  0  0
   -3.1749   -0.3807    0.4220 H   0  0  0  0  0  0  0  0  0  0  0  0
   -1.0919   -0.1077    0.8170 C   0  0  1  0  0  0  0  0  0  0  0  0
   -0.4136   -0.6011    1.5155 H   0  0  0  0  0  0  0  0  0  0  0  0
   -0.4834   -0.1723   -0.5965 C   0  0  0  0  0  0  0  0  0  0  0  0
   -0.7997   -1.1036   -1.0689 H   0  0  0  0  0  0  0  0  0  0  0  0
   -0.8682    0.6585   -1.1911 H   0  0  0  0  0  0  0  0  0  0  0  0
    1.0523   -0.1273   -0.5983 C   0  0  0  0  0  0  0  0  0  0  0  0
    1.3894    0.9087   -0.6532 H   0  0  0  0  0  0  0  0  0  0  0  0
    1.4262   -0.5753    0.3244 H   0  0  0  0  0  0  0  0  0  0  0  0
    1.6084   -0.9021   -1.8010 C   0  0  0  0  0  0  0  0  0  0  0  0
    1.2568   -1.9354   -1.7511 H   0  0  0  0  0  0  0  0  0  0  0  0
    1.2392   -0.4445   -2.7210 H   0  0  0  0  0  0  0  0  0  0  0  0
    3.1420   -0.8789   -1.7904 C   0  0  0  0  0  0  0  0  0  0  0  0
    3.4737    0.1636   -1.8331 H   0  0  0  0  0  0  0  0  0  0  0  0
    3.4896   -1.3027   -0.8434 H   0  0  0  0  0  0  0  0  0  0  0  0
    3.7074   -1.6424   -2.9315 N   0  3  0  0  0  0  0  0  0  0  0  0
    3.3977   -1.2484   -3.8111 H   0  0  0  0  0  0  0  0  0  0  0  0
    4.7192   -1.6177   -2.9099 H   0  0  0  0  0  0  0  0  0  0  0  0
    3.4104   -2.6104   -2.8917 H   0  0  0  0  0  0  0  0  0  0  0  0
   -1.3103    1.3348    1.2791 C   0  0  0  0  0  0  0  0  0  0  0  0
   -2.2333    1.9891    0.8084 O   0  0  0  0  0  0  0  0  0  0  0  0
   -0.4429    1.8293    2.1683 N   0  0  0  0  0  0  0  0  0  0  0  0
    0.2668    1.2118    2.5263 H   0  0  0  0  0  0  0  0  0  0  0  0
   -0.5118    3.1863    2.7135 C   0  0  0  0  0  0  0  0  0  0  0  0
   -1.4470    3.3159    3.2625 H   0  0  0  0  0  0  0  0  0  0  0  0
    0.3243    3.3682    3.3896 H   0  0  0  0  0  0  0  0  0  0  0  0
   -0.4850    3.9172    1.9023 H   0  0  0  0  0  0  0  0  0  0  0  0
  5  6  2  0  0  0  0
  5  7  1  0  0  0  0
  2  3  1  0  0  0  0
  2  4  1  0  0  0  0
  2  5  1  0  0  0  0
  1  2  1  0  0  0  0
 27 28  2  0  0  0  0
 27 29  1  0  0  0  0
 23 24  1  0  0  0  0
 23 25  1  0  0  0  0
 23 26  1  0  0  0  0
 20 21  1  0  0  0  0
 20 22  1  0  0  0  0
 20 23  1  0  0  0  0
 17 18  1  0  0  0  0
 17 19  1  0  0  0  0
 17 20  1  0  0  0  0
 14 15  1  0  0  0  0
 14 16  1  0  0  0  0
 14 17  1  0  0  0  0
 11 12  1  0  0  0  0
 11 13  1  0  0  0  0
 11 14  1  0  0  0  0
  9 10  1  0  0  0  0
  9 11  1  0  0  0  0
  9 27  1  0  0  0  0
  7  8  1  0  0  0  0
  7  9  1  0  0  0  0
 31 32  1  0  0  0  0
 31 33  1  0  0  0  0
 31 34  1  0  0  0  0
 29 30  1  0  0  0  0
 29 31  1  0  0  0  0
M  CHG  1  23   1
M  END
$$$$
default_name
  -OEChem-02102213163D

 34 33  0     1  0  0  0  0  0999 V2000
   -3.8899   -3.6747    1.6490 H   0  0  0  0  0  0  0  0  0  0  0  0
   -3.9109   -2.6717    1.2250 C   0  0  0  0  0  0  0  0  0  0  0  0
   -4.6009   -2.0517    1.7950 H   0  0  0  0  0  0  0  0  0  0  0  0
   -4.2309   -2.7237    0.1860 H   0  0  0  0  0  0  0  0  0  0  0  0
   -2.5229   -2.0787    1.2980 C   0  0  0  0  0  0  0  0  0  0  0  0
   -1.5999   -2.7227    1.7810 O   0  0  0  0  0  0  0  0  0  0  0  0
   -2.3659   -0.8447    0.8120 N   0  0  0  0  0  0  0  0  0  0  0  0
   -3.1749   -0.3807    0.4220 H   0  0  0  0  0  0  0  0  0  0  0  0
   -1.0919   -0.1077    0.8170 C   0  0  1  0  0  0  0  0  0  0  0  0
   -0.4136   -0.6011    1.5155 H   0  0  0  0  0  0  0  0  0  0  0  0
   -0.4834   -0.1723   -0.5965 C   0  0  0  0  0  0  0  0  0  0  0  0
   -0.7997   -1.1036   -1.0689 H   0  0  0  0  0  0  0  0  0  0  0  0
   -0.8682    0.6585   -1.1911 H   0  0  0  0  0  0  0  0  0  0  0  0
    1.0523   -0.1273   -0.5983 C   0  0  0  0  0  0  0  0  0  0  0  0
    1.3904    0.8879   -0.3859 H   0  0  0  0  0  0  0  0  0  0  0  0
    1.4326   -0.7985    0.1742 H   0  0  0  0  0  0  0  0  0  0  0  0
    1.5983   -0.5642   -1.9647 C   0  0  0  0  0  0  0  0  0  0  0  0
    1.2458   -1.5754   -2.1812 H   0  0  0  0  0  0  0  0  0  0  0  0
    1.2227    0.1156   -2.7322 H   0  0  0  0  0  0  0  0  0  0  0  0
    3.1320   -0.5435   -1.9602 C   0  0  0  0  0  0  0  0  0  0  0  0
    3.4647    0.4748   -1.7342 H   0  0  0  0  0  0  0  0  0  0  0  0
    3.4861   -1.1976   -1.1577 H   0  0  0  0  0  0  0  0  0  0  0  0
    3.6877   -0.9854   -3.2642 N   0  3  0  0  0  0  0  0  0  0  0  0
    3.3719   -0.3774   -4.0096 H   0  0  0  0  0  0  0  0  0  0  0  0
    4.6997   -0.9664   -3.2447 H   0  0  0  0  0  0  0  0  0  0  0  0
    3.3898   -1.9309   -3.4740 H   0  0  0  0  0  0  0  0  0  0  0  0
   -1.3103    1.3348    1.2791 C   0  0  0  0  0  0  0  0  0  0  0  0
   -2.2333    1.9891    0.8084 O   0  0  0  0  0  0  0  0  0  0  0  0
   -0.4429    1.8293    2.1683 N   0  0  0  0  0  0  0  0  0  0  0  0
    0.2668    1.2118    2.5263 H   0  0  0  0  0  0  0  0  0  0  0  0
   -0.5118    3.1863    2.7135 C   0  0  0  0  0  0  0  0  0  0  0  0
   -1.4470    3.3159    3.2625 H   0  0  0  0  0  0  0  0  0  0  0  0
    0.3243    3.3682    3.3896 H   0  0  0  0  0  0  0  0  0  0  0  0
   -0.4850    3.9172    1.9023 H   0  0  0  0  0  0  0  0  0  0  0  0
  5  6  2  0  0  0  0
  5  7  1  0  0  0  0
  2  3  1  0  0  0  0
  2  4  1  0  0  0  0
  2  5  1  0  0  0  0
  1  2  1  0  0  0  0
 27 28  2  0  0  0  0
 27 29  1  0  0  0  0
 23 24  1  0  0  0  0
 23 25  1  0  0  0  0
 23 26  1  0  0  0  0
 20 21  1  0  0  0  0
 20 22  1  0  0  0  0
 20 23  1  0  0  0  0
 17 18  1  0  0  0  0
 17 19  1  0  0  0  0
 17 20  1  0  0  0  0
 14 15  1  0  0  0  0
 14 16  1  0  0  0  0
 14 17  1  0  0  0  0
 11 12  1  0  0  0  0
 11 13  1  0  0  0  0
 11 14  1  0  0  0  0
  9 10  1  0  0  0  0
  9 11  1  0  0  0  0
  9 27  1  0  0  0  0
  7  8  1  0  0  0  0
  7  9  1  0  0  0  0
 31 32  1  0  0  0  0
 31 33  1  0  0  0  0
 31 34  1  0  0  0  0
 29 30  1  0  0  0  0
 29 31  1  0  0  0  0
M  CHG  1  23   1
M  END
$$$$
default_name
  -OEChem-02102213163D

 34 33  0     1  0  0  0  0  0999 V2000
   -3.8899   -3.6747    1.6490 H   0  0  0  0  0  0  0  0  0  0  0  0
   -3.9109   -2.6717    1.2250 C   0  0  0  0  0  0  0  0  0  0  0  0
   -4.6009   -2.0517    1.7950 H   0  0  0  0  0  0  0  0  0  0  0  0
   -4.2309   -2.7237    0.1860 H   0  0  0  0  0  0  0  0  0  0  0  0
   -2.5229   -2.0787    1.2980 C   0  0  0  0  0  0  0  0  0  0  0  0
   -1.5999   -2.7227    1.7810 O   0  0  0  0  0  0  0  0  0  0  0  0
   -2.3659   -0.8447    0.8120 N   0  0  0  0  0  0  0  0  0  0  0  0
   -3.1749   -0.3807    0.4220 H   0  0  0  0  0  0  0  0  0  0  0  0
   -1.0919   -0.1077    0.8170 C   0  0  1  0  0  0  0  0  0  0  0  0
   -0.4136   -0.6011    1.5155 H   0  0  0  0  0  0  0  0  0  0  0  0
   -0.4834   -0.1723   -0.5965 C   0  0  0  0  0  0  0  0  0  0  0  0
   -1.0003   -0.9489   -1.1623 H   0  0  0  0  0  0  0  0  0  0  0  0
   -0.6465    0.7819   -1.1013 H   0  0  0  0  0  0  0  0  0  0  0  0
    1.0189   -0.4942   -0.5959 C   0  0  0  0  0  0  0  0  0  0  0  0
    1.5586    0.2720   -0.0379 H   0  0  0  0  0  0  0  0  0  0  0  0
    1.1788   -1.4626   -0.1178 H   0  0  0  0  0  0  0  0  0  0  0  0
    1.5558   -0.5424   -2.0331 C   0  0  0  0  0  0  0  0  0  0  0  0
    1.0031   -1.3002   -2.5935 H   0  0  0  0  0  0  0  0  0  0  0  0
    1.4019    0.4308   -2.5035 H   0  0  0  0  0  0  0  0  0  0  0  0
    3.0501   -0.8881   -2.0354 C   0  0  0  0  0  0  0  0  0  0  0  0
    3.5843   -0.1225   -1.4634 H   0  0  0  0  0  0  0  0  0  0  0  0
    3.1863   -1.8452   -1.5228 H   0  0  0  0  0  0  0  0  0  0  0  0
    3.5906   -0.9648   -3.4161 N   0  3  0  0  0  0  0  0  0  0  0  0
    3.4769   -0.0786   -3.8921 H   0  0  0  0  0  0  0  0  0  0  0  0
    4.5766   -1.1939   -3.4002 H   0  0  0  0  0  0  0  0  0  0  0  0
    3.1052   -1.6784   -3.9472 H   0  0  0  0  0  0  0  0  0  0  0  0
   -1.3103    1.3348    1.2791 C   0  0  0  0  0  0  0  0  0  0  0  0
   -2.2333    1.9891    0.8084 O   0  0  0  0  0  0  0  0  0  0  0  0
   -0.4429    1.8293    2.1683 N   0  0  0  0  0  0  0  0  0  0  0  0
    0.2668    1.2118    2.5263 H   0  0  0  0  0  0  0  0  0  0  0  0
   -0.5118    3.1863    2.7135 C   0  0  0  0  0  0  0  0  0  0  0  0
   -1.4470    3.3159    3.2625 H   0  0  0  0  0  0  0  0  0  0  0  0
    0.3243    3.3682    3.3896 H   0  0  0  0  0  0  0  0  0  0  0  0
   -0.4850    3.9172    1.9023 H   0  0  0  0  0  0  0  0  0  0  0  0
  5  6  2  0  0  0  0
  5  7  1  0  0  0  0
  2  3  1  0  0  0  0
  2  4  1  0  0  0  0
  2  5  1  0  0  0  0
  1  2  1  0  0  0  0
 27 28  2  0  0  0  0
 27 29  1  0  0  0  0
 23 24  1  0  0  0  0
 23 25  1  0  0  0  0
 23 26  1  0  0  0  0
 20 21  1  0  0  0  0
 20 22  1  0  0  0  0
 20 23  1  0  0  0  0
 17 18  1  0  0  0  0
 17 19  1  0  0  0  0
 17 20  1  0  0  0  0
 14 15  1  0  0  0  0
 14 16  1  0  0  0  0
 14 17  1  0  0  0  0
 11 12  1  0  0  0  0
 11 13  1  0  0  0  0
 11 14  1  0  0  0  0
  9 10  1  0  0  0  0
  9 11  1  0  0  0  0
  9 27  1  0  0  0  0
  7  8  1  0  0  0  0
  7  9  1  0  0  0  0
 31 32  1  0  0  0  0
 31 33  1  0  0  0  0
 31 34  1  0  0  0  0
 29 30  1  0  0  0  0
 29 31  1  0  0  0  0
M  CHG  1  23   1
M  END
$$$$
default_name
  -OEChem-02102213163D

 34 33  0     1  0  0  0  0  0999 V2000
   -3.8899   -3.6747    1.6490 H   0  0  0  0  0  0  0  0  0  0  0  0
   -3.9109   -2.6717    1.2250 C   0  0  0  0  0  0  0  0  0  0  0  0
   -4.6009   -2.0517    1.7950 H   0  0  0  0  0  0  0  0  0  0  0  0
   -4.2309   -2.7237    0.1860 H   0  0  0  0  0  0  0  0  0  0  0  0
   -2.5229   -2.0787    1.2980 C   0  0  0  0  0  0  0  0  0  0  0  0
   -1.5999   -2.7227    1.7810 O   0  0  0  0  0  0  0  0  0  0  0  0
   -2.3659   -0.8447    0.8120 N   0  0  0  0  0  0  0  0  0  0  0  0
   -3.1749   -0.3807    0.4220 H   0  0  0  0  0  0  0  0  0  0  0  0
   -1.0919   -0.1077    0.8170 C   0  0  1  0  0  0  0  0  0  0  0  0
   -0.4136   -0.6011    1.5155 H   0  0  0  0  0  0  0  0  0  0  0  0
   -0.4834   -0.1723   -0.5965 C   0  0  0  0  0  0  0  0  0  0  0  0
   -1.0003   -0.9489   -1.1623 H   0  0  0  0  0  0  0  0  0  0  0  0
   -0.6465    0.7819   -1.1013 H   0  0  0  0  0  0  0  0  0  0  0  0
    1.0189   -0.4942   -0.5959 C   0  0  0  0  0  0  0  0  0  0  0  0
    1.5221    0.1021    0.1663 H   0  0  0  0  0  0  0  0  0  0  0  0
    1.1595   -1.5531   -0.3705 H   0  0  0  0  0  0  0  0  0  0  0  0
    1.6333   -0.1808   -1.9672 C   0  0  0  0  0  0  0  0  0  0  0  0
    1.1171   -0.7683   -2.7303 H   0  0  0  0  0  0  0  0  0  0  0  0
    1.4982    0.8808   -2.1837 H   0  0  0  0  0  0  0  0  0  0  0  0
    3.1279   -0.5250   -1.9758 C   0  0  0  0  0  0  0  0  0  0  0  0
    3.6249    0.0673   -1.2006 H   0  0  0  0  0  0  0  0  0  0  0  0
    3.2428   -1.5815   -1.7156 H   0  0  0  0  0  0  0  0  0  0  0  0
    3.7430   -0.2535   -3.2996 N   0  3  0  0  0  0  0  0  0  0  0  0
    3.6490    0.7251   -3.5413 H   0  0  0  0  0  0  0  0  0  0  0  0
    4.7283   -0.4859   -3.2888 H   0  0  0  0  0  0  0  0  0  0  0  0
    3.2922   -0.8061   -4.0196 H   0  0  0  0  0  0  0  0  0  0  0  0
   -1.3103    1.3348    1.2791 C   0  0  0  0  0  0  0  0  0  0  0  0
   -2.2333    1.9891    0.8084 O   0  0  0  0  0  0  0  0  0  0  0  0
   -0.4429    1.8293    2.1683 N   0  0  0  0  0  0  0  0  0  0  0  0
    0.2668    1.2118    2.5263 H   0  0  0  0  0  0  0  0  0  0  0  0
   -0.5118    3.1863    2.7135 C   0  0  0  0  0  0  0  0  0  0  0  0
   -1.4470    3.3159    3.2625 H   0  0  0  0  0  0  0  0  0  0  0  0
    0.3243    3.3682    3.3896 H   0  0  0  0  0  0  0  0  0  0  0  0
   -0.4850    3.9172    1.9023 H   0  0  0  0  0  0  0  0  0  0  0  0
  5  6  2  0  0  0  0
  5  7  1  0  0  0  0
  2  3  1  0  0  0  0
  2  4  1  0  0  0  0
  2  5  1  0  0  0  0
  1  2  1  0  0  0  0
 27 28  2  0  0  0  0
 27 29  1  0  0  0  0
 23 24  1  0  0  0  0
 23 25  1  0  0  0  0
 23 26  1  0  0  0  0
 20 21  1  0  0  0  0
 20 22  1  0  0  0  0
 20 23  1  0  0  0  0
 17 18  1  0  0  0  0
 17 19  1  0  0  0  0
 17 20  1  0  0  0  0
 14 15  1  0  0  0  0
 14 16  1  0  0  0  0
 14 17  1  0  0  0  0
 11 12  1  0  0  0  0
 11 13  1  0  0  0  0
 11 14  1  0  0  0  0
  9 10  1  0  0  0  0
  9 11  1  0  0  0  0
  9 27  1  0  0  0  0
  7  8  1  0  0  0  0
  7  9  1  0  0  0  0
 31 32  1  0  0  0  0
 31 33  1  0  0  0  0
 31 34  1  0  0  0  0
 29 30  1  0  0  0  0
 29 31  1  0  0  0  0
M  CHG  1  23   1
M  END
$$$$
default_name
  -OEChem-02102213163D

 34 33  0     1  0  0  0  0  0999 V2000
   -3.8899   -3.6747    1.6490 H   0  0  0  0  0  0  0  0  0  0  0  0
   -3.9109   -2.6717    1.2250 C   0  0  0  0  0  0  0  0  0  0  0  0
   -4.6009   -2.0517    1.7950 H   0  0  0  0  0  0  0  0  0  0  0  0
   -4.2309   -2.7237    0.1860 H   0  0  0  0  0  0  0  0  0  0  0  0
   -2.5229   -2.0787    1.2980 C   0  0  0  0  0  0  0  0  0  0  0  0
   -1.5999   -2.7227    1.7810 O   0  0  0  0  0  0  0  0  0  0  0  0
   -2.3659   -0.8447    0.8120 N   0  0  0  0  0  0  0  0  0  0  0  0
   -3.1749   -0.3807    0.4220 H   0  0  0  0  0  0  0  0  0  0  0  0
   -1.0919   -0.1077    0.8170 C   0  0  1  0  0  0  0  0  0  0  0  0
   -0.4136   -0.6011    1.5155 H   0  0  0  0  0  0  0  0  0  0  0  0
   -0.4834   -0.1723   -0.5965 C   0  0  0  0  0  0  0  0  0  0  0  0
   -1.0003   -0.9489   -1.1623 H   0  0  0  0  0  0  0  0  0  0  0  0
   -0.6465    0.7819   -1.1013 H   0  0  0  0  0  0  0  0  0  0  0  0
    1.0189   -0.4942   -0.5959 C   0  0  0  0  0  0  0  0  0  0  0  0
    1.4758   -0.1137    0.3186 H   0  0  0  0  0  0  0  0  0  0  0  0
    1.1546   -1.5767   -0.6385 H   0  0  0  0  0  0  0  0  0  0  0  0
    1.7045    0.1518   -1.8078 C   0  0  0  0  0  0  0  0  0  0  0  0
    1.2346   -0.2199   -2.7216 H   0  0  0  0  0  0  0  0  0  0  0  0
    1.5738    1.2345   -1.7556 H   0  0  0  0  0  0  0  0  0  0  0  0
    3.1998   -0.1893   -1.8222 C   0  0  0  0  0  0  0  0  0  0  0  0
    3.6498    0.1841   -0.8966 H   0  0  0  0  0  0  0  0  0  0  0  0
    3.3079   -1.2781   -1.8320 H   0  0  0  0  0  0  0  0  0  0  0  0
    3.8838    0.4041   -2.9988 N   0  3  0  0  0  0  0  0  0  0  0  0
    3.7962    1.4126   -2.9897 H   0  0  0  0  0  0  0  0  0  0  0  0
    4.8687    0.1697   -2.9937 H   0  0  0  0  0  0  0  0  0  0  0  0
    3.4766    0.0548   -3.8585 H   0  0  0  0  0  0  0  0  0  0  0  0
   -1.3103    1.3348    1.2791 C   0  0  0  0  0  0  0  0  0  0  0  0
   -2.2333    1.9891    0.8084 O   0  0  0  0  0  0  0  0  0  0  0  0
   -0.4429    1.8293    2.1683 N   0  0  0  0  0  0  0  0  0  0  0  0
    0.2668    1.2118    2.5263 H   0  0  0  0  0  0  0  0  0  0  0  0
   -0.5118    3.1863    2.7135 C   0  0  0  0  0  0  0  0  0  0  0  0
   -1.4470    3.3159    3.2625 H   0  0  0  0  0  0  0  0  0  0  0  0
    0.3243    3.3682    3.3896 H   0  0  0  0  0  0  0  0  0  0  0  0
   -0.4850    3.9172    1.9023 H   0  0  0  0  0  0  0  0  0  0  0  0
  5  6  2  0  0  0  0
  5  7  1  0  0  0  0
  2  3  1  0  0  0  0
  2  4  1  0  0  0  0
  2  5  1  0  0  0  0
  1  2  1  0  0  0  0
 27 28  2  0  0  0  0
 27 29  1  0  0  0  0
 23 24  1  0  0  0  0
 23 25  1  0  0  0  0
 23 26  1  0  0  0  0
 20 21  1  0  0  0  0
 20 22  1  0  0  0  0
 20 23  1  0  0  0  0
 17 18  1  0  0  0  0
 17 19  1  0  0  0  0
 17 20  1  0  0  0  0
 14 15  1  0  0  0  0
 14 16  1  0  0  0  0
 14 17  1  0  0  0  0
 11 12  1  0  0  0  0
 11 13  1  0  0  0  0
 11 14  1  0  0  0  0
  9 10  1  0  0  0  0
  9 11  1  0  0  0  0
  9 27  1  0  0  0  0
  7  8  1  0  0  0  0
  7  9  1  0  0  0  0
 31 32  1  0  0  0  0
 31 33  1  0  0  0  0
 31 34  1  0  0  0  0
 29 30  1  0  0  0  0
 29 31  1  0  0  0  0
M  CHG  1  23   1
M  END
$$$$
default_name
  -OEChem-02102213163D

 34 33  0     1  0  0  0  0  0999 V2000
   -3.8899   -3.6747    1.6490 H   0  0  0  0  0  0  0  0  0  0  0  0
   -3.9109   -2.6717    1.2250 C   0  0  0  0  0  0  0  0  0  0  0  0
   -4.6009   -2.0517    1.7950 H   0  0  0  0  0  0  0  0  0  0  0  0
   -4.2309   -2.7237    0.1860 H   0  0  0  0  0  0  0  0  0  0  0  0
   -2.5229   -2.0787    1.2980 C   0  0  0  0  0  0  0  0  0  0  0  0
   -1.5999   -2.7227    1.7810 O   0  0  0  0  0  0  0  0  0  0  0  0
   -2.3659   -0.8447    0.8120 N   0  0  0  0  0  0  0  0  0  0  0  0
   -3.1749   -0.3807    0.4220 H   0  0  0  0  0  0  0  0  0  0  0  0
   -1.0919   -0.1077    0.8170 C   0  0  1  0  0  0  0  0  0  0  0  0
   -0.4136   -0.6011    1.5155 H   0  0  0  0  0  0  0  0  0  0  0  0
   -0.4834   -0.1723   -0.5965 C   0  0  0  0  0  0  0  0  0  0  0  0
   -1.0003   -0.9489   -1.1623 H   0  0  0  0  0  0  0  0  0  0  0  0
   -0.6465    0.7819   -1.1013 H   0  0  0  0  0  0  0  0  0  0  0  0
    1.0189   -0.4942   -0.5959 C   0  0  0  0  0  0  0  0  0  0  0  0
    1.4229   -0.3607    0.4085 H   0  0  0  0  0  0  0  0  0  0  0  0
    1.1643   -1.5315   -0.9037 H   0  0  0  0  0  0  0  0  0  0  0  0
    1.7646    0.4328   -1.5659 C   0  0  0  0  0  0  0  0  0  0  0  0
    1.3476    0.3076   -2.5680 H   0  0  0  0  0  0  0  0  0  0  0  0
    1.6236    1.4679   -1.2485 H   0  0  0  0  0  0  0  0  0  0  0  0
    3.2608    0.0961   -1.5850 C   0  0  0  0  0  0  0  0  0  0  0  0
    3.6574    0.2199   -0.5720 H   0  0  0  0  0  0  0  0  0  0  0  0
    3.3770   -0.9555   -1.8641 H   0  0  0  0  0  0  0  0  0  0  0  0
    4.0034    0.9633   -2.5342 N   0  3  0  0  0  0  0  0  0  0  0  0
    3.9083    1.9372   -2.2750 H   0  0  0  0  0  0  0  0  0  0  0  0
    4.9882    0.7284   -2.5352 H   0  0  0  0  0  0  0  0  0  0  0  0
    3.6459    0.8457   -3.4751 H   0  0  0  0  0  0  0  0  0  0  0  0
   -1.3103    1.3348    1.2791 C   0  0  0  0  0  0  0  0  0  0  0  0
   -2.2333    1.9891    0.8084 O   0  0  0  0  0  0  0  0  0  0  0  0
   -0.4429    1.8293    2.1683 N   0  0  0  0  0  0  0  0  0  0  0  0
    0.2668    1.2118    2.5263 H   0  0  0  0  0  0  0  0  0  0  0  0
   -0.5118    3.1863    2.7135 C   0  0  0  0  0  0  0  0  0  0  0  0
   -1.4470    3.3159    3.2625 H   0  0  0  0  0  0  0  0  0  0  0  0
    0.3243    3.3682    3.3896 H   0  0  0  0  0  0  0  0  0  0  0  0
   -0.4850    3.9172    1.9023 H   0  0  0  0  0  0  0  0  0  0  0  0
  5  6  2  0  0  0  0
  5  7  1  0  0  0  0
  2  3  1  0  0  0  0
  2  4  1  0  0  0  0
  2  5  1  0  0  0  0
  1  2  1  0  0  0  0
 27 28  2  0  0  0  0
 27 29  1  0  0  0  0
 23 24  1  0  0  0  0
 23 25  1  0  0  0  0
 23 26  1  0  0  0  0
 20 21  1  0  0  0  0
 20 22  1  0  0  0  0
 20 23  1  0  0  0  0
 17 18  1  0  0  0  0
 17 19  1  0  0  0  0
 17 20  1  0  0  0  0
 14 15  1  0  0  0  0
 14 16  1  0  0  0  0
 14 17  1  0  0  0  0
 11 12  1  0  0  0  0
 11 13  1  0  0  0  0
 11 14  1  0  0  0  0
  9 10  1  0  0  0  0
  9 11  1  0  0  0  0
  9 27  1  0  0  0  0
  7  8  1  0  0  0  0
  7  9  1  0  0  0  0
 31 32  1  0  0  0  0
 31 33  1  0  0  0  0
 31 34  1  0  0  0  0
 29 30  1  0  0  0  0
 29 31  1  0  0  0  0
M  CHG  1  23   1
M  END
$$$$
default_name
  -OEChem-02102213163D

 34 33  0     1  0  0  0  0  0999 V2000
   -3.8899   -3.6747    1.6490 H   0  0  0  0  0  0  0  0  0  0  0  0
   -3.9109   -2.6717    1.2250 C   0  0  0  0  0  0  0  0  0  0  0  0
   -4.6009   -2.0517    1.7950 H   0  0  0  0  0  0  0  0  0  0  0  0
   -4.2309   -2.7237    0.1860 H   0  0  0  0  0  0  0  0  0  0  0  0
   -2.5229   -2.0787    1.2980 C   0  0  0  0  0  0  0  0  0  0  0  0
   -1.5999   -2.7227    1.7810 O   0  0  0  0  0  0  0  0  0  0  0  0
   -2.3659   -0.8447    0.8120 N   0  0  0  0  0  0  0  0  0  0  0  0
   -3.1749   -0.3807    0.4220 H   0  0  0  0  0  0  0  0  0  0  0  0
   -1.0919   -0.1077    0.8170 C   0  0  1  0  0  0  0  0  0  0  0  0
   -0.4136   -0.6011    1.5155 H   0  0  0  0  0  0  0  0  0  0  0  0
   -0.4834   -0.1723   -0.5965 C   0  0  0  0  0  0  0  0  0  0  0  0
   -1.0003   -0.9489   -1.1623 H   0  0  0  0  0  0  0  0  0  0  0  0
   -0.6465    0.7819   -1.1013 H   0  0  0  0  0  0  0  0  0  0  0  0
    1.0189   -0.4942   -0.5959 C   0  0  0  0  0  0  0  0  0  0  0  0
    1.3669   -0.6220    0.4300 H   0  0  0  0  0  0  0  0  0  0  0  0
    1.1881   -1.4209   -1.1478 H   0  0  0  0  0  0  0  0  0  0  0  0
    1.8095    0.6429   -1.2578 C   0  0  0  0  0  0  0  0  0  0  0  0
    1.4484    0.7783   -2.2801 H   0  0  0  0  0  0  0  0  0  0  0  0
    1.6442    1.5649   -0.6969 H   0  0  0  0  0  0  0  0  0  0  0  0
    3.3069    0.3117   -1.2803 C   0  0  0  0  0  0  0  0  0  0  0  0
    3.6471    0.1724   -0.2489 H   0  0  0  0  0  0  0  0  0  0  0  0
    3.4455   -0.6358   -1.8097 H   0  0  0  0  0  0  0  0  0  0  0  0
    4.0937    1.3858   -1.9375 N   0  3  0  0  0  0  0  0  0  0  0  0
    3.9778    2.2630   -1.4457 H   0  0  0  0  0  0  0  0  0  0  0  0
    5.0787    1.1520   -1.9444 H   0  0  0  0  0  0  0  0  0  0  0  0
    3.7886    1.5126   -2.8954 H   0  0  0  0  0  0  0  0  0  0  0  0
   -1.3103    1.3348    1.2791 C   0  0  0  0  0  0  0  0  0  0  0  0
   -2.2333    1.9891    0.8084 O   0  0  0  0  0  0  0  0  0  0  0  0
   -0.4429    1.8293    2.1683 N   0  0  0  0  0  0  0  0  0  0  0  0
    0.2668    1.2118    2.5263 H   0  0  0  0  0  0  0  0  0  0  0  0
   -0.5118    3.1863    2.7135 C   0  0  0  0  0  0  0  0  0  0  0  0
   -1.4470    3.3159    3.2625 H   0  0  0  0  0  0  0  0  0  0  0  0
    0.3243    3.3682    3.3896 H   0  0  0  0  0  0  0  0  0  0  0  0
   -0.4850    3.9172    1.9023 H   0  0  0  0  0  0  0  0  0  0  0  0
  5  6  2  0  0  0  0
  5  7  1  0  0  0  0
  2  3  1  0  0  0  0
  2  4  1  0  0  0  0
  2  5  1  0  0  0  0
  1  2  1  0  0  0  0
 27 28  2  0  0  0  0
 27 29  1  0  0  0  0
 23 24  1  0  0  0  0
 23 25  1  0  0  0  0
 23 26  1  0  0  0  0
 20 21  1  0  0  0  0
 20 22  1  0  0  0  0
 20 23  1  0  0  0  0
 17 18  1  0  0  0  0
 17 19  1  0  0  0  0
 17 20  1  0  0  0  0
 14 15  1  0  0  0  0
 14 16  1  0  0  0  0
 14 17  1  0  0  0  0
 11 12  1  0  0  0  0
 11 13  1  0  0  0  0
 11 14  1  0  0  0  0
  9 10  1  0  0  0  0
  9 11  1  0  0  0  0
  9 27  1  0  0  0  0
  7  8  1  0  0  0  0
  7  9  1  0  0  0  0
 31 32  1  0  0  0  0
 31 33  1  0  0  0  0
 31 34  1  0  0  0  0
 29 30  1  0  0  0  0
 29 31  1  0  0  0  0
M  CHG  1  23   1
M  END
$$$$
default_name
  -OEChem-02102213163D

 34 33  0     1  0  0  0  0  0999 V2000
   -3.8899   -3.6747    1.6490 H   0  0  0  0  0  0  0  0  0  0  0  0
   -3.9109   -2.6717    1.2250 C   0  0  0  0  0  0  0  0  0  0  0  0
   -4.6009   -2.0517    1.7950 H   0  0  0  0  0  0  0  0  0  0  0  0
   -4.2309   -2.7237    0.1860 H   0  0  0  0  0  0  0  0  0  0  0  0
   -2.5229   -2.0787    1.2980 C   0  0  0  0  0  0  0  0  0  0  0  0
   -1.5999   -2.7227    1.7810 O   0  0  0  0  0  0  0  0  0  0  0  0
   -2.3659   -0.8447    0.8120 N   0  0  0  0  0  0  0  0  0  0  0  0
   -3.1749   -0.3807    0.4220 H   0  0  0  0  0  0  0  0  0  0  0  0
   -1.0919   -0.1077    0.8170 C   0  0  1  0  0  0  0  0  0  0  0  0
   -0.4136   -0.6011    1.5155 H   0  0  0  0  0  0  0  0  0  0  0  0
   -0.4834   -0.1723   -0.5965 C   0  0  0  0  0  0  0  0  0  0  0  0
   -1.0003   -0.9489   -1.1623 H   0  0  0  0  0  0  0  0  0  0  0  0
   -0.6465    0.7819   -1.1013 H   0  0  0  0  0  0  0  0  0  0  0  0
    1.0189   -0.4942   -0.5959 C   0  0  0  0  0  0  0  0  0  0  0  0
    1.3117   -0.8799    0.3815 H   0  0  0  0  0  0  0  0  0  0  0  0
    1.2244   -1.2522   -1.3543 H   0  0  0  0  0  0  0  0  0  0  0  0
    1.8361    0.7679   -0.9046 C   0  0  0  0  0  0  0  0  0  0  0  0
    1.5300    1.1601   -1.8774 H   0  0  0  0  0  0  0  0  0  0  0  0
    1.6342    1.5191   -0.1384 H   0  0  0  0  0  0  0  0  0  0  0  0
    3.3349    0.4429   -0.9289 C   0  0  0  0  0  0  0  0  0  0  0  0
    3.6196    0.0448    0.0505 H   0  0  0  0  0  0  0  0  0  0  0  0
    3.5087   -0.3407   -1.6726 H   0  0  0  0  0  0  0  0  0  0  0  0
    4.1486    1.6428   -1.2492 N   0  3  0  0  0  0  0  0  0  0  0  0
    4.0000    2.3678   -0.5585 H   0  0  0  0  0  0  0  0  0  0  0  0
    5.1341    1.4117   -1.2617 H   0  0  0  0  0  0  0  0  0  0  0  0
    3.8949    2.0101   -2.1590 H   0  0  0  0  0  0  0  0  0  0  0  0
   -1.3103    1.3348    1.2791 C   0  0  0  0  0  0  0  0  0  0  0  0
   -2.2333    1.9891    0.8084 O   0  0  0  0  0  0  0  0  0  0  0  0
   -0.4429    1.8293    2.1683 N   0  0  0  0  0  0  0  0  0  0  0  0
    0.2668    1.2118    2.5263 H   0  0  0  0  0  0  0  0  0  0  0  0
   -0.5118    3.1863    2.7135 C   0  0  0  0  0  0  0  0  0  0  0  0
   -1.4470    3.3159    3.2625 H   0  0  0  0  0  0  0  0  0  0  0  0
    0.3243    3.3682    3.3896 H   0  0  0  0  0  0  0  0  0  0  0  0
   -0.4850    3.9172    1.9023 H   0  0  0  0  0  0  0  0  0  0  0  0
  5  6  2  0  0  0  0
  5  7  1  0  0  0  0
  2  3  1  0  0  0  0
  2  4  1  0  0  0  0
  2  5  1  0  0  0  0
  1  2  1  0  0  0  0
 27 28  2  0  0  0  0
 27 29  1  0  0  0  0
 23 24  1  0  0  0  0
 23 25  1  0  0  0  0
 23 26  1  0  0  0  0
 20 21  1  0  0  0  0
 20 22  1  0  0  0  0
 20 23  1  0  0  0  0
 17 18  1  0  0  0  0
 17 19  1  0  0  0  0
 17 20  1  0  0  0  0
 14 15  1  0  0  0  0
 14 16  1  0  0  0  0
 14 17  1  0  0  0  0
 11 12  1  0  0  0  0
 11 13  1  0  0  0  0
 11 14  1  0  0  0  0
  9 10  1  0  0  0  0
  9 11  1  0  0  0  0
  9 27  1  0  0  0  0
  7  8  1  0  0  0  0
  7  9  1  0  0  0  0
 31 32  1  0  0  0  0
 31 33  1  0  0  0  0
 31 34  1  0  0  0  0
 29 30  1  0  0  0  0
 29 31  1  0  0  0  0
M  CHG  1  23   1
M  END
$$$$
default_name
  -OEChem-02102213163D

 34 33  0     1  0  0  0  0  0999 V2000
   -3.8899   -3.6747    1.6490 H   0  0  0  0  0  0  0  0  0  0  0  0
   -3.9109   -2.6717    1.2250 C   0  0  0  0  0  0  0  0  0  0  0  0
   -4.6009   -2.0517    1.7950 H   0  0  0  0  0  0  0  0  0  0  0  0
   -4.2309   -2.7237    0.1860 H   0  0  0  0  0  0  0  0  0  0  0  0
   -2.5229   -2.0787    1.2980 C   0  0  0  0  0  0  0  0  0  0  0  0
   -1.5999   -2.7227    1.7810 O   0  0  0  0  0  0  0  0  0  0  0  0
   -2.3659   -0.8447    0.8120 N   0  0  0  0  0  0  0  0  0  0  0  0
   -3.1749   -0.3807    0.4220 H   0  0  0  0  0  0  0  0  0  0  0  0
   -1.0919   -0.1077    0.8170 C   0  0  1  0  0  0  0  0  0  0  0  0
   -0.4136   -0.6011    1.5155 H   0  0  0  0  0  0  0  0  0  0  0  0
   -0.4834   -0.1723   -0.5965 C   0  0  0  0  0  0  0  0  0  0  0  0
   -1.0003   -0.9489   -1.1623 H   0  0  0  0  0  0  0  0  0  0  0  0
   -0.6465    0.7819   -1.1013 H   0  0  0  0  0  0  0  0  0  0  0  0
    1.0189   -0.4942   -0.5959 C   0  0  0  0  0  0  0  0  0  0  0  0
    1.2610   -1.1167    0.2665 H   0  0  0  0  0  0  0  0  0  0  0  0
    1.2705   -1.0370   -1.5092 H   0  0  0  0  0  0  0  0  0  0  0  0
    1.8427    0.7993   -0.5303 C   0  0  0  0  0  0  0  0  0  0  0  0
    1.5871    1.4270   -1.3873 H   0  0  0  0  0  0  0  0  0  0  0  0
    1.5942    1.3335    0.3889 H   0  0  0  0  0  0  0  0  0  0  0  0
    3.3429    0.4807   -0.5548 C   0  0  0  0  0  0  0  0  0  0  0  0
    3.5769   -0.1543    0.3059 H   0  0  0  0  0  0  0  0  0  0  0  0
    3.5623   -0.0904   -1.4620 H   0  0  0  0  0  0  0  0  0  0  0  0
    4.1642    1.7170   -0.5164 N   0  3  0  0  0  0  0  0  0  0  0  0
    3.9732    2.2446    0.3262 H   0  0  0  0  0  0  0  0  0  0  0  0
    5.1506    1.4897   -0.5335 H   0  0  0  0  0  0  0  0  0  0  0  0
    3.9577    2.3043   -1.3159 H   0  0  0  0  0  0  0  0  0  0  0  0
   -1.3103    1.3348    1.2791 C   0  0  0  0  0  0  0  0  0  0  0  0
   -2.2333    1.9891    0.8084 O   0  0  0  0  0  0  0  0  0  0  0  0
   -0.4429    1.8293    2.1683 N   0  0  0  0  0  0  0  0  0  0  0  0
    0.2668    1.2118    2.5263 H   0  0  0  0  0  0  0  0  0  0  0  0
   -0.5118    3.1863    2.7135 C   0  0  0  0  0  0  0  0  0  0  0  0
   -1.4470    3.3159    3.2625 H   0  0  0  0  0  0  0  0  0  0  0  0
    0.3243    3.3682    3.3896 H   0  0  0  0  0  0  0  0  0  0  0  0
   -0.4850    3.9172    1.9023 H   0  0  0  0  0  0  0  0  0  0  0  0
  5  6  2  0  0  0  0
  5  7  1  0  0  0  0
  2  3  1  0  0  0  0
  2  4  1  0  0  0  0
  2  5  1  0  0  0  0
  1  2  1  0  0  0  0
 27 28  2  0  0  0  0
 27 29  1  0  0  0  0
 23 24  1  0  0  0  0
 23 25  1  0  0  0  0
 23 26  1  0  0  0  0
 20 21  1  0  0  0  0
 20 22  1  0  0  0  0
 20 23  1  0  0  0  0
 17 18  1  0  0  0  0
 17 19  1  0  0  0  0
 17 20  1  0  0  0  0
 14 15  1  0  0  0  0
 14 16  1  0  0  0  0
 14 17  1  0  0  0  0
 11 12  1  0  0  0  0
 11 13  1  0  0  0  0
 11 14  1  0  0  0  0
  9 10  1  0  0  0  0
  9 11  1  0  0  0  0
  9 27  1  0  0  0  0
  7  8  1  0  0  0  0
  7  9  1  0  0  0  0
 31 32  1  0  0  0  0
 31 33  1  0  0  0  0
 31 34  1  0  0  0  0
 29 30  1  0  0  0  0
 29 31  1  0  0  0  0
M  CHG  1  23   1
M  END
$$$$
default_name
  -OEChem-02102213163D

 34 33  0     1  0  0  0  0  0999 V2000
   -3.8899   -3.6747    1.6490 H   0  0  0  0  0  0  0  0  0  0  0  0
   -3.9109   -2.6717    1.2250 C   0  0  0  0  0  0  0  0  0  0  0  0
   -4.6009   -2.0517    1.7950 H   0  0  0  0  0  0  0  0  0  0  0  0
   -4.2309   -2.7237    0.1860 H   0  0  0  0  0  0  0  0  0  0  0  0
   -2.5229   -2.0787    1.2980 C   0  0  0  0  0  0  0  0  0  0  0  0
   -1.5999   -2.7227    1.7810 O   0  0  0  0  0  0  0  0  0  0  0  0
   -2.3659   -0.8447    0.8120 N   0  0  0  0  0  0  0  0  0  0  0  0
   -3.1749   -0.3807    0.4220 H   0  0  0  0  0  0  0  0  0  0  0  0
   -1.0919   -0.1077    0.8170 C   0  0  1  0  0  0  0  0  0  0  0  0
   -0.4136   -0.6011    1.5155 H   0  0  0  0  0  0  0  0  0  0  0  0
   -0.4834   -0.1723   -0.5965 C   0  0  0  0  0  0  0  0  0  0  0  0
   -1.0003   -0.9489   -1.1623 H   0  0  0  0  0  0  0  0  0  0  0  0
   -0.6465    0.7819   -1.1013 H   0  0  0  0  0  0  0  0  0  0  0  0
    1.0189   -0.4942   -0.5959 C   0  0  0  0  0  0  0  0  0  0  0  0
    1.2182   -1.3163    0.0927 H   0  0  0  0  0  0  0  0  0  0  0  0
    1.3235   -0.7899   -1.6018 H   0  0  0  0  0  0  0  0  0  0  0  0
    1.8288    0.7348   -0.1606 C   0  0  0  0  0  0  0  0  0  0  0  0
    1.6155    1.5608   -0.8433 H   0  0  0  0  0  0  0  0  0  0  0  0
    1.5271    1.0207    0.8491 H   0  0  0  0  0  0  0  0  0  0  0  0
    3.3303    0.4225   -0.1834 C   0  0  0  0  0  0  0  0  0  0  0  0
    3.5217   -0.4112    0.5000 H   0  0  0  0  0  0  0  0  0  0  0  0
    3.6026    0.0981   -1.1923 H   0  0  0  0  0  0  0  0  0  0  0  0
    4.1395    1.6031    0.2111 N   0  3  0  0  0  0  0  0  0  0  0  0
    3.8994    1.9016    1.1481 H   0  0  0  0  0  0  0  0  0  0  0  0
    5.1270    1.3808    0.1906 H   0  0  0  0  0  0  0  0  0  0  0  0
    3.9725    2.3751   -0.4238 H   0  0  0  0  0  0  0  0  0  0  0  0
   -1.3103    1.3348    1.2791 C   0  0  0  0  0  0  0  0  0  0  0  0
   -2.2333    1.9891    0.8084 O   0  0  0  0  0  0  0  0  0  0  0  0
   -0.4429    1.8293    2.1683 N   0  0  0  0  0  0  0  0  0  0  0  0
    0.2668    1.2118    2.5263 H   0  0  0  0  0  0  0  0  0  0  0  0
   -0.5118    3.1863    2.7135 C   0  0  0  0  0  0  0  0  0  0  0  0
   -1.4470    3.3159    3.2625 H   0  0  0  0  0  0  0  0  0  0  0  0
    0.3243    3.3682    3.3896 H   0  0  0  0  0  0  0  0  0  0  0  0
   -0.4850    3.9172    1.9023 H   0  0  0  0  0  0  0  0  0  0  0  0
  5  6  2  0  0  0  0
  5  7  1  0  0  0  0
  2  3  1  0  0  0  0
  2  4  1  0  0  0  0
  2  5  1  0  0  0  0
  1  2  1  0  0  0  0
 27 28  2  0  0  0  0
 27 29  1  0  0  0  0
 23 24  1  0  0  0  0
 23 25  1  0  0  0  0
 23 26  1  0  0  0  0
 20 21  1  0  0  0  0
 20 22  1  0  0  0  0
 20 23  1  0  0  0  0
 17 18  1  0  0  0  0
 17 19  1  0  0  0  0
 17 20  1  0  0  0  0
 14 15  1  0  0  0  0
 14 16  1  0  0  0  0
 14 17  1  0  0  0  0
 11 12  1  0  0  0  0
 11 13  1  0  0  0  0
 11 14  1  0  0  0  0
  9 10  1  0  0  0  0
  9 11  1  0  0  0  0
  9 27  1  0  0  0  0
  7  8  1  0  0  0  0
  7  9  1  0  0  0  0
 31 32  1  0  0  0  0
 31 33  1  0  0  0  0
 31 34  1  0  0  0  0
 29 30  1  0  0  0  0
 29 31  1  0  0  0  0
M  CHG  1  23   1
M  END
$$$$
default_name
  -OEChem-02102213163D

 34 33  0     1  0  0  0  0  0999 V2000
   -3.8899   -3.6747    1.6490 H   0  0  0  0  0  0  0  0  0  0  0  0
   -3.9109   -2.6717    1.2250 C   0  0  0  0  0  0  0  0  0  0  0  0
   -4.6009   -2.0517    1.7950 H   0  0  0  0  0  0  0  0  0  0  0  0
   -4.2309   -2.7237    0.1860 H   0  0  0  0  0  0  0  0  0  0  0  0
   -2.5229   -2.0787    1.2980 C   0  0  0  0  0  0  0  0  0  0  0  0
   -1.5999   -2.7227    1.7810 O   0  0  0  0  0  0  0  0  0  0  0  0
   -2.3659   -0.8447    0.8120 N   0  0  0  0  0  0  0  0  0  0  0  0
   -3.1749   -0.3807    0.4220 H   0  0  0  0  0  0  0  0  0  0  0  0
   -1.0919   -0.1077    0.8170 C   0  0  1  0  0  0  0  0  0  0  0  0
   -0.4136   -0.6011    1.5155 H   0  0  0  0  0  0  0  0  0  0  0  0
   -0.4834   -0.1723   -0.5965 C   0  0  0  0  0  0  0  0  0  0  0  0
   -1.0003   -0.9489   -1.1623 H   0  0  0  0  0  0  0  0  0  0  0  0
   -0.6465    0.7819   -1.1013 H   0  0  0  0  0  0  0  0  0  0  0  0
    1.0189   -0.4942   -0.5959 C   0  0  0  0  0  0  0  0  0  0  0  0
    1.1864   -1.4652   -0.1280 H   0  0  0  0  0  0  0  0  0  0  0  0
    1.3797   -0.5278   -1.6258 H   0  0  0  0  0  0  0  0  0  0  0  0
    1.7953    0.5790    0.1796 C   0  0  0  0  0  0  0  0  0  0  0  0
    1.6135    1.5523   -0.2825 H   0  0  0  0  0  0  0  0  0  0  0  0
    1.4373    0.6022    1.2108 H   0  0  0  0  0  0  0  0  0  0  0  0
    3.2980    0.2723    0.1599 C   0  0  0  0  0  0  0  0  0  0  0  0
    3.4580   -0.7085    0.6194 H   0  0  0  0  0  0  0  0  0  0  0  0
    3.6268    0.2120   -0.8820 H   0  0  0  0  0  0  0  0  0  0  0  0
    4.0763    1.3091    0.8836 N   0  3  0  0  0  0  0  0  0  0  0  0
    3.7836    1.3624    1.8513 H   0  0  0  0  0  0  0  0  0  0  0  0
    5.0650    1.0924    0.8611 H   0  0  0  0  0  0  0  0  0  0  0  0
    3.9385    2.2177    0.4567 H   0  0  0  0  0  0  0  0  0  0  0  0
   -1.3103    1.3348    1.2791 C   0  0  0  0  0  0  0  0  0  0  0  0
   -2.2333    1.9891    0.8084 O   0  0  0  0  0  0  0  0  0  0  0  0
   -0.4429    1.8293    2.1683 N   0  0  0  0  0  0  0  0  0  0  0  0
    0.2668    1.2118    2.5263 H   0  0  0  0  0  0  0  0  0  0  0  0
   -0.5118    3.1863    2.7135 C   0  0  0  0  0  0  0  0  0  0  0  0
   -1.4470    3.3159    3.2625 H   0  0  0  0  0  0  0  0  0  0  0  0
    0.3243    3.3682    3.3896 H   0  0  0  0  0  0  0  0  0  0  0  0
   -0.4850    3.9172    1.9023 H   0  0  0  0  0  0  0  0  0  0  0  0
  5  6  2  0  0  0  0
  5  7  1  0  0  0  0
  2  3  1  0  0  0  0
  2  4  1  0  0  0  0
  2  5  1  0  0  0  0
  1  2  1  0  0  0  0
 27 28  2  0  0  0  0
 27 29  1  0  0  0  0
 23 24  1  0  0  0  0
 23 25  1  0  0  0  0
 23 26  1  0  0  0  0
 20 21  1  0  0  0  0
 20 22  1  0  0  0  0
 20 23  1  0  0  0  0
 17 18  1  0  0  0  0
 17 19  1  0  0  0  0
 17 20  1  0  0  0  0
 14 15  1  0  0  0  0
 14 16  1  0  0  0  0
 14 17  1  0  0  0  0
 11 12  1  0  0  0  0
 11 13  1  0  0  0  0
 11 14  1  0  0  0  0
  9 10  1  0  0  0  0
  9 11  1  0  0  0  0
  9 27  1  0  0  0  0
  7  8  1  0  0  0  0
  7  9  1  0  0  0  0
 31 32  1  0  0  0  0
 31 33  1  0  0  0  0
 31 34  1  0  0  0  0
 29 30  1  0  0  0  0
 29 31  1  0  0  0  0
M  CHG  1  23   1
M  END
$$$$
default_name
  -OEChem-02102213163D

 34 33  0     1  0  0  0  0  0999 V2000
   -3.8899   -3.6747    1.6490 H   0  0  0  0  0  0  0  0  0  0  0  0
   -3.9109   -2.6717    1.2250 C   0  0  0  0  0  0  0  0  0  0  0  0
   -4.6009   -2.0517    1.7950 H   0  0  0  0  0  0  0  0  0  0  0  0
   -4.2309   -2.7237    0.1860 H   0  0  0  0  0  0  0  0  0  0  0  0
   -2.5229   -2.0787    1.2980 C   0  0  0  0  0  0  0  0  0  0  0  0
   -1.5999   -2.7227    1.7810 O   0  0  0  0  0  0  0  0  0  0  0  0
   -2.3659   -0.8447    0.8120 N   0  0  0  0  0  0  0  0  0  0  0  0
   -3.1749   -0.3807    0.4220 H   0  0  0  0  0  0  0  0  0  0  0  0
   -1.0919   -0.1077    0.8170 C   0  0  1  0  0  0  0  0  0  0  0  0
   -0.4136   -0.6011    1.5155 H   0  0  0  0  0  0  0  0  0  0  0  0
   -0.4834   -0.1723   -0.5965 C   0  0  0  0  0  0  0  0  0  0  0  0
   -1.0003   -0.9489   -1.1623 H   0  0  0  0  0  0  0  0  0  0  0  0
   -0.6465    0.7819   -1.1013 H   0  0  0  0  0  0  0  0  0  0  0  0
    1.0189   -0.4942   -0.5959 C   0  0  0  0  0  0  0  0  0  0  0  0
    1.1677   -1.5532   -0.3806 H   0  0  0  0  0  0  0  0  0  0  0  0
    1.4352   -0.2686   -1.5797 H   0  0  0  0  0  0  0  0  0  0  0  0
    1.7445    0.3425    0.4669 C   0  0  0  0  0  0  0  0  0  0  0  0
    1.5812    1.4022    0.2570 H   0  0  0  0  0  0  0  0  0  0  0  0
    1.3309    0.1063    1.4494 H   0  0  0  0  0  0  0  0  0  0  0  0
    3.2482    0.0404    0.4517 C   0  0  0  0  0  0  0  0  0  0  0  0
    3.3900   -1.0259    0.6560 H   0  0  0  0  0  0  0  0  0  0  0  0
    3.6334    0.2434   -0.5521 H   0  0  0  0  0  0  0  0  0  0  0  0
    3.9787    0.8548    1.4554 N   0  3  0  0  0  0  0  0  0  0  0  0
    3.6337    0.6635    2.3877 H   0  0  0  0  0  0  0  0  0  0  0  0
    4.9687    0.6441    1.4324 H   0  0  0  0  0  0  0  0  0  0  0  0
    3.8578    1.8428    1.2655 H   0  0  0  0  0  0  0  0  0  0  0  0
   -1.3103    1.3348    1.2791 C   0  0  0  0  0  0  0  0  0  0  0  0
   -2.2333    1.9891    0.8084 O   0  0  0  0  0  0  0  0  0  0  0  0
   -0.4429    1.8293    2.1683 N   0  0  0  0  0  0  0  0  0  0  0  0
    0.2668    1.2118    2.5263 H   0  0  0  0  0  0  0  0  0  0  0  0
   -0.5118    3.1863    2.7135 C   0  0  0  0  0  0  0  0  0  0  0  0
   -1.4470    3.3159    3.2625 H   0  0  0  0  0  0  0  0  0  0  0  0
    0.3243    3.3682    3.3896 H   0  0  0  0  0  0  0  0  0  0  0  0
   -0.4850    3.9172    1.9023 H   0  0  0  0  0  0  0  0  0  0  0  0
  5  6  2  0  0  0  0
  5  7  1  0  0  0  0
  2  3  1  0  0  0  0
  2  4  1  0  0  0  0
  2  5  1  0  0  0  0
  1  2  1  0  0  0  0
 27 28  2  0  0  0  0
 27 29  1  0  0  0  0
 23 24  1  0  0  0  0
 23 25  1  0  0  0  0
 23 26  1  0  0  0  0
 20 21  1  0  0  0  0
 20 22  1  0  0  0  0
 20 23  1  0  0  0  0
 17 18  1  0  0  0  0
 17 19  1  0  0  0  0
 17 20  1  0  0  0  0
 14 15  1  0  0  0  0
 14 16  1  0  0  0  0
 14 17  1  0  0  0  0
 11 12  1  0  0  0  0
 11 13  1  0  0  0  0
 11 14  1  0  0  0  0
  9 10  1  0  0  0  0
  9 11  1  0  0  0  0
  9 27  1  0  0  0  0
  7  8  1  0  0  0  0
  7  9  1  0  0  0  0
 31 32  1  0  0  0  0
 31 33  1  0  0  0  0
 31 34  1  0  0  0  0
 29 30  1  0  0  0  0
 29 31  1  0  0  0  0
M  CHG  1  23   1
M  END
$$$$
default_name
  -OEChem-02102213163D

 34 33  0     1  0  0  0  0  0999 V2000
   -3.8899   -3.6747    1.6490 H   0  0  0  0  0  0  0  0  0  0  0  0
   -3.9109   -2.6717    1.2250 C   0  0  0  0  0  0  0  0  0  0  0  0
   -4.6009   -2.0517    1.7950 H   0  0  0  0  0  0  0  0  0  0  0  0
   -4.2309   -2.7237    0.1860 H   0  0  0  0  0  0  0  0  0  0  0  0
   -2.5229   -2.0787    1.2980 C   0  0  0  0  0  0  0  0  0  0  0  0
   -1.5999   -2.7227    1.7810 O   0  0  0  0  0  0  0  0  0  0  0  0
   -2.3659   -0.8447    0.8120 N   0  0  0  0  0  0  0  0  0  0  0  0
   -3.1749   -0.3807    0.4220 H   0  0  0  0  0  0  0  0  0  0  0  0
   -1.0919   -0.1077    0.8170 C   0  0  1  0  0  0  0  0  0  0  0  0
   -0.4136   -0.6011    1.5155 H   0  0  0  0  0  0  0  0  0  0  0  0
   -0.4834   -0.1723   -0.5965 C   0  0  0  0  0  0  0  0  0  0  0  0
   -1.0003   -0.9489   -1.1623 H   0  0  0  0  0  0  0  0  0  0  0  0
   -0.6465    0.7819   -1.1013 H   0  0  0  0  0  0  0  0  0  0  0  0
    1.0189   -0.4942   -0.5959 C   0  0  0  0  0  0  0  0  0  0  0  0
    1.1633   -1.5742   -0.6478 H   0  0  0  0  0  0  0  0  0  0  0  0
    1.4863   -0.0298   -1.4665 H   0  0  0  0  0  0  0  0  0  0  0  0
    1.6799    0.0412    0.6817 C   0  0  0  0  0  0  0  0  0  0  0  0
    1.5207    1.1207    0.7384 H   0  0  0  0  0  0  0  0  0  0  0  0
    1.2153   -0.4330    1.5486 H   0  0  0  0  0  0  0  0  0  0  0  0
    3.1843   -0.2576    0.6722 C   0  0  0  0  0  0  0  0  0  0  0  0
    3.3223   -1.3418    0.6074 H   0  0  0  0  0  0  0  0  0  0  0  0
    3.6219    0.1902   -0.2251 H   0  0  0  0  0  0  0  0  0  0  0  0
    3.8536    0.2713    1.8874 N   0  3  0  0  0  0  0  0  0  0  0  0
    3.4598   -0.1473    2.7208 H   0  0  0  0  0  0  0  0  0  0  0  0
    4.8448    0.0664    1.8656 H   0  0  0  0  0  0  0  0  0  0  0  0
    3.7362    1.2761    1.9475 H   0  0  0  0  0  0  0  0  0  0  0  0
   -1.3103    1.3348    1.2791 C   0  0  0  0  0  0  0  0  0  0  0  0
   -2.2333    1.9891    0.8084 O   0  0  0  0  0  0  0  0  0  0  0  0
   -0.4429    1.8293    2.1683 N   0  0  0  0  0  0  0  0  0  0  0  0
    0.2668    1.2118    2.5263 H   0  0  0  0  0  0  0  0  0  0  0  0
   -0.5118    3.1863    2.7135 C   0  0  0  0  0  0  0  0  0  0  0  0
   -1.4470    3.3159    3.2625 H   0  0  0  0  0  0  0  0  0  0  0  0
    0.3243    3.3682    3.3896 H   0  0  0  0  0  0  0  0  0  0  0  0
   -0.4850    3.9172    1.9023 H   0  0  0  0  0  0  0  0  0  0  0  0
  5  6  2  0  0  0  0
  5  7  1  0  0  0  0
  2  3  1  0  0  0  0
  2  4  1  0  0  0  0
  2  5  1  0  0  0  0
  1  2  1  0  0  0  0
 27 28  2  0  0  0  0
 27 29  1  0  0  0  0
 23 24  1  0  0  0  0
 23 25  1  0  0  0  0
 23 26  1  0  0  0  0
 20 21  1  0  0  0  0
 20 22  1  0  0  0  0
 20 23  1  0  0  0  0
 17 18  1  0  0  0  0
 17 19  1  0  0  0  0
 17 20  1  0  0  0  0
 14 15  1  0  0  0  0
 14 16  1  0  0  0  0
 14 17  1  0  0  0  0
 11 12  1  0  0  0  0
 11 13  1  0  0  0  0
 11 14  1  0  0  0  0
  9 10  1  0  0  0  0
  9 11  1  0  0  0  0
  9 27  1  0  0  0  0
  7  8  1  0  0  0  0
  7  9  1  0  0  0  0
 31 32  1  0  0  0  0
 31 33  1  0  0  0  0
 31 34  1  0  0  0  0
 29 30  1  0  0  0  0
 29 31  1  0  0  0  0
M  CHG  1  23   1
M  END
$$$$
default_name
  -OEChem-02102213163D

 34 33  0     1  0  0  0  0  0999 V2000
   -3.8899   -3.6747    1.6490 H   0  0  0  0  0  0  0  0  0  0  0  0
   -3.9109   -2.6717    1.2250 C   0  0  0  0  0  0  0  0  0  0  0  0
   -4.6009   -2.0517    1.7950 H   0  0  0  0  0  0  0  0  0  0  0  0
   -4.2309   -2.7237    0.1860 H   0  0  0  0  0  0  0  0  0  0  0  0
   -2.5229   -2.0787    1.2980 C   0  0  0  0  0  0  0  0  0  0  0  0
   -1.5999   -2.7227    1.7810 O   0  0  0  0  0  0  0  0  0  0  0  0
   -2.3659   -0.8447    0.8120 N   0  0  0  0  0  0  0  0  0  0  0  0
   -3.1749   -0.3807    0.4220 H   0  0  0  0  0  0  0  0  0  0  0  0
   -1.0919   -0.1077    0.8170 C   0  0  1  0  0  0  0  0  0  0  0  0
   -0.4136   -0.6011    1.5155 H   0  0  0  0  0  0  0  0  0  0  0  0
   -0.4834   -0.1723   -0.5965 C   0  0  0  0  0  0  0  0  0  0  0  0
   -1.0003   -0.9489   -1.1623 H   0  0  0  0  0  0  0  0  0  0  0  0
   -0.6465    0.7819   -1.1013 H   0  0  0  0  0  0  0  0  0  0  0  0
    1.0189   -0.4942   -0.5959 C   0  0  0  0  0  0  0  0  0  0  0  0
    1.1735   -1.5269   -0.9116 H   0  0  0  0  0  0  0  0  0  0  0  0
    1.5295    0.1721   -1.2939 H   0  0  0  0  0  0  0  0  0  0  0  0
    1.6058   -0.3041    0.8096 C   0  0  0  0  0  0  0  0  0  0  0  0
    1.4361    0.7270    1.1288 H   0  0  0  0  0  0  0  0  0  0  0  0
    1.0983   -0.9791    1.5017 H   0  0  0  0  0  0  0  0  0  0  0  0
    3.1106   -0.6011    0.8063 C   0  0  0  0  0  0  0  0  0  0  0  0
    3.2596   -1.6346    0.4768 H   0  0  0  0  0  0  0  0  0  0  0  0
    3.5931    0.0562    0.0767 H   0  0  0  0  0  0  0  0  0  0  0  0
    3.7093   -0.4016    2.1503 N   0  3  0  0  0  0  0  0  0  0  0  0
    3.2739   -1.0148    2.8280 H   0  0  0  0  0  0  0  0  0  0  0  0
    4.7016   -0.6012    2.1311 H   0  0  0  0  0  0  0  0  0  0  0  0
    3.5817    0.5560    2.4562 H   0  0  0  0  0  0  0  0  0  0  0  0
   -1.3103    1.3348    1.2791 C   0  0  0  0  0  0  0  0  0  0  0  0
   -2.2333    1.9891    0.8084 O   0  0  0  0  0  0  0  0  0  0  0  0
   -0.4429    1.8293    2.1683 N   0  0  0  0  0  0  0  0  0  0  0  0
    0.2668    1.2118    2.5263 H   0  0  0  0  0  0  0  0  0  0  0  0
   -0.5118    3.1863    2.7135 C   0  0  0  0  0  0  0  0  0  0  0  0
   -1.4470    3.3159    3.2625 H   0  0  0  0  0  0  0  0  0  0  0  0
    0.3243    3.3682    3.3896 H   0  0  0  0  0  0  0  0  0  0  0  0
   -0.4850    3.9172    1.9023 H   0  0  0  0  0  0  0  0  0  0  0  0
  5  6  2  0  0  0  0
  5  7  1  0  0  0  0
  2  3  1  0  0  0  0
  2  4  1  0  0  0  0
  2  5  1  0  0  0  0
  1  2  1  0  0  0  0
 27 28  2  0  0  0  0
 27 29  1  0  0  0  0
 23 24  1  0  0  0  0
 23 25  1  0  0  0  0
 23 26  1  0  0  0  0
 20 21  1  0  0  0  0
 20 22  1  0  0  0  0
 20 23  1  0  0  0  0
 17 18  1  0  0  0  0
 17 19  1  0  0  0  0
 17 20  1  0  0  0  0
 14 15  1  0  0  0  0
 14 16  1  0  0  0  0
 14 17  1  0  0  0  0
 11 12  1  0  0  0  0
 11 13  1  0  0  0  0
 11 14  1  0  0  0  0
  9 10  1  0  0  0  0
  9 11  1  0  0  0  0
  9 27  1  0  0  0  0
  7  8  1  0  0  0  0
  7  9  1  0  0  0  0
 31 32  1  0  0  0  0
 31 33  1  0  0  0  0
 31 34  1  0  0  0  0
 29 30  1  0  0  0  0
 29 31  1  0  0  0  0
M  CHG  1  23   1
M  END
$$$$
default_name
  -OEChem-02102213163D

 34 33  0     1  0  0  0  0  0999 V2000
   -3.8899   -3.6747    1.6490 H   0  0  0  0  0  0  0  0  0  0  0  0
   -3.9109   -2.6717    1.2250 C   0  0  0  0  0  0  0  0  0  0  0  0
   -4.6009   -2.0517    1.7950 H   0  0  0  0  0  0  0  0  0  0  0  0
   -4.2309   -2.7237    0.1860 H   0  0  0  0  0  0  0  0  0  0  0  0
   -2.5229   -2.0787    1.2980 C   0  0  0  0  0  0  0  0  0  0  0  0
   -1.5999   -2.7227    1.7810 O   0  0  0  0  0  0  0  0  0  0  0  0
   -2.3659   -0.8447    0.8120 N   0  0  0  0  0  0  0  0  0  0  0  0
   -3.1749   -0.3807    0.4220 H   0  0  0  0  0  0  0  0  0  0  0  0
   -1.0919   -0.1077    0.8170 C   0  0  1  0  0  0  0  0  0  0  0  0
   -0.4136   -0.6011    1.5155 H   0  0  0  0  0  0  0  0  0  0  0  0
   -0.4834   -0.1723   -0.5965 C   0  0  0  0  0  0  0  0  0  0  0  0
   -1.0003   -0.9489   -1.1623 H   0  0  0  0  0  0  0  0  0  0  0  0
   -0.6465    0.7819   -1.1013 H   0  0  0  0  0  0  0  0  0  0  0  0
    1.0189   -0.4942   -0.5959 C   0  0  0  0  0  0  0  0  0  0  0  0
    1.1977   -1.4144   -1.1538 H   0  0  0  0  0  0  0  0  0  0  0  0
    1.5619    0.3235   -1.0738 H   0  0  0  0  0  0  0  0  0  0  0  0
    1.5274   -0.6701    0.8416 C   0  0  0  0  0  0  0  0  0  0  0  0
    1.3334    0.2478    1.4017 H   0  0  0  0  0  0  0  0  0  0  0  0
    0.9879   -1.4947    1.3118 H   0  0  0  0  0  0  0  0  0  0  0  0
    3.0322   -0.9669    0.8449 C   0  0  0  0  0  0  0  0  0  0  0  0
    3.2062   -1.8843    0.2732 H   0  0  0  0  0  0  0  0  0  0  0  0
    3.5489   -0.1497    0.3327 H   0  0  0  0  0  0  0  0  0  0  0  0
    3.5557   -1.1182    2.2261 N   0  3  0  0  0  0  0  0  0  0  0  0
    3.0886   -1.8799    2.7019 H   0  0  0  0  0  0  0  0  0  0  0  0
    4.5490   -1.3132    2.2109 H   0  0  0  0  0  0  0  0  0  0  0  0
    3.4050   -0.2683    2.7570 H   0  0  0  0  0  0  0  0  0  0  0  0
   -1.3103    1.3348    1.2791 C   0  0  0  0  0  0  0  0  0  0  0  0
   -2.2333    1.9891    0.8084 O   0  0  0  0  0  0  0  0  0  0  0  0
   -0.4429    1.8293    2.1683 N   0  0  0  0  0  0  0  0  0  0  0  0
    0.2668    1.2118    2.5263 H   0  0  0  0  0  0  0  0  0  0  0  0
   -0.5118    3.1863    2.7135 C   0  0  0  0  0  0  0  0  0  0  0  0
   -1.4470    3.3159    3.2625 H   0  0  0  0  0  0  0  0  0  0  0  0
    0.3243    3.3682    3.3896 H   0  0  0  0  0  0  0  0  0  0  0  0
   -0.4850    3.9172    1.9023 H   0  0  0  0  0  0  0  0  0  0  0  0
  5  6  2  0  0  0  0
  5  7  1  0  0  0  0
  2  3  1  0  0  0  0
  2  4  1  0  0  0  0
  2  5  1  0  0  0  0
  1  2  1  0  0  0  0
 27 28  2  0  0  0  0
 27 29  1  0  0  0  0
 23 24  1  0  0  0  0
 23 25  1  0  0  0  0
 23 26  1  0  0  0  0
 20 21  1  0  0  0  0
 20 22  1  0  0  0  0
 20 23  1  0  0  0  0
 17 18  1  0  0  0  0
 17 19  1  0  0  0  0
 17 20  1  0  0  0  0
 14 15  1  0  0  0  0
 14 16  1  0  0  0  0
 14 17  1  0  0  0  0
 11 12  1  0  0  0  0
 11 13  1  0  0  0  0
 11 14  1  0  0  0  0
  9 10  1  0  0  0  0
  9 11  1  0  0  0  0
  9 27  1  0  0  0  0
  7  8  1  0  0  0  0
  7  9  1  0  0  0  0
 31 32  1  0  0  0  0
 31 33  1  0  0  0  0
 31 34  1  0  0  0  0
 29 30  1  0  0  0  0
 29 31  1  0  0  0  0
M  CHG  1  23   1
M  END
$$$$
default_name
  -OEChem-02102213163D

 34 33  0     1  0  0  0  0  0999 V2000
   -3.8899   -3.6747    1.6490 H   0  0  0  0  0  0  0  0  0  0  0  0
   -3.9109   -2.6717    1.2250 C   0  0  0  0  0  0  0  0  0  0  0  0
   -4.6009   -2.0517    1.7950 H   0  0  0  0  0  0  0  0  0  0  0  0
   -4.2309   -2.7237    0.1860 H   0  0  0  0  0  0  0  0  0  0  0  0
   -2.5229   -2.0787    1.2980 C   0  0  0  0  0  0  0  0  0  0  0  0
   -1.5999   -2.7227    1.7810 O   0  0  0  0  0  0  0  0  0  0  0  0
   -2.3659   -0.8447    0.8120 N   0  0  0  0  0  0  0  0  0  0  0  0
   -3.1749   -0.3807    0.4220 H   0  0  0  0  0  0  0  0  0  0  0  0
   -1.0919   -0.1077    0.8170 C   0  0  1  0  0  0  0  0  0  0  0  0
   -0.4136   -0.6011    1.5155 H   0  0  0  0  0  0  0  0  0  0  0  0
   -0.4834   -0.1723   -0.5965 C   0  0  0  0  0  0  0  0  0  0  0  0
   -1.0003   -0.9489   -1.1623 H   0  0  0  0  0  0  0  0  0  0  0  0
   -0.6465    0.7819   -1.1013 H   0  0  0  0  0  0  0  0  0  0  0  0
    1.0189   -0.4942   -0.5959 C   0  0  0  0  0  0  0  0  0  0  0  0
    1.2342   -1.2445   -1.3579 H   0  0  0  0  0  0  0  0  0  0  0  0
    1.5812    0.4141   -0.8211 H   0  0  0  0  0  0  0  0  0  0  0  0
    1.4500   -1.0316    0.7757 C   0  0  0  0  0  0  0  0  0  0  0  0
    1.2194   -0.2841    1.5385 H   0  0  0  0  0  0  0  0  0  0  0  0
    0.8916   -1.9447    0.9919 H   0  0  0  0  0  0  0  0  0  0  0  0
    2.9544   -1.3301    0.7854 C   0  0  0  0  0  0  0  0  0  0  0  0
    3.1656   -2.0741    0.0104 H   0  0  0  0  0  0  0  0  0  0  0  0
    3.4923   -0.4134    0.5254 H   0  0  0  0  0  0  0  0  0  0  0  0
    3.4033   -1.8295    2.1096 N   0  3  0  0  0  0  0  0  0  0  0  0
    2.9165   -2.6837    2.3511 H   0  0  0  0  0  0  0  0  0  0  0  0
    4.3974   -2.0212    2.0994 H   0  0  0  0  0  0  0  0  0  0  0  0
    3.2180   -1.1406    2.8293 H   0  0  0  0  0  0  0  0  0  0  0  0
   -1.3103    1.3348    1.2791 C   0  0  0  0  0  0  0  0  0  0  0  0
   -2.2333    1.9891    0.8084 O   0  0  0  0  0  0  0  0  0  0  0  0
   -0.4429    1.8293    2.1683 N   0  0  0  0  0  0  0  0  0  0  0  0
    0.2668    1.2118    2.5263 H   0  0  0  0  0  0  0  0  0  0  0  0
   -0.5118    3.1863    2.7135 C   0  0  0  0  0  0  0  0  0  0  0  0
   -1.4470    3.3159    3.2625 H   0  0  0  0  0  0  0  0  0  0  0  0
    0.3243    3.3682    3.3896 H   0  0  0  0  0  0  0  0  0  0  0  0
   -0.4850    3.9172    1.9023 H   0  0  0  0  0  0  0  0  0  0  0  0
  5  6  2  0  0  0  0
  5  7  1  0  0  0  0
  2  3  1  0  0  0  0
  2  4  1  0  0  0  0
  2  5  1  0  0  0  0
  1  2  1  0  0  0  0
 27 28  2  0  0  0  0
 27 29  1  0  0  0  0
 23 24  1  0  0  0  0
 23 25  1  0  0  0  0
 23 26  1  0  0  0  0
 20 21  1  0  0  0  0
 20 22  1  0  0  0  0
 20 23  1  0  0  0  0
 17 18  1  0  0  0  0
 17 19  1  0  0  0  0
 17 20  1  0  0  0  0
 14 15  1  0  0  0  0
 14 16  1  0  0  0  0
 14 17  1  0  0  0  0
 11 12  1  0  0  0  0
 11 13  1  0  0  0  0
 11 14  1  0  0  0  0
  9 10  1  0  0  0  0
  9 11  1  0  0  0  0
  9 27  1  0  0  0  0
  7  8  1  0  0  0  0
  7  9  1  0  0  0  0
 31 32  1  0  0  0  0
 31 33  1  0  0  0  0
 31 34  1  0  0  0  0
 29 30  1  0  0  0  0
 29 31  1  0  0  0  0
M  CHG  1  23   1
M  END
$$$$
default_name
  -OEChem-02102213163D

 34 33  0     1  0  0  0  0  0999 V2000
   -3.8899   -3.6747    1.6490 H   0  0  0  0  0  0  0  0  0  0  0  0
   -3.9109   -2.6717    1.2250 C   0  0  0  0  0  0  0  0  0  0  0  0
   -4.6009   -2.0517    1.7950 H   0  0  0  0  0  0  0  0  0  0  0  0
   -4.2309   -2.7237    0.1860 H   0  0  0  0  0  0  0  0  0  0  0  0
   -2.5229   -2.0787    1.2980 C   0  0  0  0  0  0  0  0  0  0  0  0
   -1.5999   -2.7227    1.7810 O   0  0  0  0  0  0  0  0  0  0  0  0
   -2.3659   -0.8447    0.8120 N   0  0  0  0  0  0  0  0  0  0  0  0
   -3.1749   -0.3807    0.4220 H   0  0  0  0  0  0  0  0  0  0  0  0
   -1.0919   -0.1077    0.8170 C   0  0  1  0  0  0  0  0  0  0  0  0
   -0.4136   -0.6011    1.5155 H   0  0  0  0  0  0  0  0  0  0  0  0
   -0.4834   -0.1723   -0.5965 C   0  0  0  0  0  0  0  0  0  0  0  0
   -1.0003   -0.9489   -1.1623 H   0  0  0  0  0  0  0  0  0  0  0  0
   -0.6465    0.7819   -1.1013 H   0  0  0  0  0  0  0  0  0  0  0  0
    1.0189   -0.4942   -0.5959 C   0  0  0  0  0  0  0  0  0  0  0  0
    1.2804   -1.0287   -1.5102 H   0  0  0  0  0  0  0  0  0  0  0  0
    1.5861    0.4376   -0.5531 H   0  0  0  0  0  0  0  0  0  0  0  0
    1.3787   -1.3642    0.6163 C   0  0  0  0  0  0  0  0  0  0  0  0
    1.1019   -0.8325    1.5298 H   0  0  0  0  0  0  0  0  0  0  0  0
    0.8160   -2.2984    0.5638 H   0  0  0  0  0  0  0  0  0  0  0  0
    2.8825   -1.6658    0.6318 C   0  0  0  0  0  0  0  0  0  0  0  0
    3.1407   -2.1909   -0.2936 H   0  0  0  0  0  0  0  0  0  0  0  0
    3.4273   -0.7169    0.6418 H   0  0  0  0  0  0  0  0  0  0  0  0
    3.2625   -2.4872    1.8088 N   0  3  0  0  0  0  0  0  0  0  0  0
    2.7694   -3.3712    1.7995 H   0  0  0  0  0  0  0  0  0  0  0  0
    4.2570   -2.6769    1.8044 H   0  0  0  0  0  0  0  0  0  0  0  0
    3.0336   -2.0016    2.6683 H   0  0  0  0  0  0  0  0  0  0  0  0
   -1.3103    1.3348    1.2791 C   0  0  0  0  0  0  0  0  0  0  0  0
   -2.2333    1.9891    0.8084 O   0  0  0  0  0  0  0  0  0  0  0  0
   -0.4429    1.8293    2.1683 N   0  0  0  0  0  0  0  0  0  0  0  0
    0.2668    1.2118    2.5263 H   0  0  0  0  0  0  0  0  0  0  0  0
   -0.5118    3.1863    2.7135 C   0  0  0  0  0  0  0  0  0  0  0  0
   -1.4470    3.3159    3.2625 H   0  0  0  0  0  0  0  0  0  0  0  0
    0.3243    3.3682    3.3896 H   0  0  0  0  0  0  0  0  0  0  0  0
   -0.4850    3.9172    1.9023 H   0  0  0  0  0  0  0  0  0  0  0  0
  5  6  2  0  0  0  0
  5  7  1  0  0  0  0
  2  3  1  0  0  0  0
  2  4  1  0  0  0  0
  2  5  1  0  0  0  0
  1  2  1  0  0  0  0
 27 28  2  0  0  0  0
 27 29  1  0  0  0  0
 23 24  1  0  0  0  0
 23 25  1  0  0  0  0
 23 26  1  0  0  0  0
 20 21  1  0  0  0  0
 20 22  1  0  0  0  0
 20 23  1  0  0  0  0
 17 18  1  0  0  0  0
 17 19  1  0  0  0  0
 17 20  1  0  0  0  0
 14 15  1  0  0  0  0
 14 16  1  0  0  0  0
 14 17  1  0  0  0  0
 11 12  1  0  0  0  0
 11 13  1  0  0  0  0
 11 14  1  0  0  0  0
  9 10  1  0  0  0  0
  9 11  1  0  0  0  0
  9 27  1  0  0  0  0
  7  8  1  0  0  0  0
  7  9  1  0  0  0  0
 31 32  1  0  0  0  0
 31 33  1  0  0  0  0
 31 34  1  0  0  0  0
 29 30  1  0  0  0  0
 29 31  1  0  0  0  0
M  CHG  1  23   1
M  END
$$$$
default_name
  -OEChem-02102213163D

 34 33  0     1  0  0  0  0  0999 V2000
   -3.8899   -3.6747    1.6490 H   0  0  0  0  0  0  0  0  0  0  0  0
   -3.9109   -2.6717    1.2250 C   0  0  0  0  0  0  0  0  0  0  0  0
   -4.6009   -2.0517    1.7950 H   0  0  0  0  0  0  0  0  0  0  0  0
   -4.2309   -2.7237    0.1860 H   0  0  0  0  0  0  0  0  0  0  0  0
   -2.5229   -2.0787    1.2980 C   0  0  0  0  0  0  0  0  0  0  0  0
   -1.5999   -2.7227    1.7810 O   0  0  0  0  0  0  0  0  0  0  0  0
   -2.3659   -0.8447    0.8120 N   0  0  0  0  0  0  0  0  0  0  0  0
   -3.1749   -0.3807    0.4220 H   0  0  0  0  0  0  0  0  0  0  0  0
   -1.0919   -0.1077    0.8170 C   0  0  1  0  0  0  0  0  0  0  0  0
   -0.4136   -0.6011    1.5155 H   0  0  0  0  0  0  0  0  0  0  0  0
   -0.4834   -0.1723   -0.5965 C   0  0  0  0  0  0  0  0  0  0  0  0
   -1.0003   -0.9489   -1.1623 H   0  0  0  0  0  0  0  0  0  0  0  0
   -0.6465    0.7819   -1.1013 H   0  0  0  0  0  0  0  0  0  0  0  0
    1.0189   -0.4942   -0.5959 C   0  0  0  0  0  0  0  0  0  0  0  0
    1.3334   -0.7817   -1.6001 H   0  0  0  0  0  0  0  0  0  0  0  0
    1.5764    0.3925   -0.2880 H   0  0  0  0  0  0  0  0  0  0  0  0
    1.3186   -1.6452    0.3744 C   0  0  0  0  0  0  0  0  0  0  0  0
    0.9889   -1.3600    1.3763 H   0  0  0  0  0  0  0  0  0  0  0  0
    0.7662   -2.5317    0.0567 H   0  0  0  0  0  0  0  0  0  0  0  0
    2.8215   -1.9511    0.3946 C   0  0  0  0  0  0  0  0  0  0  0  0
    3.1331   -2.2267   -0.6182 H   0  0  0  0  0  0  0  0  0  0  0  0
    3.3581   -1.0394    0.6739 H   0  0  0  0  0  0  0  0  0  0  0  0
    3.1429   -3.0463    1.3442 N   0  3  0  0  0  0  0  0  0  0  0  0
    2.6573   -3.8958    1.0847 H   0  0  0  0  0  0  0  0  0  0  0  0
    4.1374   -3.2355    1.3459 H   0  0  0  0  0  0  0  0  0  0  0  0
    2.8643   -2.7924    2.2848 H   0  0  0  0  0  0  0  0  0  0  0  0
   -1.3103    1.3348    1.2791 C   0  0  0  0  0  0  0  0  0  0  0  0
   -2.2333    1.9891    0.8084 O   0  0  0  0  0  0  0  0  0  0  0  0
   -0.4429    1.8293    2.1683 N   0  0  0  0  0  0  0  0  0  0  0  0
    0.2668    1.2118    2.5263 H   0  0  0  0  0  0  0  0  0  0  0  0
   -0.5118    3.1863    2.7135 C   0  0  0  0  0  0  0  0  0  0  0  0
   -1.4470    3.3159    3.2625 H   0  0  0  0  0  0  0  0  0  0  0  0
    0.3243    3.3682    3.3896 H   0  0  0  0  0  0  0  0  0  0  0  0
   -0.4850    3.9172    1.9023 H   0  0  0  0  0  0  0  0  0  0  0  0
  5  6  2  0  0  0  0
  5  7  1  0  0  0  0
  2  3  1  0  0  0  0
  2  4  1  0  0  0  0
  2  5  1  0  0  0  0
  1  2  1  0  0  0  0
 27 28  2  0  0  0  0
 27 29  1  0  0  0  0
 23 24  1  0  0  0  0
 23 25  1  0  0  0  0
 23 26  1  0  0  0  0
 20 21  1  0  0  0  0
 20 22  1  0  0  0  0
 20 23  1  0  0  0  0
 17 18  1  0  0  0  0
 17 19  1  0  0  0  0
 17 20  1  0  0  0  0
 14 15  1  0  0  0  0
 14 16  1  0  0  0  0
 14 17  1  0  0  0  0
 11 12  1  0  0  0  0
 11 13  1  0  0  0  0
 11 14  1  0  0  0  0
  9 10  1  0  0  0  0
  9 11  1  0  0  0  0
  9 27  1  0  0  0  0
  7  8  1  0  0  0  0
  7  9  1  0  0  0  0
 31 32  1  0  0  0  0
 31 33  1  0  0  0  0
 31 34  1  0  0  0  0
 29 30  1  0  0  0  0
 29 31  1  0  0  0  0
M  CHG  1  23   1
M  END
$$$$
default_name
  -OEChem-02102213163D

 34 33  0     1  0  0  0  0  0999 V2000
   -3.8899   -3.6747    1.6490 H   0  0  0  0  0  0  0  0  0  0  0  0
   -3.9109   -2.6717    1.2250 C   0  0  0  0  0  0  0  0  0  0  0  0
   -4.6009   -2.0517    1.7950 H   0  0  0  0  0  0  0  0  0  0  0  0
   -4.2309   -2.7237    0.1860 H   0  0  0  0  0  0  0  0  0  0  0  0
   -2.5229   -2.0787    1.2980 C   0  0  0  0  0  0  0  0  0  0  0  0
   -1.5999   -2.7227    1.7810 O   0  0  0  0  0  0  0  0  0  0  0  0
   -2.3659   -0.8447    0.8120 N   0  0  0  0  0  0  0  0  0  0  0  0
   -3.1749   -0.3807    0.4220 H   0  0  0  0  0  0  0  0  0  0  0  0
   -1.0919   -0.1077    0.8170 C   0  0  1  0  0  0  0  0  0  0  0  0
   -0.4136   -0.6011    1.5155 H   0  0  0  0  0  0  0  0  0  0  0  0
   -0.4834   -0.1723   -0.5965 C   0  0  0  0  0  0  0  0  0  0  0  0
   -1.0003   -0.9489   -1.1623 H   0  0  0  0  0  0  0  0  0  0  0  0
   -0.6465    0.7819   -1.1013 H   0  0  0  0  0  0  0  0  0  0  0  0
    1.0189   -0.4942   -0.5959 C   0  0  0  0  0  0  0  0  0  0  0  0
    1.3894   -0.5204   -1.6216 H   0  0  0  0  0  0  0  0  0  0  0  0
    1.5526    0.2818   -0.0438 H   0  0  0  0  0  0  0  0  0  0  0  0
    1.2737   -1.8553    0.0663 C   0  0  0  0  0  0  0  0  0  0  0  0
    0.8881   -1.8307    1.0883 H   0  0  0  0  0  0  0  0  0  0  0  0
    0.7456   -2.6288   -0.4949 H   0  0  0  0  0  0  0  0  0  0  0  0
    2.7754   -2.1668    0.0899 C   0  0  0  0  0  0  0  0  0  0  0  0
    3.1434   -2.1792   -0.9412 H   0  0  0  0  0  0  0  0  0  0  0  0
    3.2896   -1.3592    0.6195 H   0  0  0  0  0  0  0  0  0  0  0  0
    3.0526   -3.4688    0.7474 N   0  3  0  0  0  0  0  0  0  0  0  0
    2.5877   -4.2216    0.2555 H   0  0  0  0  0  0  0  0  0  0  0  0
    4.0469   -3.6591    0.7551 H   0  0  0  0  0  0  0  0  0  0  0  0
    2.7216   -3.4593    1.7052 H   0  0  0  0  0  0  0  0  0  0  0  0
   -1.3103    1.3348    1.2791 C   0  0  0  0  0  0  0  0  0  0  0  0
   -2.2333    1.9891    0.8084 O   0  0  0  0  0  0  0  0  0  0  0  0
   -0.4429    1.8293    2.1683 N   0  0  0  0  0  0  0  0  0  0  0  0
    0.2668    1.2118    2.5263 H   0  0  0  0  0  0  0  0  0  0  0  0
   -0.5118    3.1863    2.7135 C   0  0  0  0  0  0  0  0  0  0  0  0
   -1.4470    3.3159    3.2625 H   0  0  0  0  0  0  0  0  0  0  0  0
    0.3243    3.3682    3.3896 H   0  0  0  0  0  0  0  0  0  0  0  0
   -0.4850    3.9172    1.9023 H   0  0  0  0  0  0  0  0  0  0  0  0
  5  6  2  0  0  0  0
  5  7  1  0  0  0  0
  2  3  1  0  0  0  0
  2  4  1  0  0  0  0
  2  5  1  0  0  0  0
  1  2  1  0  0  0  0
 27 28  2  0  0  0  0
 27 29  1  0  0  0  0
 23 24  1  0  0  0  0
 23 25  1  0  0  0  0
 23 26  1  0  0  0  0
 20 21  1  0  0  0  0
 20 22  1  0  0  0  0
 20 23  1  0  0  0  0
 17 18  1  0  0  0  0
 17 19  1  0  0  0  0
 17 20  1  0  0  0  0
 14 15  1  0  0  0  0
 14 16  1  0  0  0  0
 14 17  1  0  0  0  0
 11 12  1  0  0  0  0
 11 13  1  0  0  0  0
 11 14  1  0  0  0  0
  9 10  1  0  0  0  0
  9 11  1  0  0  0  0
  9 27  1  0  0  0  0
  7  8  1  0  0  0  0
  7  9  1  0  0  0  0
 31 32  1  0  0  0  0
 31 33  1  0  0  0  0
 31 34  1  0  0  0  0
 29 30  1  0  0  0  0
 29 31  1  0  0  0  0
M  CHG  1  23   1
M  END
$$$$
default_name
  -OEChem-02102213163D

 34 33  0     1  0  0  0  0  0999 V2000
   -3.8899   -3.6747    1.6490 H   0  0  0  0  0  0  0  0  0  0  0  0
   -3.9109   -2.6717    1.2250 C   0  0  0  0  0  0  0  0  0  0  0  0
   -4.6009   -2.0517    1.7950 H   0  0  0  0  0  0  0  0  0  0  0  0
   -4.2309   -2.7237    0.1860 H   0  0  0  0  0  0  0  0  0  0  0  0
   -2.5229   -2.0787    1.2980 C   0  0  0  0  0  0  0  0  0  0  0  0
   -1.5999   -2.7227    1.7810 O   0  0  0  0  0  0  0  0  0  0  0  0
   -2.3659   -0.8447    0.8120 N   0  0  0  0  0  0  0  0  0  0  0  0
   -3.1749   -0.3807    0.4220 H   0  0  0  0  0  0  0  0  0  0  0  0
   -1.0919   -0.1077    0.8170 C   0  0  1  0  0  0  0  0  0  0  0  0
   -0.4136   -0.6011    1.5155 H   0  0  0  0  0  0  0  0  0  0  0  0
   -0.4834   -0.1723   -0.5965 C   0  0  0  0  0  0  0  0  0  0  0  0
   -1.0003   -0.9489   -1.1623 H   0  0  0  0  0  0  0  0  0  0  0  0
   -0.6465    0.7819   -1.1013 H   0  0  0  0  0  0  0  0  0  0  0  0
    1.0189   -0.4942   -0.5959 C   0  0  0  0  0  0  0  0  0  0  0  0
    1.4446   -0.2625   -1.5732 H   0  0  0  0  0  0  0  0  0  0  0  0
    1.5164    0.1131    0.1627 H   0  0  0  0  0  0  0  0  0  0  0  0
    1.2471   -1.9803   -0.2869 C   0  0  0  0  0  0  0  0  0  0  0  0
    0.8065   -2.2125    0.6856 H   0  0  0  0  0  0  0  0  0  0  0  0
    0.7556   -2.5829   -1.0533 H   0  0  0  0  0  0  0  0  0  0  0  0
    2.7474   -2.2979   -0.2615 C   0  0  0  0  0  0  0  0  0  0  0  0
    3.1709   -2.0516   -1.2406 H   0  0  0  0  0  0  0  0  0  0  0  0
    3.2265   -1.6542    0.4824 H   0  0  0  0  0  0  0  0  0  0  0  0
    2.9977   -3.7259    0.0592 N   0  3  0  0  0  0  0  0  0  0  0  0
    2.5656   -4.3264   -0.6317 H   0  0  0  0  0  0  0  0  0  0  0  0
    3.9915   -3.9188    0.0724 H   0  0  0  0  0  0  0  0  0  0  0  0
    2.6153   -3.9568    0.9687 H   0  0  0  0  0  0  0  0  0  0  0  0
   -1.3103    1.3348    1.2791 C   0  0  0  0  0  0  0  0  0  0  0  0
   -2.2333    1.9891    0.8084 O   0  0  0  0  0  0  0  0  0  0  0  0
   -0.4429    1.8293    2.1683 N   0  0  0  0  0  0  0  0  0  0  0  0
    0.2668    1.2118    2.5263 H   0  0  0  0  0  0  0  0  0  0  0  0
   -0.5118    3.1863    2.7135 C   0  0  0  0  0  0  0  0  0  0  0  0
   -1.4470    3.3159    3.2625 H   0  0  0  0  0  0  0  0  0  0  0  0
    0.3243    3.3682    3.3896 H   0  0  0  0  0  0  0  0  0  0  0  0
   -0.4850    3.9172    1.9023 H   0  0  0  0  0  0  0  0  0  0  0  0
  5  6  2  0  0  0  0
  5  7  1  0  0  0  0
  2  3  1  0  0  0  0
  2  4  1  0  0  0  0
  2  5  1  0  0  0  0
  1  2  1  0  0  0  0
 27 28  2  0  0  0  0
 27 29  1  0  0  0  0
 23 24  1  0  0  0  0
 23 25  1  0  0  0  0
 23 26  1  0  0  0  0
 20 21  1  0  0  0  0
 20 22  1  0  0  0  0
 20 23  1  0  0  0  0
 17 18  1  0  0  0  0
 17 19  1  0  0  0  0
 17 20  1  0  0  0  0
 14 15  1  0  0  0  0
 14 16  1  0  0  0  0
 14 17  1  0  0  0  0
 11 12  1  0  0  0  0
 11 13  1  0  0  0  0
 11 14  1  0  0  0  0
  9 10  1  0  0  0  0
  9 11  1  0  0  0  0
  9 27  1  0  0  0  0
  7  8  1  0  0  0  0
  7  9  1  0  0  0  0
 31 32  1  0  0  0  0
 31 33  1  0  0  0  0
 31 34  1  0  0  0  0
 29 30  1  0  0  0  0
 29 31  1  0  0  0  0
M  CHG  1  23   1
M  END
$$$$
default_name
  -OEChem-02102213163D

 34 33  0     1  0  0  0  0  0999 V2000
   -3.8899   -3.6747    1.6490 H   0  0  0  0  0  0  0  0  0  0  0  0
   -3.9109   -2.6717    1.2250 C   0  0  0  0  0  0  0  0  0  0  0  0
   -4.6009   -2.0517    1.7950 H   0  0  0  0  0  0  0  0  0  0  0  0
   -4.2309   -2.7237    0.1860 H   0  0  0  0  0  0  0  0  0  0  0  0
   -2.5229   -2.0787    1.2980 C   0  0  0  0  0  0  0  0  0  0  0  0
   -1.5999   -2.7227    1.7810 O   0  0  0  0  0  0  0  0  0  0  0  0
   -2.3659   -0.8447    0.8120 N   0  0  0  0  0  0  0  0  0  0  0  0
   -3.1749   -0.3807    0.4220 H   0  0  0  0  0  0  0  0  0  0  0  0
   -1.0919   -0.1077    0.8170 C   0  0  1  0  0  0  0  0  0  0  0  0
   -0.4136   -0.6011    1.5155 H   0  0  0  0  0  0  0  0  0  0  0  0
   -0.4834   -0.1723   -0.5965 C   0  0  0  0  0  0  0  0  0  0  0  0
   -1.0003   -0.9489   -1.1623 H   0  0  0  0  0  0  0  0  0  0  0  0
   -0.6465    0.7819   -1.1013 H   0  0  0  0  0  0  0  0  0  0  0  0
    1.0189   -0.4942   -0.5959 C   0  0  0  0  0  0  0  0  0  0  0  0
    1.4953   -0.0257   -1.4581 H   0  0  0  0  0  0  0  0  0  0  0  0
    1.4702   -0.1021    0.3175 H   0  0  0  0  0  0  0  0  0  0  0  0
    1.2405   -2.0117   -0.6612 C   0  0  0  0  0  0  0  0  0  0  0  0
    0.7495   -2.4794    0.1956 H   0  0  0  0  0  0  0  0  0  0  0  0
    0.7956   -2.3973   -1.5806 H   0  0  0  0  0  0  0  0  0  0  0  0
    2.7394   -2.3357   -0.6356 C   0  0  0  0  0  0  0  0  0  0  0  0
    3.2136   -1.8525   -1.4961 H   0  0  0  0  0  0  0  0  0  0  0  0
    3.1729   -1.9046    0.2718 H   0  0  0  0  0  0  0  0  0  0  0  0
    2.9821   -3.8000   -0.6736 N   0  3  0  0  0  0  0  0  0  0  0  0
    2.5923   -4.2032   -1.5165 H   0  0  0  0  0  0  0  0  0  0  0  0
    3.9750   -3.9968   -0.6559 H   0  0  0  0  0  0  0  0  0  0  0  0
    2.5525   -4.2510    0.1257 H   0  0  0  0  0  0  0  0  0  0  0  0
   -1.3103    1.3348    1.2791 C   0  0  0  0  0  0  0  0  0  0  0  0
   -2.2333    1.9891    0.8084 O   0  0  0  0  0  0  0  0  0  0  0  0
   -0.4429    1.8293    2.1683 N   0  0  0  0  0  0  0  0  0  0  0  0
    0.2668    1.2118    2.5263 H   0  0  0  0  0  0  0  0  0  0  0  0
   -0.5118    3.1863    2.7135 C   0  0  0  0  0  0  0  0  0  0  0  0
   -1.4470    3.3159    3.2625 H   0  0  0  0  0  0  0  0  0  0  0  0
    0.3243    3.3682    3.3896 H   0  0  0  0  0  0  0  0  0  0  0  0
   -0.4850    3.9172    1.9023 H   0  0  0  0  0  0  0  0  0  0  0  0
  5  6  2  0  0  0  0
  5  7  1  0  0  0  0
  2  3  1  0  0  0  0
  2  4  1  0  0  0  0
  2  5  1  0  0  0  0
  1  2  1  0  0  0  0
 27 28  2  0  0  0  0
 27 29  1  0  0  0  0
 23 24  1  0  0  0  0
 23 25  1  0  0  0  0
 23 26  1  0  0  0  0
 20 21  1  0  0  0  0
 20 22  1  0  0  0  0
 20 23  1  0  0  0  0
 17 18  1  0  0  0  0
 17 19  1  0  0  0  0
 17 20  1  0  0  0  0
 14 15  1  0  0  0  0
 14 16  1  0  0  0  0
 14 17  1  0  0  0  0
 11 12  1  0  0  0  0
 11 13  1  0  0  0  0
 11 14  1  0  0  0  0
  9 10  1  0  0  0  0
  9 11  1  0  0  0  0
  9 27  1  0  0  0  0
  7  8  1  0  0  0  0
  7  9  1  0  0  0  0
 31 32  1  0  0  0  0
 31 33  1  0  0  0  0
 31 34  1  0  0  0  0
 29 30  1  0  0  0  0
 29 31  1  0  0  0  0
M  CHG  1  23   1
M  END
$$$$
default_name
  -OEChem-02102213163D

 34 33  0     1  0  0  0  0  0999 V2000
   -3.8899   -3.6747    1.6490 H   0  0  0  0  0  0  0  0  0  0  0  0
   -3.9109   -2.6717    1.2250 C   0  0  0  0  0  0  0  0  0  0  0  0
   -4.6009   -2.0517    1.7950 H   0  0  0  0  0  0  0  0  0  0  0  0
   -4.2309   -2.7237    0.1860 H   0  0  0  0  0  0  0  0  0  0  0  0
   -2.5229   -2.0787    1.2980 C   0  0  0  0  0  0  0  0  0  0  0  0
   -1.5999   -2.7227    1.7810 O   0  0  0  0  0  0  0  0  0  0  0  0
   -2.3659   -0.8447    0.8120 N   0  0  0  0  0  0  0  0  0  0  0  0
   -3.1749   -0.3807    0.4220 H   0  0  0  0  0  0  0  0  0  0  0  0
   -1.0919   -0.1077    0.8170 C   0  0  1  0  0  0  0  0  0  0  0  0
   -0.4136   -0.6011    1.5155 H   0  0  0  0  0  0  0  0  0  0  0  0
   -0.4834   -0.1723   -0.5965 C   0  0  0  0  0  0  0  0  0  0  0  0
   -1.0003   -0.9489   -1.1623 H   0  0  0  0  0  0  0  0  0  0  0  0
   -0.6465    0.7819   -1.1013 H   0  0  0  0  0  0  0  0  0  0  0  0
    1.0189   -0.4942   -0.5959 C   0  0  0  0  0  0  0  0  0  0  0  0
    1.5381    0.1740   -1.2843 H   0  0  0  0  0  0  0  0  0  0  0  0
    1.4172   -0.3491    0.4101 H   0  0  0  0  0  0  0  0  0  0  0  0
    1.2544   -1.9473   -1.0309 C   0  0  0  0  0  0  0  0  0  0  0  0
    0.7210   -2.6132   -0.3484 H   0  0  0  0  0  0  0  0  0  0  0  0
    0.8627   -2.0846   -2.0408 H   0  0  0  0  0  0  0  0  0  0  0  0
    2.7520   -2.2775   -1.0070 C   0  0  0  0  0  0  0  0  0  0  0  0
    3.2688   -1.5956   -1.6901 H   0  0  0  0  0  0  0  0  0  0  0  0
    3.1326   -2.0931    0.0022 H   0  0  0  0  0  0  0  0  0  0  0  0
    3.0068   -3.6862   -1.4011 N   0  3  0  0  0  0  0  0  0  0  0  0
    2.6661   -3.8602   -2.3384 H   0  0  0  0  0  0  0  0  0  0  0  0
    3.9986   -3.8879   -1.3799 H   0  0  0  0  0  0  0  0  0  0  0  0
    2.5377   -4.3218   -0.7665 H   0  0  0  0  0  0  0  0  0  0  0  0
   -1.3103    1.3348    1.2791 C   0  0  0  0  0  0  0  0  0  0  0  0
   -2.2333    1.9891    0.8084 O   0  0  0  0  0  0  0  0  0  0  0  0
   -0.4429    1.8293    2.1683 N   0  0  0  0  0  0  0  0  0  0  0  0
    0.2668    1.2118    2.5263 H   0  0  0  0  0  0  0  0  0  0  0  0
   -0.5118    3.1863    2.7135 C   0  0  0  0  0  0  0  0  0  0  0  0
   -1.4470    3.3159    3.2625 H   0  0  0  0  0  0  0  0  0  0  0  0
    0.3243    3.3682    3.3896 H   0  0  0  0  0  0  0  0  0  0  0  0
   -0.4850    3.9172    1.9023 H   0  0  0  0  0  0  0  0  0  0  0  0
  5  6  2  0  0  0  0
  5  7  1  0  0  0  0
  2  3  1  0  0  0  0
  2  4  1  0  0  0  0
  2  5  1  0  0  0  0
  1  2  1  0  0  0  0
 27 28  2  0  0  0  0
 27 29  1  0  0  0  0
 23 24  1  0  0  0  0
 23 25  1  0  0  0  0
 23 26  1  0  0  0  0
 20 21  1  0  0  0  0
 20 22  1  0  0  0  0
 20 23  1  0  0  0  0
 17 18  1  0  0  0  0
 17 19  1  0  0  0  0
 17 20  1  0  0  0  0
 14 15  1  0  0  0  0
 14 16  1  0  0  0  0
 14 17  1  0  0  0  0
 11 12  1  0  0  0  0
 11 13  1  0  0  0  0
 11 14  1  0  0  0  0
  9 10  1  0  0  0  0
  9 11  1  0  0  0  0
  9 27  1  0  0  0  0
  7  8  1  0  0  0  0
  7  9  1  0  0  0  0
 31 32  1  0  0  0  0
 31 33  1  0  0  0  0
 31 34  1  0  0  0  0
 29 30  1  0  0  0  0
 29 31  1  0  0  0  0
M  CHG  1  23   1
M  END
$$$$
default_name
  -OEChem-02102213163D

 34 33  0     1  0  0  0  0  0999 V2000
   -3.8899   -3.6747    1.6490 H   0  0  0  0  0  0  0  0  0  0  0  0
   -3.9109   -2.6717    1.2250 C   0  0  0  0  0  0  0  0  0  0  0  0
   -4.6009   -2.0517    1.7950 H   0  0  0  0  0  0  0  0  0  0  0  0
   -4.2309   -2.7237    0.1860 H   0  0  0  0  0  0  0  0  0  0  0  0
   -2.5229   -2.0787    1.2980 C   0  0  0  0  0  0  0  0  0  0  0  0
   -1.5999   -2.7227    1.7810 O   0  0  0  0  0  0  0  0  0  0  0  0
   -2.3659   -0.8447    0.8120 N   0  0  0  0  0  0  0  0  0  0  0  0
   -3.1749   -0.3807    0.4220 H   0  0  0  0  0  0  0  0  0  0  0  0
   -1.0919   -0.1077    0.8170 C   0  0  1  0  0  0  0  0  0  0  0  0
   -0.4136   -0.6011    1.5155 H   0  0  0  0  0  0  0  0  0  0  0  0
   -0.4834   -0.1723   -0.5965 C   0  0  0  0  0  0  0  0  0  0  0  0
   -1.0003   -0.9489   -1.1623 H   0  0  0  0  0  0  0  0  0  0  0  0
   -0.6465    0.7819   -1.1013 H   0  0  0  0  0  0  0  0  0  0  0  0
    1.0189   -0.4942   -0.5959 C   0  0  0  0  0  0  0  0  0  0  0  0
    1.5699    0.3228   -1.0636 H   0  0  0  0  0  0  0  0  0  0  0  0
    1.3611   -0.6112    0.4342 H   0  0  0  0  0  0  0  0  0  0  0  0
    1.2879   -1.7915   -1.3711 C   0  0  0  0  0  0  0  0  0  0  0  0
    0.7230   -2.6048   -0.9093 H   0  0  0  0  0  0  0  0  0  0  0  0
    0.9526   -1.6660   -2.4025 H   0  0  0  0  0  0  0  0  0  0  0  0
    2.7843   -2.1273   -1.3503 C   0  0  0  0  0  0  0  0  0  0  0  0
    3.3325   -1.2983   -1.8095 H   0  0  0  0  0  0  0  0  0  0  0  0
    3.1083   -2.2069   -0.3082 H   0  0  0  0  0  0  0  0  0  0  0  0
    3.0700   -3.3921   -2.0737 N   0  3  0  0  0  0  0  0  0  0  0  0
    2.7819   -3.3209   -3.0415 H   0  0  0  0  0  0  0  0  0  0  0  0
    4.0607   -3.5995   -2.0504 H   0  0  0  0  0  0  0  0  0  0  0  0
    2.5717   -4.1644   -1.6469 H   0  0  0  0  0  0  0  0  0  0  0  0
   -1.3103    1.3348    1.2791 C   0  0  0  0  0  0  0  0  0  0  0  0
   -2.2333    1.9891    0.8084 O   0  0  0  0  0  0  0  0  0  0  0  0
   -0.4429    1.8293    2.1683 N   0  0  0  0  0  0  0  0  0  0  0  0
    0.2668    1.2118    2.5263 H   0  0  0  0  0  0  0  0  0  0  0  0
   -0.5118    3.1863    2.7135 C   0  0  0  0  0  0  0  0  0  0  0  0
   -1.4470    3.3159    3.2625 H   0  0  0  0  0  0  0  0  0  0  0  0
    0.3243    3.3682    3.3896 H   0  0  0  0  0  0  0  0  0  0  0  0
   -0.4850    3.9172    1.9023 H   0  0  0  0  0  0  0  0  0  0  0  0
  5  6  2  0  0  0  0
  5  7  1  0  0  0  0
  2  3  1  0  0  0  0
  2  4  1  0  0  0  0
  2  5  1  0  0  0  0
  1  2  1  0  0  0  0
 27 28  2  0  0  0  0
 27 29  1  0  0  0  0
 23 24  1  0  0  0  0
 23 25  1  0  0  0  0
 23 26  1  0  0  0  0
 20 21  1  0  0  0  0
 20 22  1  0  0  0  0
 20 23  1  0  0  0  0
 17 18  1  0  0  0  0
 17 19  1  0  0  0  0
 17 20  1  0  0  0  0
 14 15  1  0  0  0  0
 14 16  1  0  0  0  0
 14 17  1  0  0  0  0
 11 12  1  0  0  0  0
 11 13  1  0  0  0  0
 11 14  1  0  0  0  0
  9 10  1  0  0  0  0
  9 11  1  0  0  0  0
  9 27  1  0  0  0  0
  7  8  1  0  0  0  0
  7  9  1  0  0  0  0
 31 32  1  0  0  0  0
 31 33  1  0  0  0  0
 31 34  1  0  0  0  0
 29 30  1  0  0  0  0
 29 31  1  0  0  0  0
M  CHG  1  23   1
M  END
$$$$
default_name
  -OEChem-02102213163D

 34 33  0     1  0  0  0  0  0999 V2000
   -3.8899   -3.6747    1.6490 H   0  0  0  0  0  0  0  0  0  0  0  0
   -3.9109   -2.6717    1.2250 C   0  0  0  0  0  0  0  0  0  0  0  0
   -4.6009   -2.0517    1.7950 H   0  0  0  0  0  0  0  0  0  0  0  0
   -4.2309   -2.7237    0.1860 H   0  0  0  0  0  0  0  0  0  0  0  0
   -2.5229   -2.0787    1.2980 C   0  0  0  0  0  0  0  0  0  0  0  0
   -1.5999   -2.7227    1.7810 O   0  0  0  0  0  0  0  0  0  0  0  0
   -2.3659   -0.8447    0.8120 N   0  0  0  0  0  0  0  0  0  0  0  0
   -3.1749   -0.3807    0.4220 H   0  0  0  0  0  0  0  0  0  0  0  0
   -1.0919   -0.1077    0.8170 C   0  0  1  0  0  0  0  0  0  0  0  0
   -0.4136   -0.6011    1.5155 H   0  0  0  0  0  0  0  0  0  0  0  0
   -0.4834   -0.1723   -0.5965 C   0  0  0  0  0  0  0  0  0  0  0  0
   -1.0003   -0.9489   -1.1623 H   0  0  0  0  0  0  0  0  0  0  0  0
   -0.6465    0.7819   -1.1013 H   0  0  0  0  0  0  0  0  0  0  0  0
    1.0189   -0.4942   -0.5959 C   0  0  0  0  0  0  0  0  0  0  0  0
    1.5886    0.4108   -0.8110 H   0  0  0  0  0  0  0  0  0  0  0  0
    1.3055   -0.8705    0.3880 H   0  0  0  0  0  0  0  0  0  0  0  0
    1.3387   -1.5549   -1.6584 C   0  0  0  0  0  0  0  0  0  0  0  0
    0.7554   -2.4547   -1.4488 H   0  0  0  0  0  0  0  0  0  0  0  0
    1.0589   -1.1702   -2.6411 H   0  0  0  0  0  0  0  0  0  0  0  0
    2.8342   -1.8954   -1.6421 C   0  0  0  0  0  0  0  0  0  0  0  0
    3.4005   -0.9809   -1.8462 H   0  0  0  0  0  0  0  0  0  0  0  0
    3.1017   -2.2383   -0.6381 H   0  0  0  0  0  0  0  0  0  0  0  0
    3.1676   -2.9378   -2.6454 N   0  3  0  0  0  0  0  0  0  0  0  0
    2.9319   -2.6221   -3.5779 H   0  0  0  0  0  0  0  0  0  0  0  0
    4.1569   -3.1512   -2.6218 H   0  0  0  0  0  0  0  0  0  0  0  0
    2.6523   -3.7896   -2.4557 H   0  0  0  0  0  0  0  0  0  0  0  0
   -1.3103    1.3348    1.2791 C   0  0  0  0  0  0  0  0  0  0  0  0
   -2.2333    1.9891    0.8084 O   0  0  0  0  0  0  0  0  0  0  0  0
   -0.4429    1.8293    2.1683 N   0  0  0  0  0  0  0  0  0  0  0  0
    0.2668    1.2118    2.5263 H   0  0  0  0  0  0  0  0  0  0  0  0
   -0.5118    3.1863    2.7135 C   0  0  0  0  0  0  0  0  0  0  0  0
   -1.4470    3.3159    3.2625 H   0  0  0  0  0  0  0  0  0  0  0  0
    0.3243    3.3682    3.3896 H   0  0  0  0  0  0  0  0  0  0  0  0
   -0.4850    3.9172    1.9023 H   0  0  0  0  0  0  0  0  0  0  0  0
  5  6  2  0  0  0  0
  5  7  1  0  0  0  0
  2  3  1  0  0  0  0
  2  4  1  0  0  0  0
  2  5  1  0  0  0  0
  1  2  1  0  0  0  0
 27 28  2  0  0  0  0
 27 29  1  0  0  0  0
 23 24  1  0  0  0  0
 23 25  1  0  0  0  0
 23 26  1  0  0  0  0
 20 21  1  0  0  0  0
 20 22  1  0  0  0  0
 20 23  1  0  0  0  0
 17 18  1  0  0  0  0
 17 19  1  0  0  0  0
 17 20  1  0  0  0  0
 14 15  1  0  0  0  0
 14 16  1  0  0  0  0
 14 17  1  0  0  0  0
 11 12  1  0  0  0  0
 11 13  1  0  0  0  0
 11 14  1  0  0  0  0
  9 10  1  0  0  0  0
  9 11  1  0  0  0  0
  9 27  1  0  0  0  0
  7  8  1  0  0  0  0
  7  9  1  0  0  0  0
 31 32  1  0  0  0  0
 31 33  1  0  0  0  0
 31 34  1  0  0  0  0
 29 30  1  0  0  0  0
 29 31  1  0  0  0  0
M  CHG  1  23   1
M  END
$$$$
default_name
  -OEChem-02102213163D

 34 33  0     1  0  0  0  0  0999 V2000
   -3.8899   -3.6747    1.6490 H   0  0  0  0  0  0  0  0  0  0  0  0
   -3.9109   -2.6717    1.2250 C   0  0  0  0  0  0  0  0  0  0  0  0
   -4.6009   -2.0517    1.7950 H   0  0  0  0  0  0  0  0  0  0  0  0
   -4.2309   -2.7237    0.1860 H   0  0  0  0  0  0  0  0  0  0  0  0
   -2.5229   -2.0787    1.2980 C   0  0  0  0  0  0  0  0  0  0  0  0
   -1.5999   -2.7227    1.7810 O   0  0  0  0  0  0  0  0  0  0  0  0
   -2.3659   -0.8447    0.8120 N   0  0  0  0  0  0  0  0  0  0  0  0
   -3.1749   -0.3807    0.4220 H   0  0  0  0  0  0  0  0  0  0  0  0
   -1.0919   -0.1077    0.8170 C   0  0  1  0  0  0  0  0  0  0  0  0
   -0.4136   -0.6011    1.5155 H   0  0  0  0  0  0  0  0  0  0  0  0
   -0.4834   -0.1723   -0.5965 C   0  0  0  0  0  0  0  0  0  0  0  0
   -1.0003   -0.9489   -1.1623 H   0  0  0  0  0  0  0  0  0  0  0  0
   -0.6465    0.7819   -1.1013 H   0  0  0  0  0  0  0  0  0  0  0  0
    1.0189   -0.4942   -0.5959 C   0  0  0  0  0  0  0  0  0  0  0  0
    1.5930    0.4318   -0.5438 H   0  0  0  0  0  0  0  0  0  0  0  0
    1.2544   -1.1092    0.2748 H   0  0  0  0  0  0  0  0  0  0  0  0
    1.4033   -1.2537   -1.8732 C   0  0  0  0  0  0  0  0  0  0  0  0
    0.8158   -2.1731   -1.9301 H   0  0  0  0  0  0  0  0  0  0  0  0
    1.1745   -0.6309   -2.7403 H   0  0  0  0  0  0  0  0  0  0  0  0
    2.8981   -1.5975   -1.8626 C   0  0  0  0  0  0  0  0  0  0  0  0
    3.4682   -0.6650   -1.7976 H   0  0  0  0  0  0  0  0  0  0  0  0
    3.1132   -2.1852   -0.9651 H   0  0  0  0  0  0  0  0  0  0  0  0
    3.2927   -2.3544   -3.0775 N   0  3  0  0  0  0  0  0  0  0  0  0
    3.1057   -1.8113   -3.9111 H   0  0  0  0  0  0  0  0  0  0  0  0
    4.2809   -2.5736   -3.0549 H   0  0  0  0  0  0  0  0  0  0  0  0
    2.7740   -3.2228   -3.1377 H   0  0  0  0  0  0  0  0  0  0  0  0
   -1.3103    1.3348    1.2791 C   0  0  0  0  0  0  0  0  0  0  0  0
   -2.2333    1.9891    0.8084 O   0  0  0  0  0  0  0  0  0  0  0  0
   -0.4429    1.8293    2.1683 N   0  0  0  0  0  0  0  0  0  0  0  0
    0.2668    1.2118    2.5263 H   0  0  0  0  0  0  0  0  0  0  0  0
   -0.5118    3.1863    2.7135 C   0  0  0  0  0  0  0  0  0  0  0  0
   -1.4470    3.3159    3.2625 H   0  0  0  0  0  0  0  0  0  0  0  0
    0.3243    3.3682    3.3896 H   0  0  0  0  0  0  0  0  0  0  0  0
   -0.4850    3.9172    1.9023 H   0  0  0  0  0  0  0  0  0  0  0  0
  5  6  2  0  0  0  0
  5  7  1  0  0  0  0
  2  3  1  0  0  0  0
  2  4  1  0  0  0  0
  2  5  1  0  0  0  0
  1  2  1  0  0  0  0
 27 28  2  0  0  0  0
 27 29  1  0  0  0  0
 23 24  1  0  0  0  0
 23 25  1  0  0  0  0
 23 26  1  0  0  0  0
 20 21  1  0  0  0  0
 20 22  1  0  0  0  0
 20 23  1  0  0  0  0
 17 18  1  0  0  0  0
 17 19  1  0  0  0  0
 17 20  1  0  0  0  0
 14 15  1  0  0  0  0
 14 16  1  0  0  0  0
 14 17  1  0  0  0  0
 11 12  1  0  0  0  0
 11 13  1  0  0  0  0
 11 14  1  0  0  0  0
  9 10  1  0  0  0  0
  9 11  1  0  0  0  0
  9 27  1  0  0  0  0
  7  8  1  0  0  0  0
  7  9  1  0  0  0  0
 31 32  1  0  0  0  0
 31 33  1  0  0  0  0
 31 34  1  0  0  0  0
 29 30  1  0  0  0  0
 29 31  1  0  0  0  0
M  CHG  1  23   1
M  END
$$$$
default_name
  -OEChem-02102213163D

 34 33  0     1  0  0  0  0  0999 V2000
   -3.8899   -3.6747    1.6490 H   0  0  0  0  0  0  0  0  0  0  0  0
   -3.9109   -2.6717    1.2250 C   0  0  0  0  0  0  0  0  0  0  0  0
   -4.6009   -2.0517    1.7950 H   0  0  0  0  0  0  0  0  0  0  0  0
   -4.2309   -2.7237    0.1860 H   0  0  0  0  0  0  0  0  0  0  0  0
   -2.5229   -2.0787    1.2980 C   0  0  0  0  0  0  0  0  0  0  0  0
   -1.5999   -2.7227    1.7810 O   0  0  0  0  0  0  0  0  0  0  0  0
   -2.3659   -0.8447    0.8120 N   0  0  0  0  0  0  0  0  0  0  0  0
   -3.1749   -0.3807    0.4220 H   0  0  0  0  0  0  0  0  0  0  0  0
   -1.0919   -0.1077    0.8170 C   0  0  1  0  0  0  0  0  0  0  0  0
   -0.4136   -0.6011    1.5155 H   0  0  0  0  0  0  0  0  0  0  0  0
   -0.4834   -0.1723   -0.5965 C   0  0  0  0  0  0  0  0  0  0  0  0
   -1.0003   -0.9489   -1.1623 H   0  0  0  0  0  0  0  0  0  0  0  0
   -0.6465    0.7819   -1.1013 H   0  0  0  0  0  0  0  0  0  0  0  0
    1.0189   -0.4942   -0.5959 C   0  0  0  0  0  0  0  0  0  0  0  0
    1.5828    0.3845   -0.2801 H   0  0  0  0  0  0  0  0  0  0  0  0
    1.2112   -1.3112    0.1023 H   0  0  0  0  0  0  0  0  0  0  0  0
    1.4774   -0.9083   -2.0011 C   0  0  0  0  0  0  0  0  0  0  0  0
    0.9004   -1.7794   -2.3206 H   0  0  0  0  0  0  0  0  0  0  0  0
    1.2915   -0.0848   -2.6934 H   0  0  0  0  0  0  0  0  0  0  0  0
    2.9717   -1.2539   -1.9968 C   0  0  0  0  0  0  0  0  0  0  0  0
    3.5309   -0.3722   -1.6670 H   0  0  0  0  0  0  0  0  0  0  0  0
    3.1421   -2.0511   -1.2669 H   0  0  0  0  0  0  0  0  0  0  0  0
    3.4370   -1.6814   -3.3403 N   0  3  0  0  0  0  0  0  0  0  0  0
    3.2916   -0.9437   -4.0182 H   0  0  0  0  0  0  0  0  0  0  0  0
    4.4240   -1.9060   -3.3204 H   0  0  0  0  0  0  0  0  0  0  0  0
    2.9285   -2.5027   -3.6464 H   0  0  0  0  0  0  0  0  0  0  0  0
   -1.3103    1.3348    1.2791 C   0  0  0  0  0  0  0  0  0  0  0  0
   -2.2333    1.9891    0.8084 O   0  0  0  0  0  0  0  0  0  0  0  0
   -0.4429    1.8293    2.1683 N   0  0  0  0  0  0  0  0  0  0  0  0
    0.2668    1.2118    2.5263 H   0  0  0  0  0  0  0  0  0  0  0  0
   -0.5118    3.1863    2.7135 C   0  0  0  0  0  0  0  0  0  0  0  0
   -1.4470    3.3159    3.2625 H   0  0  0  0  0  0  0  0  0  0  0  0
    0.3243    3.3682    3.3896 H   0  0  0  0  0  0  0  0  0  0  0  0
   -0.4850    3.9172    1.9023 H   0  0  0  0  0  0  0  0  0  0  0  0
  5  6  2  0  0  0  0
  5  7  1  0  0  0  0
  2  3  1  0  0  0  0
  2  4  1  0  0  0  0
  2  5  1  0  0  0  0
  1  2  1  0  0  0  0
 27 28  2  0  0  0  0
 27 29  1  0  0  0  0
 23 24  1  0  0  0  0
 23 25  1  0  0  0  0
 23 26  1  0  0  0  0
 20 21  1  0  0  0  0
 20 22  1  0  0  0  0
 20 23  1  0  0  0  0
 17 18  1  0  0  0  0
 17 19  1  0  0  0  0
 17 20  1  0  0  0  0
 14 15  1  0  0  0  0
 14 16  1  0  0  0  0
 14 17  1  0  0  0  0
 11 12  1  0  0  0  0
 11 13  1  0  0  0  0
 11 14  1  0  0  0  0
  9 10  1  0  0  0  0
  9 11  1  0  0  0  0
  9 27  1  0  0  0  0
  7  8  1  0  0  0  0
  7  9  1  0  0  0  0
 31 32  1  0  0  0  0
 31 33  1  0  0  0  0
 31 34  1  0  0  0  0
 29 30  1  0  0  0  0
 29 31  1  0  0  0  0
M  CHG  1  23   1
M  END
$$$$
default_name
  -OEChem-02102213163D

 34 33  0     1  0  0  0  0  0999 V2000
   -3.8899   -3.6747    1.6490 H   0  0  0  0  0  0  0  0  0  0  0  0
   -3.9109   -2.6717    1.2250 C   0  0  0  0  0  0  0  0  0  0  0  0
   -4.6009   -2.0517    1.7950 H   0  0  0  0  0  0  0  0  0  0  0  0
   -4.2309   -2.7237    0.1860 H   0  0  0  0  0  0  0  0  0  0  0  0
   -2.5229   -2.0787    1.2980 C   0  0  0  0  0  0  0  0  0  0  0  0
   -1.5999   -2.7227    1.7810 O   0  0  0  0  0  0  0  0  0  0  0  0
   -2.3659   -0.8447    0.8120 N   0  0  0  0  0  0  0  0  0  0  0  0
   -3.1749   -0.3807    0.4220 H   0  0  0  0  0  0  0  0  0  0  0  0
   -1.0919   -0.1077    0.8170 C   0  0  1  0  0  0  0  0  0  0  0  0
   -0.4136   -0.6011    1.5155 H   0  0  0  0  0  0  0  0  0  0  0  0
   -0.4834   -0.1723   -0.5965 C   0  0  0  0  0  0  0  0  0  0  0  0
   -1.1563   -0.7423   -1.2389 H   0  0  0  0  0  0  0  0  0  0  0  0
   -0.4040    0.8392   -0.9995 H   0  0  0  0  0  0  0  0  0  0  0  0
    0.8994   -0.8410   -0.6315 C   0  0  0  0  0  0  0  0  0  0  0  0
    1.5922   -0.2856    0.0021 H   0  0  0  0  0  0  0  0  0  0  0  0
    0.8142   -1.8627   -0.2565 H   0  0  0  0  0  0  0  0  0  0  0  0
    1.4428   -0.8702   -2.0668 C   0  0  0  0  0  0  0  0  0  0  0  0
    0.7395   -1.4142   -2.7018 H   0  0  0  0  0  0  0  0  0  0  0  0
    1.5349    0.1540   -2.4336 H   0  0  0  0  0  0  0  0  0  0  0  0
    2.8123   -1.5597   -2.1070 C   0  0  0  0  0  0  0  0  0  0  0  0
    3.4993   -1.0050   -1.4596 H   0  0  0  0  0  0  0  0  0  0  0  0
    2.7059   -2.5684   -1.6966 H   0  0  0  0  0  0  0  0  0  0  0  0
    3.3511   -1.6231   -3.4891 N   0  3  0  0  0  0  0  0  0  0  0  0
    3.4618   -0.6920   -3.8706 H   0  0  0  0  0  0  0  0  0  0  0  0
    4.2541   -2.0808   -3.4985 H   0  0  0  0  0  0  0  0  0  0  0  0
    2.7230   -2.1433   -4.0906 H   0  0  0  0  0  0  0  0  0  0  0  0
   -1.3103    1.3348    1.2791 C   0  0  0  0  0  0  0  0  0  0  0  0
   -2.2333    1.9891    0.8084 O   0  0  0  0  0  0  0  0  0  0  0  0
   -0.4429    1.8293    2.1683 N   0  0  0  0  0  0  0  0  0  0  0  0
    0.2668    1.2118    2.5263 H   0  0  0  0  0  0  0  0  0  0  0  0
   -0.5118    3.1863    2.7135 C   0  0  0  0  0  0  0  0  0  0  0  0
   -1.4470    3.3159    3.2625 H   0  0  0  0  0  0  0  0  0  0  0  0
    0.3243    3.3682    3.3896 H   0  0  0  0  0  0  0  0  0  0  0  0
   -0.4850    3.9172    1.9023 H   0  0  0  0  0  0  0  0  0  0  0  0
  5  6  2  0  0  0  0
  5  7  1  0  0  0  0
  2  3  1  0  0  0  0
  2  4  1  0  0  0  0
  2  5  1  0  0  0  0
  1  2  1  0  0  0  0
 27 28  2  0  0  0  0
 27 29  1  0  0  0  0
 23 24  1  0  0  0  0
 23 25  1  0  0  0  0
 23 26  1  0  0  0  0
 20 21  1  0  0  0  0
 20 22  1  0  0  0  0
 20 23  1  0  0  0  0
 17 18  1  0  0  0  0
 17 19  1  0  0  0  0
 17 20  1  0  0  0  0
 14 15  1  0  0  0  0
 14 16  1  0  0  0  0
 14 17  1  0  0  0  0
 11 12  1  0  0  0  0
 11 13  1  0  0  0  0
 11 14  1  0  0  0  0
  9 10  1  0  0  0  0
  9 11  1  0  0  0  0
  9 27  1  0  0  0  0
  7  8  1  0  0  0  0
  7  9  1  0  0  0  0
 31 32  1  0  0  0  0
 31 33  1  0  0  0  0
 31 34  1  0  0  0  0
 29 30  1  0  0  0  0
 29 31  1  0  0  0  0
M  CHG  1  23   1
M  END
$$$$
default_name
  -OEChem-02102213163D

 34 33  0     1  0  0  0  0  0999 V2000
   -3.8899   -3.6747    1.6490 H   0  0  0  0  0  0  0  0  0  0  0  0
   -3.9109   -2.6717    1.2250 C   0  0  0  0  0  0  0  0  0  0  0  0
   -4.6009   -2.0517    1.7950 H   0  0  0  0  0  0  0  0  0  0  0  0
   -4.2309   -2.7237    0.1860 H   0  0  0  0  0  0  0  0  0  0  0  0
   -2.5229   -2.0787    1.2980 C   0  0  0  0  0  0  0  0  0  0  0  0
   -1.5999   -2.7227    1.7810 O   0  0  0  0  0  0  0  0  0  0  0  0
   -2.3659   -0.8447    0.8120 N   0  0  0  0  0  0  0  0  0  0  0  0
   -3.1749   -0.3807    0.4220 H   0  0  0  0  0  0  0  0  0  0  0  0
   -1.0919   -0.1077    0.8170 C   0  0  1  0  0  0  0  0  0  0  0  0
   -0.4136   -0.6011    1.5155 H   0  0  0  0  0  0  0  0  0  0  0  0
   -0.4834   -0.1723   -0.5965 C   0  0  0  0  0  0  0  0  0  0  0  0
   -1.1563   -0.7423   -1.2389 H   0  0  0  0  0  0  0  0  0  0  0  0
   -0.4040    0.8392   -0.9995 H   0  0  0  0  0  0  0  0  0  0  0  0
    0.8994   -0.8410   -0.6315 C   0  0  0  0  0  0  0  0  0  0  0  0
    1.5118   -0.4617    0.1876 H   0  0  0  0  0  0  0  0  0  0  0  0
    0.7799   -1.9201   -0.5172 H   0  0  0  0  0  0  0  0  0  0  0  0
    1.6022   -0.5460   -1.9639 C   0  0  0  0  0  0  0  0  0  0  0  0
    0.9794   -0.9137   -2.7829 H   0  0  0  0  0  0  0  0  0  0  0  0
    1.7276    0.5335   -2.0690 H   0  0  0  0  0  0  0  0  0  0  0  0
    2.9725   -1.2335   -2.0103 C   0  0  0  0  0  0  0  0  0  0  0  0
    3.5776   -0.8579   -1.1787 H   0  0  0  0  0  0  0  0  0  0  0  0
    2.8278   -2.3077   -1.8611 H   0  0  0  0  0  0  0  0  0  0  0  0
    3.6650   -0.9840   -3.2998 N   0  3  0  0  0  0  0  0  0  0  0  0
    3.8112    0.0080   -3.4387 H   0  0  0  0  0  0  0  0  0  0  0  0
    4.5666   -1.4442   -3.3146 H   0  0  0  0  0  0  0  0  0  0  0  0
    3.1129   -1.3378   -4.0724 H   0  0  0  0  0  0  0  0  0  0  0  0
   -1.3103    1.3348    1.2791 C   0  0  0  0  0  0  0  0  0  0  0  0
   -2.2333    1.9891    0.8084 O   0  0  0  0  0  0  0  0  0  0  0  0
   -0.4429    1.8293    2.1683 N   0  0  0  0  0  0  0  0  0  0  0  0
    0.2668    1.2118    2.5263 H   0  0  0  0  0  0  0  0  0  0  0  0
   -0.5118    3.1863    2.7135 C   0  0  0  0  0  0  0  0  0  0  0  0
   -1.4470    3.3159    3.2625 H   0  0  0  0  0  0  0  0  0  0  0  0
    0.3243    3.3682    3.3896 H   0  0  0  0  0  0  0  0  0  0  0  0
   -0.4850    3.9172    1.9023 H   0  0  0  0  0  0  0  0  0  0  0  0
  5  6  2  0  0  0  0
  5  7  1  0  0  0  0
  2  3  1  0  0  0  0
  2  4  1  0  0  0  0
  2  5  1  0  0  0  0
  1  2  1  0  0  0  0
 27 28  2  0  0  0  0
 27 29  1  0  0  0  0
 23 24  1  0  0  0  0
 23 25  1  0  0  0  0
 23 26  1  0  0  0  0
 20 21  1  0  0  0  0
 20 22  1  0  0  0  0
 20 23  1  0  0  0  0
 17 18  1  0  0  0  0
 17 19  1  0  0  0  0
 17 20  1  0  0  0  0
 14 15  1  0  0  0  0
 14 16  1  0  0  0  0
 14 17  1  0  0  0  0
 11 12  1  0  0  0  0
 11 13  1  0  0  0  0
 11 14  1  0  0  0  0
  9 10  1  0  0  0  0
  9 11  1  0  0  0  0
  9 27  1  0  0  0  0
  7  8  1  0  0  0  0
  7  9  1  0  0  0  0
 31 32  1  0  0  0  0
 31 33  1  0  0  0  0
 31 34  1  0  0  0  0
 29 30  1  0  0  0  0
 29 31  1  0  0  0  0
M  CHG  1  23   1
M  END
$$$$
default_name
  -OEChem-02102213163D

 34 33  0     1  0  0  0  0  0999 V2000
   -3.8899   -3.6747    1.6490 H   0  0  0  0  0  0  0  0  0  0  0  0
   -3.9109   -2.6717    1.2250 C   0  0  0  0  0  0  0  0  0  0  0  0
   -4.6009   -2.0517    1.7950 H   0  0  0  0  0  0  0  0  0  0  0  0
   -4.2309   -2.7237    0.1860 H   0  0  0  0  0  0  0  0  0  0  0  0
   -2.5229   -2.0787    1.2980 C   0  0  0  0  0  0  0  0  0  0  0  0
   -1.5999   -2.7227    1.7810 O   0  0  0  0  0  0  0  0  0  0  0  0
   -2.3659   -0.8447    0.8120 N   0  0  0  0  0  0  0  0  0  0  0  0
   -3.1749   -0.3807    0.4220 H   0  0  0  0  0  0  0  0  0  0  0  0
   -1.0919   -0.1077    0.8170 C   0  0  1  0  0  0  0  0  0  0  0  0
   -0.4136   -0.6011    1.5155 H   0  0  0  0  0  0  0  0  0  0  0  0
   -0.4834   -0.1723   -0.5965 C   0  0  0  0  0  0  0  0  0  0  0  0
   -1.1563   -0.7423   -1.2389 H   0  0  0  0  0  0  0  0  0  0  0  0
   -0.4040    0.8392   -0.9995 H   0  0  0  0  0  0  0  0  0  0  0  0
    0.8994   -0.8410   -0.6315 C   0  0  0  0  0  0  0  0  0  0  0  0
    1.4122   -0.6745    0.3168 H   0  0  0  0  0  0  0  0  0  0  0  0
    0.7757   -1.9146   -0.7862 H   0  0  0  0  0  0  0  0  0  0  0  0
    1.7465   -0.2578   -1.7710 C   0  0  0  0  0  0  0  0  0  0  0  0
    1.2233   -0.4128   -2.7177 H   0  0  0  0  0  0  0  0  0  0  0  0
    1.8749    0.8139   -1.6067 H   0  0  0  0  0  0  0  0  0  0  0  0
    3.1183   -0.9418   -1.8229 C   0  0  0  0  0  0  0  0  0  0  0  0
    3.6224   -0.7818   -0.8642 H   0  0  0  0  0  0  0  0  0  0  0  0
    2.9656   -2.0183   -1.9455 H   0  0  0  0  0  0  0  0  0  0  0  0
    3.9506   -0.4127   -2.9328 N   0  3  0  0  0  0  0  0  0  0  0  0
    4.1042    0.5815   -2.8191 H   0  0  0  0  0  0  0  0  0  0  0  0
    4.8515   -0.8741   -2.9534 H   0  0  0  0  0  0  0  0  0  0  0  0
    3.4923   -0.5663   -3.8234 H   0  0  0  0  0  0  0  0  0  0  0  0
   -1.3103    1.3348    1.2791 C   0  0  0  0  0  0  0  0  0  0  0  0
   -2.2333    1.9891    0.8084 O   0  0  0  0  0  0  0  0  0  0  0  0
   -0.4429    1.8293    2.1683 N   0  0  0  0  0  0  0  0  0  0  0  0
    0.2668    1.2118    2.5263 H   0  0  0  0  0  0  0  0  0  0  0  0
   -0.5118    3.1863    2.7135 C   0  0  0  0  0  0  0  0  0  0  0  0
   -1.4470    3.3159    3.2625 H   0  0  0  0  0  0  0  0  0  0  0  0
    0.3243    3.3682    3.3896 H   0  0  0  0  0  0  0  0  0  0  0  0
   -0.4850    3.9172    1.9023 H   0  0  0  0  0  0  0  0  0  0  0  0
  5  6  2  0  0  0  0
  5  7  1  0  0  0  0
  2  3  1  0  0  0  0
  2  4  1  0  0  0  0
  2  5  1  0  0  0  0
  1  2  1  0  0  0  0
 27 28  2  0  0  0  0
 27 29  1  0  0  0  0
 23 24  1  0  0  0  0
 23 25  1  0  0  0  0
 23 26  1  0  0  0  0
 20 21  1  0  0  0  0
 20 22  1  0  0  0  0
 20 23  1  0  0  0  0
 17 18  1  0  0  0  0
 17 19  1  0  0  0  0
 17 20  1  0  0  0  0
 14 15  1  0  0  0  0
 14 16  1  0  0  0  0
 14 17  1  0  0  0  0
 11 12  1  0  0  0  0
 11 13  1  0  0  0  0
 11 14  1  0  0  0  0
  9 10  1  0  0  0  0
  9 11  1  0  0  0  0
  9 27  1  0  0  0  0
  7  8  1  0  0  0  0
  7  9  1  0  0  0  0
 31 32  1  0  0  0  0
 31 33  1  0  0  0  0
 31 34  1  0  0  0  0
 29 30  1  0  0  0  0
 29 31  1  0  0  0  0
M  CHG  1  23   1
M  END
$$$$
default_name
  -OEChem-02102213163D

 34 33  0     1  0  0  0  0  0999 V2000
   -3.8899   -3.6747    1.6490 H   0  0  0  0  0  0  0  0  0  0  0  0
   -3.9109   -2.6717    1.2250 C   0  0  0  0  0  0  0  0  0  0  0  0
   -4.6009   -2.0517    1.7950 H   0  0  0  0  0  0  0  0  0  0  0  0
   -4.2309   -2.7237    0.1860 H   0  0  0  0  0  0  0  0  0  0  0  0
   -2.5229   -2.0787    1.2980 C   0  0  0  0  0  0  0  0  0  0  0  0
   -1.5999   -2.7227    1.7810 O   0  0  0  0  0  0  0  0  0  0  0  0
   -2.3659   -0.8447    0.8120 N   0  0  0  0  0  0  0  0  0  0  0  0
   -3.1749   -0.3807    0.4220 H   0  0  0  0  0  0  0  0  0  0  0  0
   -1.0919   -0.1077    0.8170 C   0  0  1  0  0  0  0  0  0  0  0  0
   -0.4136   -0.6011    1.5155 H   0  0  0  0  0  0  0  0  0  0  0  0
   -0.4834   -0.1723   -0.5965 C   0  0  0  0  0  0  0  0  0  0  0  0
   -1.1563   -0.7423   -1.2389 H   0  0  0  0  0  0  0  0  0  0  0  0
   -0.4040    0.8392   -0.9995 H   0  0  0  0  0  0  0  0  0  0  0  0
    0.8994   -0.8410   -0.6315 C   0  0  0  0  0  0  0  0  0  0  0  0
    1.3001   -0.9095    0.3807 H   0  0  0  0  0  0  0  0  0  0  0  0
    0.8020   -1.8466   -1.0453 H   0  0  0  0  0  0  0  0  0  0  0  0
    1.8658   -0.0251   -1.5014 C   0  0  0  0  0  0  0  0  0  0  0  0
    1.4545    0.0544   -2.5105 H   0  0  0  0  0  0  0  0  0  0  0  0
    1.9668    0.9763   -1.0782 H   0  0  0  0  0  0  0  0  0  0  0  0
    3.2397   -0.7046   -1.5575 C   0  0  0  0  0  0  0  0  0  0  0  0
    3.6307   -0.7817   -0.5377 H   0  0  0  0  0  0  0  0  0  0  0  0
    3.1099   -1.7199   -1.9442 H   0  0  0  0  0  0  0  0  0  0  0  0
    4.1885    0.0521   -2.4129 N   0  3  0  0  0  0  0  0  0  0  0  0
    4.3208    0.9893   -2.0540 H   0  0  0  0  0  0  0  0  0  0  0  0
    5.0893   -0.4092   -2.4397 H   0  0  0  0  0  0  0  0  0  0  0  0
    3.8352    0.1186   -3.3604 H   0  0  0  0  0  0  0  0  0  0  0  0
   -1.3103    1.3348    1.2791 C   0  0  0  0  0  0  0  0  0  0  0  0
   -2.2333    1.9891    0.8084 O   0  0  0  0  0  0  0  0  0  0  0  0
   -0.4429    1.8293    2.1683 N   0  0  0  0  0  0  0  0  0  0  0  0
    0.2668    1.2118    2.5263 H   0  0  0  0  0  0  0  0  0  0  0  0
   -0.5118    3.1863    2.7135 C   0  0  0  0  0  0  0  0  0  0  0  0
   -1.4470    3.3159    3.2625 H   0  0  0  0  0  0  0  0  0  0  0  0
    0.3243    3.3682    3.3896 H   0  0  0  0  0  0  0  0  0  0  0  0
   -0.4850    3.9172    1.9023 H   0  0  0  0  0  0  0  0  0  0  0  0
  5  6  2  0  0  0  0
  5  7  1  0  0  0  0
  2  3  1  0  0  0  0
  2  4  1  0  0  0  0
  2  5  1  0  0  0  0
  1  2  1  0  0  0  0
 27 28  2  0  0  0  0
 27 29  1  0  0  0  0
 23 24  1  0  0  0  0
 23 25  1  0  0  0  0
 23 26  1  0  0  0  0
 20 21  1  0  0  0  0
 20 22  1  0  0  0  0
 20 23  1  0  0  0  0
 17 18  1  0  0  0  0
 17 19  1  0  0  0  0
 17 20  1  0  0  0  0
 14 15  1  0  0  0  0
 14 16  1  0  0  0  0
 14 17  1  0  0  0  0
 11 12  1  0  0  0  0
 11 13  1  0  0  0  0
 11 14  1  0  0  0  0
  9 10  1  0  0  0  0
  9 11  1  0  0  0  0
  9 27  1  0  0  0  0
  7  8  1  0  0  0  0
  7  9  1  0  0  0  0
 31 32  1  0  0  0  0
 31 33  1  0  0  0  0
 31 34  1  0  0  0  0
 29 30  1  0  0  0  0
 29 31  1  0  0  0  0
M  CHG  1  23   1
M  END
$$$$
default_name
  -OEChem-02102213163D

 34 33  0     1  0  0  0  0  0999 V2000
   -3.8899   -3.6747    1.6490 H   0  0  0  0  0  0  0  0  0  0  0  0
   -3.9109   -2.6717    1.2250 C   0  0  0  0  0  0  0  0  0  0  0  0
   -4.6009   -2.0517    1.7950 H   0  0  0  0  0  0  0  0  0  0  0  0
   -4.2309   -2.7237    0.1860 H   0  0  0  0  0  0  0  0  0  0  0  0
   -2.5229   -2.0787    1.2980 C   0  0  0  0  0  0  0  0  0  0  0  0
   -1.5999   -2.7227    1.7810 O   0  0  0  0  0  0  0  0  0  0  0  0
   -2.3659   -0.8447    0.8120 N   0  0  0  0  0  0  0  0  0  0  0  0
   -3.1749   -0.3807    0.4220 H   0  0  0  0  0  0  0  0  0  0  0  0
   -1.0919   -0.1077    0.8170 C   0  0  1  0  0  0  0  0  0  0  0  0
   -0.4136   -0.6011    1.5155 H   0  0  0  0  0  0  0  0  0  0  0  0
   -0.4834   -0.1723   -0.5965 C   0  0  0  0  0  0  0  0  0  0  0  0
   -1.1563   -0.7423   -1.2389 H   0  0  0  0  0  0  0  0  0  0  0  0
   -0.4040    0.8392   -0.9995 H   0  0  0  0  0  0  0  0  0  0  0  0
    0.8994   -0.8410   -0.6315 C   0  0  0  0  0  0  0  0  0  0  0  0
    1.1833   -1.1508    0.3751 H   0  0  0  0  0  0  0  0  0  0  0  0
    0.8570   -1.7207   -1.2767 H   0  0  0  0  0  0  0  0  0  0  0  0
    1.9521    0.1360   -1.1732 C   0  0  0  0  0  0  0  0  0  0  0  0
    1.6572    0.4560   -2.1755 H   0  0  0  0  0  0  0  0  0  0  0  0
    1.9970    1.0094   -0.5196 H   0  0  0  0  0  0  0  0  0  0  0  0
    3.3285   -0.5381   -1.2321 C   0  0  0  0  0  0  0  0  0  0  0  0
    3.6019   -0.8577   -0.2213 H   0  0  0  0  0  0  0  0  0  0  0  0
    3.2509   -1.4329   -1.8571 H   0  0  0  0  0  0  0  0  0  0  0  0
    4.3624    0.3784   -1.7757 N   0  3  0  0  0  0  0  0  0  0  0  0
    4.4463    1.2038   -1.1956 H   0  0  0  0  0  0  0  0  0  0  0  0
    5.2639   -0.0812   -1.8083 H   0  0  0  0  0  0  0  0  0  0  0  0
    4.1184    0.6703   -2.7149 H   0  0  0  0  0  0  0  0  0  0  0  0
   -1.3103    1.3348    1.2791 C   0  0  0  0  0  0  0  0  0  0  0  0
   -2.2333    1.9891    0.8084 O   0  0  0  0  0  0  0  0  0  0  0  0
   -0.4429    1.8293    2.1683 N   0  0  0  0  0  0  0  0  0  0  0  0
    0.2668    1.2118    2.5263 H   0  0  0  0  0  0  0  0  0  0  0  0
   -0.5118    3.1863    2.7135 C   0  0  0  0  0  0  0  0  0  0  0  0
   -1.4470    3.3159    3.2625 H   0  0  0  0  0  0  0  0  0  0  0  0
    0.3243    3.3682    3.3896 H   0  0  0  0  0  0  0  0  0  0  0  0
   -0.4850    3.9172    1.9023 H   0  0  0  0  0  0  0  0  0  0  0  0
  5  6  2  0  0  0  0
  5  7  1  0  0  0  0
  2  3  1  0  0  0  0
  2  4  1  0  0  0  0
  2  5  1  0  0  0  0
  1  2  1  0  0  0  0
 27 28  2  0  0  0  0
 27 29  1  0  0  0  0
 23 24  1  0  0  0  0
 23 25  1  0  0  0  0
 23 26  1  0  0  0  0
 20 21  1  0  0  0  0
 20 22  1  0  0  0  0
 20 23  1  0  0  0  0
 17 18  1  0  0  0  0
 17 19  1  0  0  0  0
 17 20  1  0  0  0  0
 14 15  1  0  0  0  0
 14 16  1  0  0  0  0
 14 17  1  0  0  0  0
 11 12  1  0  0  0  0
 11 13  1  0  0  0  0
 11 14  1  0  0  0  0
  9 10  1  0  0  0  0
  9 11  1  0  0  0  0
  9 27  1  0  0  0  0
  7  8  1  0  0  0  0
  7  9  1  0  0  0  0
 31 32  1  0  0  0  0
 31 33  1  0  0  0  0
 31 34  1  0  0  0  0
 29 30  1  0  0  0  0
 29 31  1  0  0  0  0
M  CHG  1  23   1
M  END
$$$$
default_name
  -OEChem-02102213163D

 34 33  0     1  0  0  0  0  0999 V2000
   -3.8899   -3.6747    1.6490 H   0  0  0  0  0  0  0  0  0  0  0  0
   -3.9109   -2.6717    1.2250 C   0  0  0  0  0  0  0  0  0  0  0  0
   -4.6009   -2.0517    1.7950 H   0  0  0  0  0  0  0  0  0  0  0  0
   -4.2309   -2.7237    0.1860 H   0  0  0  0  0  0  0  0  0  0  0  0
   -2.5229   -2.0787    1.2980 C   0  0  0  0  0  0  0  0  0  0  0  0
   -1.5999   -2.7227    1.7810 O   0  0  0  0  0  0  0  0  0  0  0  0
   -2.3659   -0.8447    0.8120 N   0  0  0  0  0  0  0  0  0  0  0  0
   -3.1749   -0.3807    0.4220 H   0  0  0  0  0  0  0  0  0  0  0  0
   -1.0919   -0.1077    0.8170 C   0  0  1  0  0  0  0  0  0  0  0  0
   -0.4136   -0.6011    1.5155 H   0  0  0  0  0  0  0  0  0  0  0  0
   -0.4834   -0.1723   -0.5965 C   0  0  0  0  0  0  0  0  0  0  0  0
   -1.1563   -0.7423   -1.2389 H   0  0  0  0  0  0  0  0  0  0  0  0
   -0.4040    0.8392   -0.9995 H   0  0  0  0  0  0  0  0  0  0  0  0
    0.8994   -0.8410   -0.6315 C   0  0  0  0  0  0  0  0  0  0  0  0
    1.0697   -1.3819    0.3003 H   0  0  0  0  0  0  0  0  0  0  0  0
    0.9370   -1.5455   -1.4647 H   0  0  0  0  0  0  0  0  0  0  0  0
    1.9994    0.2148   -0.8090 C   0  0  0  0  0  0  0  0  0  0  0  0
    1.8176    0.7648   -1.7355 H   0  0  0  0  0  0  0  0  0  0  0  0
    1.9635    0.9112    0.0311 H   0  0  0  0  0  0  0  0  0  0  0  0
    3.3786   -0.4535   -0.8691 C   0  0  0  0  0  0  0  0  0  0  0  0
    3.5381   -1.0047    0.0634 H   0  0  0  0  0  0  0  0  0  0  0  0
    3.3790   -1.1767   -1.6902 H   0  0  0  0  0  0  0  0  0  0  0  0
    4.4606    0.5442   -1.0646 N   0  3  0  0  0  0  0  0  0  0  0  0
    4.4720    1.2102   -0.3023 H   0  0  0  0  0  0  0  0  0  0  0  0
    5.3634    0.0876   -1.1024 H   0  0  0  0  0  0  0  0  0  0  0  0
    4.3224    1.0512   -1.9311 H   0  0  0  0  0  0  0  0  0  0  0  0
   -1.3103    1.3348    1.2791 C   0  0  0  0  0  0  0  0  0  0  0  0
   -2.2333    1.9891    0.8084 O   0  0  0  0  0  0  0  0  0  0  0  0
   -0.4429    1.8293    2.1683 N   0  0  0  0  0  0  0  0  0  0  0  0
    0.2668    1.2118    2.5263 H   0  0  0  0  0  0  0  0  0  0  0  0
   -0.5118    3.1863    2.7135 C   0  0  0  0  0  0  0  0  0  0  0  0
   -1.4470    3.3159    3.2625 H   0  0  0  0  0  0  0  0  0  0  0  0
    0.3243    3.3682    3.3896 H   0  0  0  0  0  0  0  0  0  0  0  0
   -0.4850    3.9172    1.9023 H   0  0  0  0  0  0  0  0  0  0  0  0
  5  6  2  0  0  0  0
  5  7  1  0  0  0  0
  2  3  1  0  0  0  0
  2  4  1  0  0  0  0
  2  5  1  0  0  0  0
  1  2  1  0  0  0  0
 27 28  2  0  0  0  0
 27 29  1  0  0  0  0
 23 24  1  0  0  0  0
 23 25  1  0  0  0  0
 23 26  1  0  0  0  0
 20 21  1  0  0  0  0
 20 22  1  0  0  0  0
 20 23  1  0  0  0  0
 17 18  1  0  0  0  0
 17 19  1  0  0  0  0
 17 20  1  0  0  0  0
 14 15  1  0  0  0  0
 14 16  1  0  0  0  0
 14 17  1  0  0  0  0
 11 12  1  0  0  0  0
 11 13  1  0  0  0  0
 11 14  1  0  0  0  0
  9 10  1  0  0  0  0
  9 11  1  0  0  0  0
  9 27  1  0  0  0  0
  7  8  1  0  0  0  0
  7  9  1  0  0  0  0
 31 32  1  0  0  0  0
 31 33  1  0  0  0  0
 31 34  1  0  0  0  0
 29 30  1  0  0  0  0
 29 31  1  0  0  0  0
M  CHG  1  23   1
M  END
$$$$
default_name
  -OEChem-02102213163D

 34 33  0     1  0  0  0  0  0999 V2000
   -3.8899   -3.6747    1.6490 H   0  0  0  0  0  0  0  0  0  0  0  0
   -3.9109   -2.6717    1.2250 C   0  0  0  0  0  0  0  0  0  0  0  0
   -4.6009   -2.0517    1.7950 H   0  0  0  0  0  0  0  0  0  0  0  0
   -4.2309   -2.7237    0.1860 H   0  0  0  0  0  0  0  0  0  0  0  0
   -2.5229   -2.0787    1.2980 C   0  0  0  0  0  0  0  0  0  0  0  0
   -1.5999   -2.7227    1.7810 O   0  0  0  0  0  0  0  0  0  0  0  0
   -2.3659   -0.8447    0.8120 N   0  0  0  0  0  0  0  0  0  0  0  0
   -3.1749   -0.3807    0.4220 H   0  0  0  0  0  0  0  0  0  0  0  0
   -1.0919   -0.1077    0.8170 C   0  0  1  0  0  0  0  0  0  0  0  0
   -0.4136   -0.6011    1.5155 H   0  0  0  0  0  0  0  0  0  0  0  0
   -0.4834   -0.1723   -0.5965 C   0  0  0  0  0  0  0  0  0  0  0  0
   -1.1563   -0.7423   -1.2389 H   0  0  0  0  0  0  0  0  0  0  0  0
   -0.4040    0.8392   -0.9995 H   0  0  0  0  0  0  0  0  0  0  0  0
    0.8994   -0.8410   -0.6315 C   0  0  0  0  0  0  0  0  0  0  0  0
    0.9670   -1.5870    0.1614 H   0  0  0  0  0  0  0  0  0  0  0  0
    1.0364   -1.3330   -1.5964 H   0  0  0  0  0  0  0  0  0  0  0  0
    2.0045    0.2058   -0.4336 C   0  0  0  0  0  0  0  0  0  0  0  0
    1.9248    0.9595   -1.2205 H   0  0  0  0  0  0  0  0  0  0  0  0
    1.8684    0.6882    0.5364 H   0  0  0  0  0  0  0  0  0  0  0  0
    3.3866   -0.4567   -0.4931 C   0  0  0  0  0  0  0  0  0  0  0  0
    3.4434   -1.2126    0.2969 H   0  0  0  0  0  0  0  0  0  0  0  0
    3.4854   -0.9690   -1.4549 H   0  0  0  0  0  0  0  0  0  0  0  0
    4.4764    0.5382   -0.3281 N   0  3  0  0  0  0  0  0  0  0  0  0
    4.3963    1.0082    0.5649 H   0  0  0  0  0  0  0  0  0  0  0  0
    5.3809    0.0855   -0.3701 H   0  0  0  0  0  0  0  0  0  0  0  0
    4.4335    1.2354   -1.0622 H   0  0  0  0  0  0  0  0  0  0  0  0
   -1.3103    1.3348    1.2791 C   0  0  0  0  0  0  0  0  0  0  0  0
   -2.2333    1.9891    0.8084 O   0  0  0  0  0  0  0  0  0  0  0  0
   -0.4429    1.8293    2.1683 N   0  0  0  0  0  0  0  0  0  0  0  0
    0.2668    1.2118    2.5263 H   0  0  0  0  0  0  0  0  0  0  0  0
   -0.5118    3.1863    2.7135 C   0  0  0  0  0  0  0  0  0  0  0  0
   -1.4470    3.3159    3.2625 H   0  0  0  0  0  0  0  0  0  0  0  0
    0.3243    3.3682    3.3896 H   0  0  0  0  0  0  0  0  0  0  0  0
   -0.4850    3.9172    1.9023 H   0  0  0  0  0  0  0  0  0  0  0  0
  5  6  2  0  0  0  0
  5  7  1  0  0  0  0
  2  3  1  0  0  0  0
  2  4  1  0  0  0  0
  2  5  1  0  0  0  0
  1  2  1  0  0  0  0
 27 28  2  0  0  0  0
 27 29  1  0  0  0  0
 23 24  1  0  0  0  0
 23 25  1  0  0  0  0
 23 26  1  0  0  0  0
 20 21  1  0  0  0  0
 20 22  1  0  0  0  0
 20 23  1  0  0  0  0
 17 18  1  0  0  0  0
 17 19  1  0  0  0  0
 17 20  1  0  0  0  0
 14 15  1  0  0  0  0
 14 16  1  0  0  0  0
 14 17  1  0  0  0  0
 11 12  1  0  0  0  0
 11 13  1  0  0  0  0
 11 14  1  0  0  0  0
  9 10  1  0  0  0  0
  9 11  1  0  0  0  0
  9 27  1  0  0  0  0
  7  8  1  0  0  0  0
  7  9  1  0  0  0  0
 31 32  1  0  0  0  0
 31 33  1  0  0  0  0
 31 34  1  0  0  0  0
 29 30  1  0  0  0  0
 29 31  1  0  0  0  0
M  CHG  1  23   1
M  END
$$$$
default_name
  -OEChem-02102213163D

 34 33  0     1  0  0  0  0  0999 V2000
   -3.8899   -3.6747    1.6490 H   0  0  0  0  0  0  0  0  0  0  0  0
   -3.9109   -2.6717    1.2250 C   0  0  0  0  0  0  0  0  0  0  0  0
   -4.6009   -2.0517    1.7950 H   0  0  0  0  0  0  0  0  0  0  0  0
   -4.2309   -2.7237    0.1860 H   0  0  0  0  0  0  0  0  0  0  0  0
   -2.5229   -2.0787    1.2980 C   0  0  0  0  0  0  0  0  0  0  0  0
   -1.5999   -2.7227    1.7810 O   0  0  0  0  0  0  0  0  0  0  0  0
   -2.3659   -0.8447    0.8120 N   0  0  0  0  0  0  0  0  0  0  0  0
   -3.1749   -0.3807    0.4220 H   0  0  0  0  0  0  0  0  0  0  0  0
   -1.0919   -0.1077    0.8170 C   0  0  1  0  0  0  0  0  0  0  0  0
   -0.4136   -0.6011    1.5155 H   0  0  0  0  0  0  0  0  0  0  0  0
   -0.4834   -0.1723   -0.5965 C   0  0  0  0  0  0  0  0  0  0  0  0
   -1.1563   -0.7423   -1.2389 H   0  0  0  0  0  0  0  0  0  0  0  0
   -0.4040    0.8392   -0.9995 H   0  0  0  0  0  0  0  0  0  0  0  0
    0.8994   -0.8410   -0.6315 C   0  0  0  0  0  0  0  0  0  0  0  0
    0.8822   -1.7521   -0.0320 H   0  0  0  0  0  0  0  0  0  0  0  0
    1.1486   -1.0976   -1.6630 H   0  0  0  0  0  0  0  0  0  0  0  0
    1.9671    0.1095   -0.0724 C   0  0  0  0  0  0  0  0  0  0  0  0
    1.9716    1.0271   -0.6656 H   0  0  0  0  0  0  0  0  0  0  0  0
    1.7184    0.3556    0.9618 H   0  0  0  0  0  0  0  0  0  0  0  0
    3.3520   -0.5474   -0.1297 C   0  0  0  0  0  0  0  0  0  0  0  0
    3.3245   -1.4673    0.4633 H   0  0  0  0  0  0  0  0  0  0  0  0
    3.5630   -0.8237   -1.1672 H   0  0  0  0  0  0  0  0  0  0  0  0
    4.4085    0.3606    0.3837 N   0  3  0  0  0  0  0  0  0  0  0  0
    4.2243    0.6115    1.3470 H   0  0  0  0  0  0  0  0  0  0  0  0
    5.3154   -0.0872    0.3388 H   0  0  0  0  0  0  0  0  0  0  0  0
    4.4440    1.2102   -0.1676 H   0  0  0  0  0  0  0  0  0  0  0  0
   -1.3103    1.3348    1.2791 C   0  0  0  0  0  0  0  0  0  0  0  0
   -2.2333    1.9891    0.8084 O   0  0  0  0  0  0  0  0  0  0  0  0
   -0.4429    1.8293    2.1683 N   0  0  0  0  0  0  0  0  0  0  0  0
    0.2668    1.2118    2.5263 H   0  0  0  0  0  0  0  0  0  0  0  0
   -0.5118    3.1863    2.7135 C   0  0  0  0  0  0  0  0  0  0  0  0
   -1.4470    3.3159    3.2625 H   0  0  0  0  0  0  0  0  0  0  0  0
    0.3243    3.3682    3.3896 H   0  0  0  0  0  0  0  0  0  0  0  0
   -0.4850    3.9172    1.9023 H   0  0  0  0  0  0  0  0  0  0  0  0
  5  6  2  0  0  0  0
  5  7  1  0  0  0  0
  2  3  1  0  0  0  0
  2  4  1  0  0  0  0
  2  5  1  0  0  0  0
  1  2  1  0  0  0  0
 27 28  2  0  0  0  0
 27 29  1  0  0  0  0
 23 24  1  0  0  0  0
 23 25  1  0  0  0  0
 23 26  1  0  0  0  0
 20 21  1  0  0  0  0
 20 22  1  0  0  0  0
 20 23  1  0  0  0  0
 17 18  1  0  0  0  0
 17 19  1  0  0  0  0
 17 20  1  0  0  0  0
 14 15  1  0  0  0  0
 14 16  1  0  0  0  0
 14 17  1  0  0  0  0
 11 12  1  0  0  0  0
 11 13  1  0  0  0  0
 11 14  1  0  0  0  0
  9 10  1  0  0  0  0
  9 11  1  0  0  0  0
  9 27  1  0  0  0  0
  7  8  1  0  0  0  0
  7  9  1  0  0  0  0
 31 32  1  0  0  0  0
 31 33  1  0  0  0  0
 31 34  1  0  0  0  0
 29 30  1  0  0  0  0
 29 31  1  0  0  0  0
M  CHG  1  23   1
M  END
$$$$
default_name
  -OEChem-02102213163D

 34 33  0     1  0  0  0  0  0999 V2000
   -3.8899   -3.6747    1.6490 H   0  0  0  0  0  0  0  0  0  0  0  0
   -3.9109   -2.6717    1.2250 C   0  0  0  0  0  0  0  0  0  0  0  0
   -4.6009   -2.0517    1.7950 H   0  0  0  0  0  0  0  0  0  0  0  0
   -4.2309   -2.7237    0.1860 H   0  0  0  0  0  0  0  0  0  0  0  0
   -2.5229   -2.0787    1.2980 C   0  0  0  0  0  0  0  0  0  0  0  0
   -1.5999   -2.7227    1.7810 O   0  0  0  0  0  0  0  0  0  0  0  0
   -2.3659   -0.8447    0.8120 N   0  0  0  0  0  0  0  0  0  0  0  0
   -3.1749   -0.3807    0.4220 H   0  0  0  0  0  0  0  0  0  0  0  0
   -1.0919   -0.1077    0.8170 C   0  0  1  0  0  0  0  0  0  0  0  0
   -0.4136   -0.6011    1.5155 H   0  0  0  0  0  0  0  0  0  0  0  0
   -0.4834   -0.1723   -0.5965 C   0  0  0  0  0  0  0  0  0  0  0  0
   -1.1563   -0.7423   -1.2389 H   0  0  0  0  0  0  0  0  0  0  0  0
   -0.4040    0.8392   -0.9995 H   0  0  0  0  0  0  0  0  0  0  0  0
    0.8994   -0.8410   -0.6315 C   0  0  0  0  0  0  0  0  0  0  0  0
    0.8212   -1.8661   -0.2669 H   0  0  0  0  0  0  0  0  0  0  0  0
    1.2658   -0.8554   -1.6599 H   0  0  0  0  0  0  0  0  0  0  0  0
    1.8898   -0.0674    0.2498 C   0  0  0  0  0  0  0  0  0  0  0  0
    1.9546    0.9628   -0.1087 H   0  0  0  0  0  0  0  0  0  0  0  0
    1.5236   -0.0639    1.2784 H   0  0  0  0  0  0  0  0  0  0  0  0
    3.2770   -0.7194    0.1962 C   0  0  0  0  0  0  0  0  0  0  0  0
    3.1894   -1.7514    0.5514 H   0  0  0  0  0  0  0  0  0  0  0  0
    3.6063   -0.7508   -0.8468 H   0  0  0  0  0  0  0  0  0  0  0  0
    4.2618    0.0237    1.0223 N   0  3  0  0  0  0  0  0  0  0  0  0
    3.9678    0.0472    1.9907 H   0  0  0  0  0  0  0  0  0  0  0  0
    5.1712   -0.4187    0.9760 H   0  0  0  0  0  0  0  0  0  0  0  0
    4.3532    0.9774    0.6919 H   0  0  0  0  0  0  0  0  0  0  0  0
   -1.3103    1.3348    1.2791 C   0  0  0  0  0  0  0  0  0  0  0  0
   -2.2333    1.9891    0.8084 O   0  0  0  0  0  0  0  0  0  0  0  0
   -0.4429    1.8293    2.1683 N   0  0  0  0  0  0  0  0  0  0  0  0
    0.2668    1.2118    2.5263 H   0  0  0  0  0  0  0  0  0  0  0  0
   -0.5118    3.1863    2.7135 C   0  0  0  0  0  0  0  0  0  0  0  0
   -1.4470    3.3159    3.2625 H   0  0  0  0  0  0  0  0  0  0  0  0
    0.3243    3.3682    3.3896 H   0  0  0  0  0  0  0  0  0  0  0  0
   -0.4850    3.9172    1.9023 H   0  0  0  0  0  0  0  0  0  0  0  0
  5  6  2  0  0  0  0
  5  7  1  0  0  0  0
  2  3  1  0  0  0  0
  2  4  1  0  0  0  0
  2  5  1  0  0  0  0
  1  2  1  0  0  0  0
 27 28  2  0  0  0  0
 27 29  1  0  0  0  0
 23 24  1  0  0  0  0
 23 25  1  0  0  0  0
 23 26  1  0  0  0  0
 20 21  1  0  0  0  0
 20 22  1  0  0  0  0
 20 23  1  0  0  0  0
 17 18  1  0  0  0  0
 17 19  1  0  0  0  0
 17 20  1  0  0  0  0
 14 15  1  0  0  0  0
 14 16  1  0  0  0  0
 14 17  1  0  0  0  0
 11 12  1  0  0  0  0
 11 13  1  0  0  0  0
 11 14  1  0  0  0  0
  9 10  1  0  0  0  0
  9 11  1  0  0  0  0
  9 27  1  0  0  0  0
  7  8  1  0  0  0  0
  7  9  1  0  0  0  0
 31 32  1  0  0  0  0
 31 33  1  0  0  0  0
 31 34  1  0  0  0  0
 29 30  1  0  0  0  0
 29 31  1  0  0  0  0
M  CHG  1  23   1
M  END
$$$$
default_name
  -OEChem-02102213163D

 34 33  0     1  0  0  0  0  0999 V2000
   -3.8899   -3.6747    1.6490 H   0  0  0  0  0  0  0  0  0  0  0  0
   -3.9109   -2.6717    1.2250 C   0  0  0  0  0  0  0  0  0  0  0  0
   -4.6009   -2.0517    1.7950 H   0  0  0  0  0  0  0  0  0  0  0  0
   -4.2309   -2.7237    0.1860 H   0  0  0  0  0  0  0  0  0  0  0  0
   -2.5229   -2.0787    1.2980 C   0  0  0  0  0  0  0  0  0  0  0  0
   -1.5999   -2.7227    1.7810 O   0  0  0  0  0  0  0  0  0  0  0  0
   -2.3659   -0.8447    0.8120 N   0  0  0  0  0  0  0  0  0  0  0  0
   -3.1749   -0.3807    0.4220 H   0  0  0  0  0  0  0  0  0  0  0  0
   -1.0919   -0.1077    0.8170 C   0  0  1  0  0  0  0  0  0  0  0  0
   -0.4136   -0.6011    1.5155 H   0  0  0  0  0  0  0  0  0  0  0  0
   -0.4834   -0.1723   -0.5965 C   0  0  0  0  0  0  0  0  0  0  0  0
   -1.1563   -0.7423   -1.2389 H   0  0  0  0  0  0  0  0  0  0  0  0
   -0.4040    0.8392   -0.9995 H   0  0  0  0  0  0  0  0  0  0  0  0
    0.8994   -0.8410   -0.6315 C   0  0  0  0  0  0  0  0  0  0  0  0
    0.7880   -1.9211   -0.5272 H   0  0  0  0  0  0  0  0  0  0  0  0
    1.3800   -0.6228   -1.5872 H   0  0  0  0  0  0  0  0  0  0  0  0
    1.7777   -0.3128    0.5111 C   0  0  0  0  0  0  0  0  0  0  0  0
    1.8751    0.7710    0.4124 H   0  0  0  0  0  0  0  0  0  0  0  0
    1.2973   -0.5416    1.4645 H   0  0  0  0  0  0  0  0  0  0  0  0
    3.1669   -0.9611    0.4625 C   0  0  0  0  0  0  0  0  0  0  0  0
    3.0473   -2.0455    0.5551 H   0  0  0  0  0  0  0  0  0  0  0  0
    3.6125   -0.7554   -0.5154 H   0  0  0  0  0  0  0  0  0  0  0  0
    4.0462   -0.4496    1.5441 N   0  3  0  0  0  0  0  0  0  0  0  0
    3.6441   -0.6464    2.4520 H   0  0  0  0  0  0  0  0  0  0  0  0
    4.9583   -0.8865    1.4979 H   0  0  0  0  0  0  0  0  0  0  0  0
    4.1673    0.5528    1.4577 H   0  0  0  0  0  0  0  0  0  0  0  0
   -1.3103    1.3348    1.2791 C   0  0  0  0  0  0  0  0  0  0  0  0
   -2.2333    1.9891    0.8084 O   0  0  0  0  0  0  0  0  0  0  0  0
   -0.4429    1.8293    2.1683 N   0  0  0  0  0  0  0  0  0  0  0  0
    0.2668    1.2118    2.5263 H   0  0  0  0  0  0  0  0  0  0  0  0
   -0.5118    3.1863    2.7135 C   0  0  0  0  0  0  0  0  0  0  0  0
   -1.4470    3.3159    3.2625 H   0  0  0  0  0  0  0  0  0  0  0  0
    0.3243    3.3682    3.3896 H   0  0  0  0  0  0  0  0  0  0  0  0
   -0.4850    3.9172    1.9023 H   0  0  0  0  0  0  0  0  0  0  0  0
  5  6  2  0  0  0  0
  5  7  1  0  0  0  0
  2  3  1  0  0  0  0
  2  4  1  0  0  0  0
  2  5  1  0  0  0  0
  1  2  1  0  0  0  0
 27 28  2  0  0  0  0
 27 29  1  0  0  0  0
 23 24  1  0  0  0  0
 23 25  1  0  0  0  0
 23 26  1  0  0  0  0
 20 21  1  0  0  0  0
 20 22  1  0  0  0  0
 20 23  1  0  0  0  0
 17 18  1  0  0  0  0
 17 19  1  0  0  0  0
 17 20  1  0  0  0  0
 14 15  1  0  0  0  0
 14 16  1  0  0  0  0
 14 17  1  0  0  0  0
 11 12  1  0  0  0  0
 11 13  1  0  0  0  0
 11 14  1  0  0  0  0
  9 10  1  0  0  0  0
  9 11  1  0  0  0  0
  9 27  1  0  0  0  0
  7  8  1  0  0  0  0
  7  9  1  0  0  0  0
 31 32  1  0  0  0  0
 31 33  1  0  0  0  0
 31 34  1  0  0  0  0
 29 30  1  0  0  0  0
 29 31  1  0  0  0  0
M  CHG  1  23   1
M  END
$$$$
default_name
  -OEChem-02102213163D

 34 33  0     1  0  0  0  0  0999 V2000
   -3.8899   -3.6747    1.6490 H   0  0  0  0  0  0  0  0  0  0  0  0
   -3.9109   -2.6717    1.2250 C   0  0  0  0  0  0  0  0  0  0  0  0
   -4.6009   -2.0517    1.7950 H   0  0  0  0  0  0  0  0  0  0  0  0
   -4.2309   -2.7237    0.1860 H   0  0  0  0  0  0  0  0  0  0  0  0
   -2.5229   -2.0787    1.2980 C   0  0  0  0  0  0  0  0  0  0  0  0
   -1.5999   -2.7227    1.7810 O   0  0  0  0  0  0  0  0  0  0  0  0
   -2.3659   -0.8447    0.8120 N   0  0  0  0  0  0  0  0  0  0  0  0
   -3.1749   -0.3807    0.4220 H   0  0  0  0  0  0  0  0  0  0  0  0
   -1.0919   -0.1077    0.8170 C   0  0  1  0  0  0  0  0  0  0  0  0
   -0.4136   -0.6011    1.5155 H   0  0  0  0  0  0  0  0  0  0  0  0
   -0.4834   -0.1723   -0.5965 C   0  0  0  0  0  0  0  0  0  0  0  0
   -1.1563   -0.7423   -1.2389 H   0  0  0  0  0  0  0  0  0  0  0  0
   -0.4040    0.8392   -0.9995 H   0  0  0  0  0  0  0  0  0  0  0  0
    0.8994   -0.8410   -0.6315 C   0  0  0  0  0  0  0  0  0  0  0  0
    0.7849   -1.9133   -0.7952 H   0  0  0  0  0  0  0  0  0  0  0  0
    1.4836   -0.4158   -1.4500 H   0  0  0  0  0  0  0  0  0  0  0  0
    1.6386   -0.6101    0.6938 C   0  0  0  0  0  0  0  0  0  0  0  0
    1.7384    0.4649    0.8621 H   0  0  0  0  0  0  0  0  0  0  0  0
    1.0549   -1.0451    1.5075 H   0  0  0  0  0  0  0  0  0  0  0  0
    3.0291   -1.2559    0.6511 C   0  0  0  0  0  0  0  0  0  0  0  0
    2.9079   -2.3296    0.4741 H   0  0  0  0  0  0  0  0  0  0  0  0
    3.5812   -0.8370   -0.1957 H   0  0  0  0  0  0  0  0  0  0  0  0
    3.7763   -1.0270    1.9135 N   0  3  0  0  0  0  0  0  0  0  0  0
    3.2754   -1.4219    2.6997 H   0  0  0  0  0  0  0  0  0  0  0  0
    4.6910   -1.4587    1.8691 H   0  0  0  0  0  0  0  0  0  0  0  0
    3.8990   -0.0346    2.0775 H   0  0  0  0  0  0  0  0  0  0  0  0
   -1.3103    1.3348    1.2791 C   0  0  0  0  0  0  0  0  0  0  0  0
   -2.2333    1.9891    0.8084 O   0  0  0  0  0  0  0  0  0  0  0  0
   -0.4429    1.8293    2.1683 N   0  0  0  0  0  0  0  0  0  0  0  0
    0.2668    1.2118    2.5263 H   0  0  0  0  0  0  0  0  0  0  0  0
   -0.5118    3.1863    2.7135 C   0  0  0  0  0  0  0  0  0  0  0  0
   -1.4470    3.3159    3.2625 H   0  0  0  0  0  0  0  0  0  0  0  0
    0.3243    3.3682    3.3896 H   0  0  0  0  0  0  0  0  0  0  0  0
   -0.4850    3.9172    1.9023 H   0  0  0  0  0  0  0  0  0  0  0  0
  5  6  2  0  0  0  0
  5  7  1  0  0  0  0
  2  3  1  0  0  0  0
  2  4  1  0  0  0  0
  2  5  1  0  0  0  0
  1  2  1  0  0  0  0
 27 28  2  0  0  0  0
 27 29  1  0  0  0  0
 23 24  1  0  0  0  0
 23 25  1  0  0  0  0
 23 26  1  0  0  0  0
 20 21  1  0  0  0  0
 20 22  1  0  0  0  0
 20 23  1  0  0  0  0
 17 18  1  0  0  0  0
 17 19  1  0  0  0  0
 17 20  1  0  0  0  0
 14 15  1  0  0  0  0
 14 16  1  0  0  0  0
 14 17  1  0  0  0  0
 11 12  1  0  0  0  0
 11 13  1  0  0  0  0
 11 14  1  0  0  0  0
  9 10  1  0  0  0  0
  9 11  1  0  0  0  0
  9 27  1  0  0  0  0
  7  8  1  0  0  0  0
  7  9  1  0  0  0  0
 31 32  1  0  0  0  0
 31 33  1  0  0  0  0
 31 34  1  0  0  0  0
 29 30  1  0  0  0  0
 29 31  1  0  0  0  0
M  CHG  1  23   1
M  END
$$$$
default_name
  -OEChem-02102213163D

 34 33  0     1  0  0  0  0  0999 V2000
   -3.8899   -3.6747    1.6490 H   0  0  0  0  0  0  0  0  0  0  0  0
   -3.9109   -2.6717    1.2250 C   0  0  0  0  0  0  0  0  0  0  0  0
   -4.6009   -2.0517    1.7950 H   0  0  0  0  0  0  0  0  0  0  0  0
   -4.2309   -2.7237    0.1860 H   0  0  0  0  0  0  0  0  0  0  0  0
   -2.5229   -2.0787    1.2980 C   0  0  0  0  0  0  0  0  0  0  0  0
   -1.5999   -2.7227    1.7810 O   0  0  0  0  0  0  0  0  0  0  0  0
   -2.3659   -0.8447    0.8120 N   0  0  0  0  0  0  0  0  0  0  0  0
   -3.1749   -0.3807    0.4220 H   0  0  0  0  0  0  0  0  0  0  0  0
   -1.0919   -0.1077    0.8170 C   0  0  1  0  0  0  0  0  0  0  0  0
   -0.4136   -0.6011    1.5155 H   0  0  0  0  0  0  0  0  0  0  0  0
   -0.4834   -0.1723   -0.5965 C   0  0  0  0  0  0  0  0  0  0  0  0
   -1.1563   -0.7423   -1.2389 H   0  0  0  0  0  0  0  0  0  0  0  0
   -0.4040    0.8392   -0.9995 H   0  0  0  0  0  0  0  0  0  0  0  0
    0.8994   -0.8410   -0.6315 C   0  0  0  0  0  0  0  0  0  0  0  0
    0.8122   -1.8434   -1.0526 H   0  0  0  0  0  0  0  0  0  0  0  0
    1.5695   -0.2484   -1.2575 H   0  0  0  0  0  0  0  0  0  0  0  0
    1.4819   -0.9390    0.7852 C   0  0  0  0  0  0  0  0  0  0  0  0
    1.5540    0.0652    1.2098 H   0  0  0  0  0  0  0  0  0  0  0  0
    0.8130   -1.5400    1.4044 H   0  0  0  0  0  0  0  0  0  0  0  0
    2.8731   -1.5838    0.7490 C   0  0  0  0  0  0  0  0  0  0  0  0
    2.7806   -2.5843    0.3140 H   0  0  0  0  0  0  0  0  0  0  0  0
    3.5144   -0.9901    0.0906 H   0  0  0  0  0  0  0  0  0  0  0  0
    3.4706   -1.6693    2.1055 N   0  3  0  0  0  0  0  0  0  0  0  0
    2.8868   -2.2264    2.7167 H   0  0  0  0  0  0  0  0  0  0  0  0
    4.3876   -2.0963    2.0643 H   0  0  0  0  0  0  0  0  0  0  0  0
    3.5665   -0.7447    2.5091 H   0  0  0  0  0  0  0  0  0  0  0  0
   -1.3103    1.3348    1.2791 C   0  0  0  0  0  0  0  0  0  0  0  0
   -2.2333    1.9891    0.8084 O   0  0  0  0  0  0  0  0  0  0  0  0
   -0.4429    1.8293    2.1683 N   0  0  0  0  0  0  0  0  0  0  0  0
    0.2668    1.2118    2.5263 H   0  0  0  0  0  0  0  0  0  0  0  0
   -0.5118    3.1863    2.7135 C   0  0  0  0  0  0  0  0  0  0  0  0
   -1.4470    3.3159    3.2625 H   0  0  0  0  0  0  0  0  0  0  0  0
    0.3243    3.3682    3.3896 H   0  0  0  0  0  0  0  0  0  0  0  0
   -0.4850    3.9172    1.9023 H   0  0  0  0  0  0  0  0  0  0  0  0
  5  6  2  0  0  0  0
  5  7  1  0  0  0  0
  2  3  1  0  0  0  0
  2  4  1  0  0  0  0
  2  5  1  0  0  0  0
  1  2  1  0  0  0  0
 27 28  2  0  0  0  0
 27 29  1  0  0  0  0
 23 24  1  0  0  0  0
 23 25  1  0  0  0  0
 23 26  1  0  0  0  0
 20 21  1  0  0  0  0
 20 22  1  0  0  0  0
 20 23  1  0  0  0  0
 17 18  1  0  0  0  0
 17 19  1  0  0  0  0
 17 20  1  0  0  0  0
 14 15  1  0  0  0  0
 14 16  1  0  0  0  0
 14 17  1  0  0  0  0
 11 12  1  0  0  0  0
 11 13  1  0  0  0  0
 11 14  1  0  0  0  0
  9 10  1  0  0  0  0
  9 11  1  0  0  0  0
  9 27  1  0  0  0  0
  7  8  1  0  0  0  0
  7  9  1  0  0  0  0
 31 32  1  0  0  0  0
 31 33  1  0  0  0  0
 31 34  1  0  0  0  0
 29 30  1  0  0  0  0
 29 31  1  0  0  0  0
M  CHG  1  23   1
M  END
$$$$
default_name
  -OEChem-02102213163D

 34 33  0     1  0  0  0  0  0999 V2000
   -3.8899   -3.6747    1.6490 H   0  0  0  0  0  0  0  0  0  0  0  0
   -3.9109   -2.6717    1.2250 C   0  0  0  0  0  0  0  0  0  0  0  0
   -4.6009   -2.0517    1.7950 H   0  0  0  0  0  0  0  0  0  0  0  0
   -4.2309   -2.7237    0.1860 H   0  0  0  0  0  0  0  0  0  0  0  0
   -2.5229   -2.0787    1.2980 C   0  0  0  0  0  0  0  0  0  0  0  0
   -1.5999   -2.7227    1.7810 O   0  0  0  0  0  0  0  0  0  0  0  0
   -2.3659   -0.8447    0.8120 N   0  0  0  0  0  0  0  0  0  0  0  0
   -3.1749   -0.3807    0.4220 H   0  0  0  0  0  0  0  0  0  0  0  0
   -1.0919   -0.1077    0.8170 C   0  0  1  0  0  0  0  0  0  0  0  0
   -0.4136   -0.6011    1.5155 H   0  0  0  0  0  0  0  0  0  0  0  0
   -0.4834   -0.1723   -0.5965 C   0  0  0  0  0  0  0  0  0  0  0  0
   -1.1563   -0.7423   -1.2389 H   0  0  0  0  0  0  0  0  0  0  0  0
   -0.4040    0.8392   -0.9995 H   0  0  0  0  0  0  0  0  0  0  0  0
    0.8994   -0.8410   -0.6315 C   0  0  0  0  0  0  0  0  0  0  0  0
    0.8680   -1.7161   -1.2819 H   0  0  0  0  0  0  0  0  0  0  0  0
    1.6317   -0.1321   -1.0229 H   0  0  0  0  0  0  0  0  0  0  0  0
    1.3183   -1.2770    0.7793 C   0  0  0  0  0  0  0  0  0  0  0  0
    1.3343   -0.4007    1.4318 H   0  0  0  0  0  0  0  0  0  0  0  0
    0.5880   -1.9926    1.1624 H   0  0  0  0  0  0  0  0  0  0  0  0
    2.7094   -1.9224    0.7496 C   0  0  0  0  0  0  0  0  0  0  0  0
    2.6743   -2.7923    0.0857 H   0  0  0  0  0  0  0  0  0  0  0  0
    3.4167   -1.2043    0.3240 H   0  0  0  0  0  0  0  0  0  0  0  0
    3.1499   -2.3326    2.1069 N   0  3  0  0  0  0  0  0  0  0  0  0
    2.5047   -3.0052    2.5019 H   0  0  0  0  0  0  0  0  0  0  0  0
    4.0688   -2.7559    2.0701 H   0  0  0  0  0  0  0  0  0  0  0  0
    3.1926   -1.5293    2.7232 H   0  0  0  0  0  0  0  0  0  0  0  0
   -1.3103    1.3348    1.2791 C   0  0  0  0  0  0  0  0  0  0  0  0
   -2.2333    1.9891    0.8084 O   0  0  0  0  0  0  0  0  0  0  0  0
   -0.4429    1.8293    2.1683 N   0  0  0  0  0  0  0  0  0  0  0  0
    0.2668    1.2118    2.5263 H   0  0  0  0  0  0  0  0  0  0  0  0
   -0.5118    3.1863    2.7135 C   0  0  0  0  0  0  0  0  0  0  0  0
   -1.4470    3.3159    3.2625 H   0  0  0  0  0  0  0  0  0  0  0  0
    0.3243    3.3682    3.3896 H   0  0  0  0  0  0  0  0  0  0  0  0
   -0.4850    3.9172    1.9023 H   0  0  0  0  0  0  0  0  0  0  0  0
  5  6  2  0  0  0  0
  5  7  1  0  0  0  0
  2  3  1  0  0  0  0
  2  4  1  0  0  0  0
  2  5  1  0  0  0  0
  1  2  1  0  0  0  0
 27 28  2  0  0  0  0
 27 29  1  0  0  0  0
 23 24  1  0  0  0  0
 23 25  1  0  0  0  0
 23 26  1  0  0  0  0
 20 21  1  0  0  0  0
 20 22  1  0  0  0  0
 20 23  1  0  0  0  0
 17 18  1  0  0  0  0
 17 19  1  0  0  0  0
 17 20  1  0  0  0  0
 14 15  1  0  0  0  0
 14 16  1  0  0  0  0
 14 17  1  0  0  0  0
 11 12  1  0  0  0  0
 11 13  1  0  0  0  0
 11 14  1  0  0  0  0
  9 10  1  0  0  0  0
  9 11  1  0  0  0  0
  9 27  1  0  0  0  0
  7  8  1  0  0  0  0
  7  9  1  0  0  0  0
 31 32  1  0  0  0  0
 31 33  1  0  0  0  0
 31 34  1  0  0  0  0
 29 30  1  0  0  0  0
 29 31  1  0  0  0  0
M  CHG  1  23   1
M  END
$$$$
default_name
  -OEChem-02102213163D

 34 33  0     1  0  0  0  0  0999 V2000
   -3.8899   -3.6747    1.6490 H   0  0  0  0  0  0  0  0  0  0  0  0
   -3.9109   -2.6717    1.2250 C   0  0  0  0  0  0  0  0  0  0  0  0
   -4.6009   -2.0517    1.7950 H   0  0  0  0  0  0  0  0  0  0  0  0
   -4.2309   -2.7237    0.1860 H   0  0  0  0  0  0  0  0  0  0  0  0
   -2.5229   -2.0787    1.2980 C   0  0  0  0  0  0  0  0  0  0  0  0
   -1.5999   -2.7227    1.7810 O   0  0  0  0  0  0  0  0  0  0  0  0
   -2.3659   -0.8447    0.8120 N   0  0  0  0  0  0  0  0  0  0  0  0
   -3.1749   -0.3807    0.4220 H   0  0  0  0  0  0  0  0  0  0  0  0
   -1.0919   -0.1077    0.8170 C   0  0  1  0  0  0  0  0  0  0  0  0
   -0.4136   -0.6011    1.5155 H   0  0  0  0  0  0  0  0  0  0  0  0
   -0.4834   -0.1723   -0.5965 C   0  0  0  0  0  0  0  0  0  0  0  0
   -1.1563   -0.7423   -1.2389 H   0  0  0  0  0  0  0  0  0  0  0  0
   -0.4040    0.8392   -0.9995 H   0  0  0  0  0  0  0  0  0  0  0  0
    0.8994   -0.8410   -0.6315 C   0  0  0  0  0  0  0  0  0  0  0  0
    0.9484   -1.5401   -1.4675 H   0  0  0  0  0  0  0  0  0  0  0  0
    1.6660   -0.0747   -0.7623 H   0  0  0  0  0  0  0  0  0  0  0  0
    1.1589   -1.6012    0.6764 C   0  0  0  0  0  0  0  0  0  0  0  0
    1.0944   -0.9012    1.5129 H   0  0  0  0  0  0  0  0  0  0  0  0
    0.3953   -2.3721    0.7977 H   0  0  0  0  0  0  0  0  0  0  0  0
    2.5492   -2.2486    0.6529 C   0  0  0  0  0  0  0  0  0  0  0  0
    2.5960   -2.9394   -0.1953 H   0  0  0  0  0  0  0  0  0  0  0  0
    3.2949   -1.4650    0.4885 H   0  0  0  0  0  0  0  0  0  0  0  0
    2.8361   -2.9717    1.9176 N   0  3  0  0  0  0  0  0  0  0  0  0
    2.1553   -3.7052    2.0700 H   0  0  0  0  0  0  0  0  0  0  0  0
    3.7564   -3.3924    1.8861 H   0  0  0  0  0  0  0  0  0  0  0  0
    2.8026   -2.3347    2.7050 H   0  0  0  0  0  0  0  0  0  0  0  0
   -1.3103    1.3348    1.2791 C   0  0  0  0  0  0  0  0  0  0  0  0
   -2.2333    1.9891    0.8084 O   0  0  0  0  0  0  0  0  0  0  0  0
   -0.4429    1.8293    2.1683 N   0  0  0  0  0  0  0  0  0  0  0  0
    0.2668    1.2118    2.5263 H   0  0  0  0  0  0  0  0  0  0  0  0
   -0.5118    3.1863    2.7135 C   0  0  0  0  0  0  0  0  0  0  0  0
   -1.4470    3.3159    3.2625 H   0  0  0  0  0  0  0  0  0  0  0  0
    0.3243    3.3682    3.3896 H   0  0  0  0  0  0  0  0  0  0  0  0
   -0.4850    3.9172    1.9023 H   0  0  0  0  0  0  0  0  0  0  0  0
  5  6  2  0  0  0  0
  5  7  1  0  0  0  0
  2  3  1  0  0  0  0
  2  4  1  0  0  0  0
  2  5  1  0  0  0  0
  1  2  1  0  0  0  0
 27 28  2  0  0  0  0
 27 29  1  0  0  0  0
 23 24  1  0  0  0  0
 23 25  1  0  0  0  0
 23 26  1  0  0  0  0
 20 21  1  0  0  0  0
 20 22  1  0  0  0  0
 20 23  1  0  0  0  0
 17 18  1  0  0  0  0
 17 19  1  0  0  0  0
 17 20  1  0  0  0  0
 14 15  1  0  0  0  0
 14 16  1  0  0  0  0
 14 17  1  0  0  0  0
 11 12  1  0  0  0  0
 11 13  1  0  0  0  0
 11 14  1  0  0  0  0
  9 10  1  0  0  0  0
  9 11  1  0  0  0  0
  9 27  1  0  0  0  0
  7  8  1  0  0  0  0
  7  9  1  0  0  0  0
 31 32  1  0  0  0  0
 31 33  1  0  0  0  0
 31 34  1  0  0  0  0
 29 30  1  0  0  0  0
 29 31  1  0  0  0  0
M  CHG  1  23   1
M  END
$$$$
default_name
  -OEChem-02102213163D

 34 33  0     1  0  0  0  0  0999 V2000
   -3.8899   -3.6747    1.6490 H   0  0  0  0  0  0  0  0  0  0  0  0
   -3.9109   -2.6717    1.2250 C   0  0  0  0  0  0  0  0  0  0  0  0
   -4.6009   -2.0517    1.7950 H   0  0  0  0  0  0  0  0  0  0  0  0
   -4.2309   -2.7237    0.1860 H   0  0  0  0  0  0  0  0  0  0  0  0
   -2.5229   -2.0787    1.2980 C   0  0  0  0  0  0  0  0  0  0  0  0
   -1.5999   -2.7227    1.7810 O   0  0  0  0  0  0  0  0  0  0  0  0
   -2.3659   -0.8447    0.8120 N   0  0  0  0  0  0  0  0  0  0  0  0
   -3.1749   -0.3807    0.4220 H   0  0  0  0  0  0  0  0  0  0  0  0
   -1.0919   -0.1077    0.8170 C   0  0  1  0  0  0  0  0  0  0  0  0
   -0.4136   -0.6011    1.5155 H   0  0  0  0  0  0  0  0  0  0  0  0
   -0.4834   -0.1723   -0.5965 C   0  0  0  0  0  0  0  0  0  0  0  0
   -1.1563   -0.7423   -1.2389 H   0  0  0  0  0  0  0  0  0  0  0  0
   -0.4040    0.8392   -0.9995 H   0  0  0  0  0  0  0  0  0  0  0  0
    0.8994   -0.8410   -0.6315 C   0  0  0  0  0  0  0  0  0  0  0  0
    1.0480   -1.3272   -1.5966 H   0  0  0  0  0  0  0  0  0  0  0  0
    1.6702   -0.0802   -0.4932 H   0  0  0  0  0  0  0  0  0  0  0  0
    1.0146   -1.8895    0.4836 C   0  0  0  0  0  0  0  0  0  0  0  0
    0.8505   -1.4021    1.4476 H   0  0  0  0  0  0  0  0  0  0  0  0
    0.2479   -2.6525    0.3354 H   0  0  0  0  0  0  0  0  0  0  0  0
    2.4034   -2.5403    0.4655 C   0  0  0  0  0  0  0  0  0  0  0  0
    2.5512   -3.0156   -0.5097 H   0  0  0  0  0  0  0  0  0  0  0  0
    3.1571   -1.7544    0.5729 H   0  0  0  0  0  0  0  0  0  0  0  0
    2.5505   -3.5430    1.5505 N   0  3  0  0  0  0  0  0  0  0  0  0
    1.8623   -4.2787    1.4504 H   0  0  0  0  0  0  0  0  0  0  0  0
    3.4715   -3.9626    1.5250 H   0  0  0  0  0  0  0  0  0  0  0  0
    2.4233   -3.1062    2.4560 H   0  0  0  0  0  0  0  0  0  0  0  0
   -1.3103    1.3348    1.2791 C   0  0  0  0  0  0  0  0  0  0  0  0
   -2.2333    1.9891    0.8084 O   0  0  0  0  0  0  0  0  0  0  0  0
   -0.4429    1.8293    2.1683 N   0  0  0  0  0  0  0  0  0  0  0  0
    0.2668    1.2118    2.5263 H   0  0  0  0  0  0  0  0  0  0  0  0
   -0.5118    3.1863    2.7135 C   0  0  0  0  0  0  0  0  0  0  0  0
   -1.4470    3.3159    3.2625 H   0  0  0  0  0  0  0  0  0  0  0  0
    0.3243    3.3682    3.3896 H   0  0  0  0  0  0  0  0  0  0  0  0
   -0.4850    3.9172    1.9023 H   0  0  0  0  0  0  0  0  0  0  0  0
  5  6  2  0  0  0  0
  5  7  1  0  0  0  0
  2  3  1  0  0  0  0
  2  4  1  0  0  0  0
  2  5  1  0  0  0  0
  1  2  1  0  0  0  0
 27 28  2  0  0  0  0
 27 29  1  0  0  0  0
 23 24  1  0  0  0  0
 23 25  1  0  0  0  0
 23 26  1  0  0  0  0
 20 21  1  0  0  0  0
 20 22  1  0  0  0  0
 20 23  1  0  0  0  0
 17 18  1  0  0  0  0
 17 19  1  0  0  0  0
 17 20  1  0  0  0  0
 14 15  1  0  0  0  0
 14 16  1  0  0  0  0
 14 17  1  0  0  0  0
 11 12  1  0  0  0  0
 11 13  1  0  0  0  0
 11 14  1  0  0  0  0
  9 10  1  0  0  0  0
  9 11  1  0  0  0  0
  9 27  1  0  0  0  0
  7  8  1  0  0  0  0
  7  9  1  0  0  0  0
 31 32  1  0  0  0  0
 31 33  1  0  0  0  0
 31 34  1  0  0  0  0
 29 30  1  0  0  0  0
 29 31  1  0  0  0  0
M  CHG  1  23   1
M  END
$$$$
default_name
  -OEChem-02102213163D

 34 33  0     1  0  0  0  0  0999 V2000
   -3.8899   -3.6747    1.6490 H   0  0  0  0  0  0  0  0  0  0  0  0
   -3.9109   -2.6717    1.2250 C   0  0  0  0  0  0  0  0  0  0  0  0
   -4.6009   -2.0517    1.7950 H   0  0  0  0  0  0  0  0  0  0  0  0
   -4.2309   -2.7237    0.1860 H   0  0  0  0  0  0  0  0  0  0  0  0
   -2.5229   -2.0787    1.2980 C   0  0  0  0  0  0  0  0  0  0  0  0
   -1.5999   -2.7227    1.7810 O   0  0  0  0  0  0  0  0  0  0  0  0
   -2.3659   -0.8447    0.8120 N   0  0  0  0  0  0  0  0  0  0  0  0
   -3.1749   -0.3807    0.4220 H   0  0  0  0  0  0  0  0  0  0  0  0
   -1.0919   -0.1077    0.8170 C   0  0  1  0  0  0  0  0  0  0  0  0
   -0.4136   -0.6011    1.5155 H   0  0  0  0  0  0  0  0  0  0  0  0
   -0.4834   -0.1723   -0.5965 C   0  0  0  0  0  0  0  0  0  0  0  0
   -1.1563   -0.7423   -1.2389 H   0  0  0  0  0  0  0  0  0  0  0  0
   -0.4040    0.8392   -0.9995 H   0  0  0  0  0  0  0  0  0  0  0  0
    0.8994   -0.8410   -0.6315 C   0  0  0  0  0  0  0  0  0  0  0  0
    1.1601   -1.0922   -1.6605 H   0  0  0  0  0  0  0  0  0  0  0  0
    1.6438   -0.1482   -0.2342 H   0  0  0  0  0  0  0  0  0  0  0  0
    0.8953   -2.1221    0.2139 C   0  0  0  0  0  0  0  0  0  0  0  0
    0.6193   -1.8693    1.2404 H   0  0  0  0  0  0  0  0  0  0  0  0
    0.1560   -2.8149   -0.1930 H   0  0  0  0  0  0  0  0  0  0  0  0
    2.2820   -2.7775    0.2000 C   0  0  0  0  0  0  0  0  0  0  0  0
    2.5429   -3.0156   -0.8363 H   0  0  0  0  0  0  0  0  0  0  0  0
    3.0127   -2.0528    0.5715 H   0  0  0  0  0  0  0  0  0  0  0  0
    2.3126   -4.0078    1.0307 N   0  3  0  0  0  0  0  0  0  0  0  0
    1.6457   -4.6865    0.6853 H   0  0  0  0  0  0  0  0  0  0  0  0
    3.2337   -4.4275    1.0112 H   0  0  0  0  0  0  0  0  0  0  0  0
    2.0803   -3.7912    1.9930 H   0  0  0  0  0  0  0  0  0  0  0  0
   -1.3103    1.3348    1.2791 C   0  0  0  0  0  0  0  0  0  0  0  0
   -2.2333    1.9891    0.8084 O   0  0  0  0  0  0  0  0  0  0  0  0
   -0.4429    1.8293    2.1683 N   0  0  0  0  0  0  0  0  0  0  0  0
    0.2668    1.2118    2.5263 H   0  0  0  0  0  0  0  0  0  0  0  0
   -0.5118    3.1863    2.7135 C   0  0  0  0  0  0  0  0  0  0  0  0
   -1.4470    3.3159    3.2625 H   0  0  0  0  0  0  0  0  0  0  0  0
    0.3243    3.3682    3.3896 H   0  0  0  0  0  0  0  0  0  0  0  0
   -0.4850    3.9172    1.9023 H   0  0  0  0  0  0  0  0  0  0  0  0
  5  6  2  0  0  0  0
  5  7  1  0  0  0  0
  2  3  1  0  0  0  0
  2  4  1  0  0  0  0
  2  5  1  0  0  0  0
  1  2  1  0  0  0  0
 27 28  2  0  0  0  0
 27 29  1  0  0  0  0
 23 24  1  0  0  0  0
 23 25  1  0  0  0  0
 23 26  1  0  0  0  0
 20 21  1  0  0  0  0
 20 22  1  0  0  0  0
 20 23  1  0  0  0  0
 17 18  1  0  0  0  0
 17 19  1  0  0  0  0
 17 20  1  0  0  0  0
 14 15  1  0  0  0  0
 14 16  1  0  0  0  0
 14 17  1  0  0  0  0
 11 12  1  0  0  0  0
 11 13  1  0  0  0  0
 11 14  1  0  0  0  0
  9 10  1  0  0  0  0
  9 11  1  0  0  0  0
  9 27  1  0  0  0  0
  7  8  1  0  0  0  0
  7  9  1  0  0  0  0
 31 32  1  0  0  0  0
 31 33  1  0  0  0  0
 31 34  1  0  0  0  0
 29 30  1  0  0  0  0
 29 31  1  0  0  0  0
M  CHG  1  23   1
M  END
$$$$
default_name
  -OEChem-02102213163D

 34 33  0     1  0  0  0  0  0999 V2000
   -3.8899   -3.6747    1.6490 H   0  0  0  0  0  0  0  0  0  0  0  0
   -3.9109   -2.6717    1.2250 C   0  0  0  0  0  0  0  0  0  0  0  0
   -4.6009   -2.0517    1.7950 H   0  0  0  0  0  0  0  0  0  0  0  0
   -4.2309   -2.7237    0.1860 H   0  0  0  0  0  0  0  0  0  0  0  0
   -2.5229   -2.0787    1.2980 C   0  0  0  0  0  0  0  0  0  0  0  0
   -1.5999   -2.7227    1.7810 O   0  0  0  0  0  0  0  0  0  0  0  0
   -2.3659   -0.8447    0.8120 N   0  0  0  0  0  0  0  0  0  0  0  0
   -3.1749   -0.3807    0.4220 H   0  0  0  0  0  0  0  0  0  0  0  0
   -1.0919   -0.1077    0.8170 C   0  0  1  0  0  0  0  0  0  0  0  0
   -0.4136   -0.6011    1.5155 H   0  0  0  0  0  0  0  0  0  0  0  0
   -0.4834   -0.1723   -0.5965 C   0  0  0  0  0  0  0  0  0  0  0  0
   -1.1563   -0.7423   -1.2389 H   0  0  0  0  0  0  0  0  0  0  0  0
   -0.4040    0.8392   -0.9995 H   0  0  0  0  0  0  0  0  0  0  0  0
    0.8994   -0.8410   -0.6315 C   0  0  0  0  0  0  0  0  0  0  0  0
    1.2769   -0.8509   -1.6549 H   0  0  0  0  0  0  0  0  0  0  0  0
    1.5888   -0.2741   -0.0028 H   0  0  0  0  0  0  0  0  0  0  0  0
    0.8090   -2.2833   -0.1142 C   0  0  0  0  0  0  0  0  0  0  0  0
    0.4166   -2.2709    0.9054 H   0  0  0  0  0  0  0  0  0  0  0  0
    0.1258   -2.8481   -0.7517 H   0  0  0  0  0  0  0  0  0  0  0  0
    2.1932   -2.9440   -0.1253 C   0  0  0  0  0  0  0  0  0  0  0  0
    2.5716   -2.9396   -1.1527 H   0  0  0  0  0  0  0  0  0  0  0  0
    2.8717   -2.3398    0.4844 H   0  0  0  0  0  0  0  0  0  0  0  0
    2.1386   -4.3341    0.3935 N   0  3  0  0  0  0  0  0  0  0  0  0
    1.5202   -4.9010   -0.1731 H   0  0  0  0  0  0  0  0  0  0  0  0
    3.0591   -4.7555    0.3799 H   0  0  0  0  0  0  0  0  0  0  0  0
    1.7972   -4.3429    1.3475 H   0  0  0  0  0  0  0  0  0  0  0  0
   -1.3103    1.3348    1.2791 C   0  0  0  0  0  0  0  0  0  0  0  0
   -2.2333    1.9891    0.8084 O   0  0  0  0  0  0  0  0  0  0  0  0
   -0.4429    1.8293    2.1683 N   0  0  0  0  0  0  0  0  0  0  0  0
    0.2668    1.2118    2.5263 H   0  0  0  0  0  0  0  0  0  0  0  0
   -0.5118    3.1863    2.7135 C   0  0  0  0  0  0  0  0  0  0  0  0
   -1.4470    3.3159    3.2625 H   0  0  0  0  0  0  0  0  0  0  0  0
    0.3243    3.3682    3.3896 H   0  0  0  0  0  0  0  0  0  0  0  0
   -0.4850    3.9172    1.9023 H   0  0  0  0  0  0  0  0  0  0  0  0
  5  6  2  0  0  0  0
  5  7  1  0  0  0  0
  2  3  1  0  0  0  0
  2  4  1  0  0  0  0
  2  5  1  0  0  0  0
  1  2  1  0  0  0  0
 27 28  2  0  0  0  0
 27 29  1  0  0  0  0
 23 24  1  0  0  0  0
 23 25  1  0  0  0  0
 23 26  1  0  0  0  0
 20 21  1  0  0  0  0
 20 22  1  0  0  0  0
 20 23  1  0  0  0  0
 17 18  1  0  0  0  0
 17 19  1  0  0  0  0
 17 20  1  0  0  0  0
 14 15  1  0  0  0  0
 14 16  1  0  0  0  0
 14 17  1  0  0  0  0
 11 12  1  0  0  0  0
 11 13  1  0  0  0  0
 11 14  1  0  0  0  0
  9 10  1  0  0  0  0
  9 11  1  0  0  0  0
  9 27  1  0  0  0  0
  7  8  1  0  0  0  0
  7  9  1  0  0  0  0
 31 32  1  0  0  0  0
 31 33  1  0  0  0  0
 31 34  1  0  0  0  0
 29 30  1  0  0  0  0
 29 31  1  0  0  0  0
M  CHG  1  23   1
M  END
$$$$
default_name
  -OEChem-02102213163D

 34 33  0     1  0  0  0  0  0999 V2000
   -3.8899   -3.6747    1.6490 H   0  0  0  0  0  0  0  0  0  0  0  0
   -3.9109   -2.6717    1.2250 C   0  0  0  0  0  0  0  0  0  0  0  0
   -4.6009   -2.0517    1.7950 H   0  0  0  0  0  0  0  0  0  0  0  0
   -4.2309   -2.7237    0.1860 H   0  0  0  0  0  0  0  0  0  0  0  0
   -2.5229   -2.0787    1.2980 C   0  0  0  0  0  0  0  0  0  0  0  0
   -1.5999   -2.7227    1.7810 O   0  0  0  0  0  0  0  0  0  0  0  0
   -2.3659   -0.8447    0.8120 N   0  0  0  0  0  0  0  0  0  0  0  0
   -3.1749   -0.3807    0.4220 H   0  0  0  0  0  0  0  0  0  0  0  0
   -1.0919   -0.1077    0.8170 C   0  0  1  0  0  0  0  0  0  0  0  0
   -0.4136   -0.6011    1.5155 H   0  0  0  0  0  0  0  0  0  0  0  0
   -0.4834   -0.1723   -0.5965 C   0  0  0  0  0  0  0  0  0  0  0  0
   -1.1563   -0.7423   -1.2389 H   0  0  0  0  0  0  0  0  0  0  0  0
   -0.4040    0.8392   -0.9995 H   0  0  0  0  0  0  0  0  0  0  0  0
    0.8994   -0.8410   -0.6315 C   0  0  0  0  0  0  0  0  0  0  0  0
    1.3905   -0.6199   -1.5801 H   0  0  0  0  0  0  0  0  0  0  0  0
    1.5089   -0.4493    0.1852 H   0  0  0  0  0  0  0  0  0  0  0  0
    0.7617   -2.3620   -0.4784 C   0  0  0  0  0  0  0  0  0  0  0  0
    0.2562   -2.5797    0.4655 H   0  0  0  0  0  0  0  0  0  0  0  0
    0.1594   -2.7498   -1.3024 H   0  0  0  0  0  0  0  0  0  0  0  0
    2.1431   -3.0286   -0.4883 C   0  0  0  0  0  0  0  0  0  0  0  0
    2.6355   -2.7926   -1.4373 H   0  0  0  0  0  0  0  0  0  0  0  0
    2.7436   -2.5960    0.3175 H   0  0  0  0  0  0  0  0  0  0  0  0
    2.0404   -4.4999   -0.3176 N   0  3  0  0  0  0  0  0  0  0  0  0
    1.4944   -4.9075   -1.0664 H   0  0  0  0  0  0  0  0  0  0  0  0
    2.9596   -4.9242   -0.3260 H   0  0  0  0  0  0  0  0  0  0  0  0
    1.5931   -4.7238    0.5637 H   0  0  0  0  0  0  0  0  0  0  0  0
   -1.3103    1.3348    1.2791 C   0  0  0  0  0  0  0  0  0  0  0  0
   -2.2333    1.9891    0.8084 O   0  0  0  0  0  0  0  0  0  0  0  0
   -0.4429    1.8293    2.1683 N   0  0  0  0  0  0  0  0  0  0  0  0
    0.2668    1.2118    2.5263 H   0  0  0  0  0  0  0  0  0  0  0  0
   -0.5118    3.1863    2.7135 C   0  0  0  0  0  0  0  0  0  0  0  0
   -1.4470    3.3159    3.2625 H   0  0  0  0  0  0  0  0  0  0  0  0
    0.3243    3.3682    3.3896 H   0  0  0  0  0  0  0  0  0  0  0  0
   -0.4850    3.9172    1.9023 H   0  0  0  0  0  0  0  0  0  0  0  0
  5  6  2  0  0  0  0
  5  7  1  0  0  0  0
  2  3  1  0  0  0  0
  2  4  1  0  0  0  0
  2  5  1  0  0  0  0
  1  2  1  0  0  0  0
 27 28  2  0  0  0  0
 27 29  1  0  0  0  0
 23 24  1  0  0  0  0
 23 25  1  0  0  0  0
 23 26  1  0  0  0  0
 20 21  1  0  0  0  0
 20 22  1  0  0  0  0
 20 23  1  0  0  0  0
 17 18  1  0  0  0  0
 17 19  1  0  0  0  0
 17 20  1  0  0  0  0
 14 15  1  0  0  0  0
 14 16  1  0  0  0  0
 14 17  1  0  0  0  0
 11 12  1  0  0  0  0
 11 13  1  0  0  0  0
 11 14  1  0  0  0  0
  9 10  1  0  0  0  0
  9 11  1  0  0  0  0
  9 27  1  0  0  0  0
  7  8  1  0  0  0  0
  7  9  1  0  0  0  0
 31 32  1  0  0  0  0
 31 33  1  0  0  0  0
 31 34  1  0  0  0  0
 29 30  1  0  0  0  0
 29 31  1  0  0  0  0
M  CHG  1  23   1
M  END
$$$$
default_name
  -OEChem-02102213163D

 34 33  0     1  0  0  0  0  0999 V2000
   -3.8899   -3.6747    1.6490 H   0  0  0  0  0  0  0  0  0  0  0  0
   -3.9109   -2.6717    1.2250 C   0  0  0  0  0  0  0  0  0  0  0  0
   -4.6009   -2.0517    1.7950 H   0  0  0  0  0  0  0  0  0  0  0  0
   -4.2309   -2.7237    0.1860 H   0  0  0  0  0  0  0  0  0  0  0  0
   -2.5229   -2.0787    1.2980 C   0  0  0  0  0  0  0  0  0  0  0  0
   -1.5999   -2.7227    1.7810 O   0  0  0  0  0  0  0  0  0  0  0  0
   -2.3659   -0.8447    0.8120 N   0  0  0  0  0  0  0  0  0  0  0  0
   -3.1749   -0.3807    0.4220 H   0  0  0  0  0  0  0  0  0  0  0  0
   -1.0919   -0.1077    0.8170 C   0  0  1  0  0  0  0  0  0  0  0  0
   -0.4136   -0.6011    1.5155 H   0  0  0  0  0  0  0  0  0  0  0  0
   -0.4834   -0.1723   -0.5965 C   0  0  0  0  0  0  0  0  0  0  0  0
   -1.1563   -0.7423   -1.2389 H   0  0  0  0  0  0  0  0  0  0  0  0
   -0.4040    0.8392   -0.9995 H   0  0  0  0  0  0  0  0  0  0  0  0
    0.8994   -0.8410   -0.6315 C   0  0  0  0  0  0  0  0  0  0  0  0
    1.4932   -0.4148   -1.4413 H   0  0  0  0  0  0  0  0  0  0  0  0
    1.4095   -0.6618    0.3170 H   0  0  0  0  0  0  0  0  0  0  0  0
    0.7566   -2.3530   -0.8539 C   0  0  0  0  0  0  0  0  0  0  0  0
    0.1490   -2.7744   -0.0495 H   0  0  0  0  0  0  0  0  0  0  0  0
    0.2544   -2.5268   -1.8077 H   0  0  0  0  0  0  0  0  0  0  0  0
    2.1351   -3.0254   -0.8643 C   0  0  0  0  0  0  0  0  0  0  0  0
    2.7301   -2.5847   -1.6708 H   0  0  0  0  0  0  0  0  0  0  0  0
    2.6372   -2.8038    0.0822 H   0  0  0  0  0  0  0  0  0  0  0  0
    2.0247   -4.4939   -1.0542 N   0  3  0  0  0  0  0  0  0  0  0  0
    1.5701   -4.7054   -1.9336 H   0  0  0  0  0  0  0  0  0  0  0  0
    2.9420   -4.9222   -1.0583 H   0  0  0  0  0  0  0  0  0  0  0  0
    1.4821   -4.9079   -0.3052 H   0  0  0  0  0  0  0  0  0  0  0  0
   -1.3103    1.3348    1.2791 C   0  0  0  0  0  0  0  0  0  0  0  0
   -2.2333    1.9891    0.8084 O   0  0  0  0  0  0  0  0  0  0  0  0
   -0.4429    1.8293    2.1683 N   0  0  0  0  0  0  0  0  0  0  0  0
    0.2668    1.2118    2.5263 H   0  0  0  0  0  0  0  0  0  0  0  0
   -0.5118    3.1863    2.7135 C   0  0  0  0  0  0  0  0  0  0  0  0
   -1.4470    3.3159    3.2625 H   0  0  0  0  0  0  0  0  0  0  0  0
    0.3243    3.3682    3.3896 H   0  0  0  0  0  0  0  0  0  0  0  0
   -0.4850    3.9172    1.9023 H   0  0  0  0  0  0  0  0  0  0  0  0
  5  6  2  0  0  0  0
  5  7  1  0  0  0  0
  2  3  1  0  0  0  0
  2  4  1  0  0  0  0
  2  5  1  0  0  0  0
  1  2  1  0  0  0  0
 27 28  2  0  0  0  0
 27 29  1  0  0  0  0
 23 24  1  0  0  0  0
 23 25  1  0  0  0  0
 23 26  1  0  0  0  0
 20 21  1  0  0  0  0
 20 22  1  0  0  0  0
 20 23  1  0  0  0  0
 17 18  1  0  0  0  0
 17 19  1  0  0  0  0
 17 20  1  0  0  0  0
 14 15  1  0  0  0  0
 14 16  1  0  0  0  0
 14 17  1  0  0  0  0
 11 12  1  0  0  0  0
 11 13  1  0  0  0  0
 11 14  1  0  0  0  0
  9 10  1  0  0  0  0
  9 11  1  0  0  0  0
  9 27  1  0  0  0  0
  7  8  1  0  0  0  0
  7  9  1  0  0  0  0
 31 32  1  0  0  0  0
 31 33  1  0  0  0  0
 31 34  1  0  0  0  0
 29 30  1  0  0  0  0
 29 31  1  0  0  0  0
M  CHG  1  23   1
M  END
$$$$
default_name
  -OEChem-02102213163D

 34 33  0     1  0  0  0  0  0999 V2000
   -3.8899   -3.6747    1.6490 H   0  0  0  0  0  0  0  0  0  0  0  0
   -3.9109   -2.6717    1.2250 C   0  0  0  0  0  0  0  0  0  0  0  0
   -4.6009   -2.0517    1.7950 H   0  0  0  0  0  0  0  0  0  0  0  0
   -4.2309   -2.7237    0.1860 H   0  0  0  0  0  0  0  0  0  0  0  0
   -2.5229   -2.0787    1.2980 C   0  0  0  0  0  0  0  0  0  0  0  0
   -1.5999   -2.7227    1.7810 O   0  0  0  0  0  0  0  0  0  0  0  0
   -2.3659   -0.8447    0.8120 N   0  0  0  0  0  0  0  0  0  0  0  0
   -3.1749   -0.3807    0.4220 H   0  0  0  0  0  0  0  0  0  0  0  0
   -1.0919   -0.1077    0.8170 C   0  0  1  0  0  0  0  0  0  0  0  0
   -0.4136   -0.6011    1.5155 H   0  0  0  0  0  0  0  0  0  0  0  0
   -0.4834   -0.1723   -0.5965 C   0  0  0  0  0  0  0  0  0  0  0  0
   -1.1563   -0.7423   -1.2389 H   0  0  0  0  0  0  0  0  0  0  0  0
   -0.4040    0.8392   -0.9995 H   0  0  0  0  0  0  0  0  0  0  0  0
    0.8994   -0.8410   -0.6315 C   0  0  0  0  0  0  0  0  0  0  0  0
    1.5780   -0.2496   -1.2478 H   0  0  0  0  0  0  0  0  0  0  0  0
    1.2973   -0.8972    0.3836 H   0  0  0  0  0  0  0  0  0  0  0  0
    0.7940   -2.2568   -1.2150 C   0  0  0  0  0  0  0  0  0  0  0  0
    0.1022   -2.8419   -0.6044 H   0  0  0  0  0  0  0  0  0  0  0  0
    0.4045   -2.1942   -2.2331 H   0  0  0  0  0  0  0  0  0  0  0  0
    2.1697   -2.9348   -1.2277 C   0  0  0  0  0  0  0  0  0  0  0  0
    2.8490   -2.3300   -1.8373 H   0  0  0  0  0  0  0  0  0  0  0  0
    2.5596   -2.9490   -0.2054 H   0  0  0  0  0  0  0  0  0  0  0  0
    2.0925   -4.3163   -1.7660 N   0  3  0  0  0  0  0  0  0  0  0  0
    1.7422   -4.3087   -2.7157 H   0  0  0  0  0  0  0  0  0  0  0  0
    3.0075   -4.7495   -1.7672 H   0  0  0  0  0  0  0  0  0  0  0  0
    1.4716   -4.8827   -1.1999 H   0  0  0  0  0  0  0  0  0  0  0  0
   -1.3103    1.3348    1.2791 C   0  0  0  0  0  0  0  0  0  0  0  0
   -2.2333    1.9891    0.8084 O   0  0  0  0  0  0  0  0  0  0  0  0
   -0.4429    1.8293    2.1683 N   0  0  0  0  0  0  0  0  0  0  0  0
    0.2668    1.2118    2.5263 H   0  0  0  0  0  0  0  0  0  0  0  0
   -0.5118    3.1863    2.7135 C   0  0  0  0  0  0  0  0  0  0  0  0
   -1.4470    3.3159    3.2625 H   0  0  0  0  0  0  0  0  0  0  0  0
    0.3243    3.3682    3.3896 H   0  0  0  0  0  0  0  0  0  0  0  0
   -0.4850    3.9172    1.9023 H   0  0  0  0  0  0  0  0  0  0  0  0
  5  6  2  0  0  0  0
  5  7  1  0  0  0  0
  2  3  1  0  0  0  0
  2  4  1  0  0  0  0
  2  5  1  0  0  0  0
  1  2  1  0  0  0  0
 27 28  2  0  0  0  0
 27 29  1  0  0  0  0
 23 24  1  0  0  0  0
 23 25  1  0  0  0  0
 23 26  1  0  0  0  0
 20 21  1  0  0  0  0
 20 22  1  0  0  0  0
 20 23  1  0  0  0  0
 17 18  1  0  0  0  0
 17 19  1  0  0  0  0
 17 20  1  0  0  0  0
 14 15  1  0  0  0  0
 14 16  1  0  0  0  0
 14 17  1  0  0  0  0
 11 12  1  0  0  0  0
 11 13  1  0  0  0  0
 11 14  1  0  0  0  0
  9 10  1  0  0  0  0
  9 11  1  0  0  0  0
  9 27  1  0  0  0  0
  7  8  1  0  0  0  0
  7  9  1  0  0  0  0
 31 32  1  0  0  0  0
 31 33  1  0  0  0  0
 31 34  1  0  0  0  0
 29 30  1  0  0  0  0
 29 31  1  0  0  0  0
M  CHG  1  23   1
M  END
$$$$
default_name
  -OEChem-02102213163D

 34 33  0     1  0  0  0  0  0999 V2000
   -3.8899   -3.6747    1.6490 H   0  0  0  0  0  0  0  0  0  0  0  0
   -3.9109   -2.6717    1.2250 C   0  0  0  0  0  0  0  0  0  0  0  0
   -4.6009   -2.0517    1.7950 H   0  0  0  0  0  0  0  0  0  0  0  0
   -4.2309   -2.7237    0.1860 H   0  0  0  0  0  0  0  0  0  0  0  0
   -2.5229   -2.0787    1.2980 C   0  0  0  0  0  0  0  0  0  0  0  0
   -1.5999   -2.7227    1.7810 O   0  0  0  0  0  0  0  0  0  0  0  0
   -2.3659   -0.8447    0.8120 N   0  0  0  0  0  0  0  0  0  0  0  0
   -3.1749   -0.3807    0.4220 H   0  0  0  0  0  0  0  0  0  0  0  0
   -1.0919   -0.1077    0.8170 C   0  0  1  0  0  0  0  0  0  0  0  0
   -0.4136   -0.6011    1.5155 H   0  0  0  0  0  0  0  0  0  0  0  0
   -0.4834   -0.1723   -0.5965 C   0  0  0  0  0  0  0  0  0  0  0  0
   -1.1563   -0.7423   -1.2389 H   0  0  0  0  0  0  0  0  0  0  0  0
   -0.4040    0.8392   -0.9995 H   0  0  0  0  0  0  0  0  0  0  0  0
    0.8994   -0.8410   -0.6315 C   0  0  0  0  0  0  0  0  0  0  0  0
    1.6390   -0.1357   -1.0129 H   0  0  0  0  0  0  0  0  0  0  0  0
    1.1801   -1.1394    0.3804 H   0  0  0  0  0  0  0  0  0  0  0  0
    0.8713   -2.0799   -1.5373 C   0  0  0  0  0  0  0  0  0  0  0  0
    0.1192   -2.7776   -1.1613 H   0  0  0  0  0  0  0  0  0  0  0  0
    0.5993   -1.7748   -2.5497 H   0  0  0  0  0  0  0  0  0  0  0  0
    2.2447   -2.7627   -1.5536 C   0  0  0  0  0  0  0  0  0  0  0  0
    2.9842   -2.0460   -1.9253 H   0  0  0  0  0  0  0  0  0  0  0  0
    2.5163   -3.0219   -0.5259 H   0  0  0  0  0  0  0  0  0  0  0  0
    2.2392   -3.9794   -2.4045 N   0  3  0  0  0  0  0  0  0  0  0  0
    1.9987   -3.7444   -3.3594 H   0  0  0  0  0  0  0  0  0  0  0  0
    3.1517   -4.4180   -2.4044 H   0  0  0  0  0  0  0  0  0  0  0  0
    1.5624   -4.6499   -2.0593 H   0  0  0  0  0  0  0  0  0  0  0  0
   -1.3103    1.3348    1.2791 C   0  0  0  0  0  0  0  0  0  0  0  0
   -2.2333    1.9891    0.8084 O   0  0  0  0  0  0  0  0  0  0  0  0
   -0.4429    1.8293    2.1683 N   0  0  0  0  0  0  0  0  0  0  0  0
    0.2668    1.2118    2.5263 H   0  0  0  0  0  0  0  0  0  0  0  0
   -0.5118    3.1863    2.7135 C   0  0  0  0  0  0  0  0  0  0  0  0
   -1.4470    3.3159    3.2625 H   0  0  0  0  0  0  0  0  0  0  0  0
    0.3243    3.3682    3.3896 H   0  0  0  0  0  0  0  0  0  0  0  0
   -0.4850    3.9172    1.9023 H   0  0  0  0  0  0  0  0  0  0  0  0
  5  6  2  0  0  0  0
  5  7  1  0  0  0  0
  2  3  1  0  0  0  0
  2  4  1  0  0  0  0
  2  5  1  0  0  0  0
  1  2  1  0  0  0  0
 27 28  2  0  0  0  0
 27 29  1  0  0  0  0
 23 24  1  0  0  0  0
 23 25  1  0  0  0  0
 23 26  1  0  0  0  0
 20 21  1  0  0  0  0
 20 22  1  0  0  0  0
 20 23  1  0  0  0  0
 17 18  1  0  0  0  0
 17 19  1  0  0  0  0
 17 20  1  0  0  0  0
 14 15  1  0  0  0  0
 14 16  1  0  0  0  0
 14 17  1  0  0  0  0
 11 12  1  0  0  0  0
 11 13  1  0  0  0  0
 11 14  1  0  0  0  0
  9 10  1  0  0  0  0
  9 11  1  0  0  0  0
  9 27  1  0  0  0  0
  7  8  1  0  0  0  0
  7  9  1  0  0  0  0
 31 32  1  0  0  0  0
 31 33  1  0  0  0  0
 31 34  1  0  0  0  0
 29 30  1  0  0  0  0
 29 31  1  0  0  0  0
M  CHG  1  23   1
M  END
$$$$
default_name
  -OEChem-02102213163D

 34 33  0     1  0  0  0  0  0999 V2000
   -3.8899   -3.6747    1.6490 H   0  0  0  0  0  0  0  0  0  0  0  0
   -3.9109   -2.6717    1.2250 C   0  0  0  0  0  0  0  0  0  0  0  0
   -4.6009   -2.0517    1.7950 H   0  0  0  0  0  0  0  0  0  0  0  0
   -4.2309   -2.7237    0.1860 H   0  0  0  0  0  0  0  0  0  0  0  0
   -2.5229   -2.0787    1.2980 C   0  0  0  0  0  0  0  0  0  0  0  0
   -1.5999   -2.7227    1.7810 O   0  0  0  0  0  0  0  0  0  0  0  0
   -2.3659   -0.8447    0.8120 N   0  0  0  0  0  0  0  0  0  0  0  0
   -3.1749   -0.3807    0.4220 H   0  0  0  0  0  0  0  0  0  0  0  0
   -1.0919   -0.1077    0.8170 C   0  0  1  0  0  0  0  0  0  0  0  0
   -0.4136   -0.6011    1.5155 H   0  0  0  0  0  0  0  0  0  0  0  0
   -0.4834   -0.1723   -0.5965 C   0  0  0  0  0  0  0  0  0  0  0  0
   -1.1563   -0.7423   -1.2389 H   0  0  0  0  0  0  0  0  0  0  0  0
   -0.4040    0.8392   -0.9995 H   0  0  0  0  0  0  0  0  0  0  0  0
    0.8994   -0.8410   -0.6315 C   0  0  0  0  0  0  0  0  0  0  0  0
    1.6722   -0.0807   -0.7526 H   0  0  0  0  0  0  0  0  0  0  0  0
    1.0658   -1.3720    0.3077 H   0  0  0  0  0  0  0  0  0  0  0  0
    0.9834   -1.8344   -1.7986 C   0  0  0  0  0  0  0  0  0  0  0  0
    0.1987   -2.5859   -1.6824 H   0  0  0  0  0  0  0  0  0  0  0  0
    0.8256   -1.2970   -2.7358 H   0  0  0  0  0  0  0  0  0  0  0  0
    2.3548   -2.5210   -1.8199 C   0  0  0  0  0  0  0  0  0  0  0  0
    3.1263   -1.7519   -1.9290 H   0  0  0  0  0  0  0  0  0  0  0  0
    2.5101   -3.0174   -0.8572 H   0  0  0  0  0  0  0  0  0  0  0  0
    2.4549   -3.5061   -2.9263 N   0  3  0  0  0  0  0  0  0  0  0  0
    2.3224   -3.0508   -3.8207 H   0  0  0  0  0  0  0  0  0  0  0  0
    3.3647   -3.9501   -2.9263 H   0  0  0  0  0  0  0  0  0  0  0  0
    1.7482   -4.2254   -2.8251 H   0  0  0  0  0  0  0  0  0  0  0  0
   -1.3103    1.3348    1.2791 C   0  0  0  0  0  0  0  0  0  0  0  0
   -2.2333    1.9891    0.8084 O   0  0  0  0  0  0  0  0  0  0  0  0
   -0.4429    1.8293    2.1683 N   0  0  0  0  0  0  0  0  0  0  0  0
    0.2668    1.2118    2.5263 H   0  0  0  0  0  0  0  0  0  0  0  0
   -0.5118    3.1863    2.7135 C   0  0  0  0  0  0  0  0  0  0  0  0
   -1.4470    3.3159    3.2625 H   0  0  0  0  0  0  0  0  0  0  0  0
    0.3243    3.3682    3.3896 H   0  0  0  0  0  0  0  0  0  0  0  0
   -0.4850    3.9172    1.9023 H   0  0  0  0  0  0  0  0  0  0  0  0
  5  6  2  0  0  0  0
  5  7  1  0  0  0  0
  2  3  1  0  0  0  0
  2  4  1  0  0  0  0
  2  5  1  0  0  0  0
  1  2  1  0  0  0  0
 27 28  2  0  0  0  0
 27 29  1  0  0  0  0
 23 24  1  0  0  0  0
 23 25  1  0  0  0  0
 23 26  1  0  0  0  0
 20 21  1  0  0  0  0
 20 22  1  0  0  0  0
 20 23  1  0  0  0  0
 17 18  1  0  0  0  0
 17 19  1  0  0  0  0
 17 20  1  0  0  0  0
 14 15  1  0  0  0  0
 14 16  1  0  0  0  0
 14 17  1  0  0  0  0
 11 12  1  0  0  0  0
 11 13  1  0  0  0  0
 11 14  1  0  0  0  0
  9 10  1  0  0  0  0
  9 11  1  0  0  0  0
  9 27  1  0  0  0  0
  7  8  1  0  0  0  0
  7  9  1  0  0  0  0
 31 32  1  0  0  0  0
 31 33  1  0  0  0  0
 31 34  1  0  0  0  0
 29 30  1  0  0  0  0
 29 31  1  0  0  0  0
M  CHG  1  23   1
M  END
$$$$
default_name
  -OEChem-02102213163D

 34 33  0     1  0  0  0  0  0999 V2000
   -3.8899   -3.6747    1.6490 H   0  0  0  0  0  0  0  0  0  0  0  0
   -3.9109   -2.6717    1.2250 C   0  0  0  0  0  0  0  0  0  0  0  0
   -4.6009   -2.0517    1.7950 H   0  0  0  0  0  0  0  0  0  0  0  0
   -4.2309   -2.7237    0.1860 H   0  0  0  0  0  0  0  0  0  0  0  0
   -2.5229   -2.0787    1.2980 C   0  0  0  0  0  0  0  0  0  0  0  0
   -1.5999   -2.7227    1.7810 O   0  0  0  0  0  0  0  0  0  0  0  0
   -2.3659   -0.8447    0.8120 N   0  0  0  0  0  0  0  0  0  0  0  0
   -3.1749   -0.3807    0.4220 H   0  0  0  0  0  0  0  0  0  0  0  0
   -1.0919   -0.1077    0.8170 C   0  0  1  0  0  0  0  0  0  0  0  0
   -0.4136   -0.6011    1.5155 H   0  0  0  0  0  0  0  0  0  0  0  0
   -0.4834   -0.1723   -0.5965 C   0  0  0  0  0  0  0  0  0  0  0  0
   -1.1563   -0.7423   -1.2389 H   0  0  0  0  0  0  0  0  0  0  0  0
   -0.4040    0.8392   -0.9995 H   0  0  0  0  0  0  0  0  0  0  0  0
    0.8994   -0.8410   -0.6315 C   0  0  0  0  0  0  0  0  0  0  0  0
    1.6753   -0.0884   -0.4846 H   0  0  0  0  0  0  0  0  0  0  0  0
    0.9622   -1.5790    0.1705 H   0  0  0  0  0  0  0  0  0  0  0  0
    1.1225   -1.5372   -1.9812 C   0  0  0  0  0  0  0  0  0  0  0  0
    0.3354   -2.2798   -2.1322 H   0  0  0  0  0  0  0  0  0  0  0  0
    1.0679   -0.7935   -2.7788 H   0  0  0  0  0  0  0  0  0  0  0  0
    2.4925   -2.2262   -2.0085 C   0  0  0  0  0  0  0  0  0  0  0  0
    3.2657   -1.4678   -1.8480 H   0  0  0  0  0  0  0  0  0  0  0  0
    2.5414   -2.9357   -1.1770 H   0  0  0  0  0  0  0  0  0  0  0  0
    2.7247   -2.9287   -3.2958 N   0  3  0  0  0  0  0  0  0  0  0  0
    2.6911   -2.2754   -4.0684 H   0  0  0  0  0  0  0  0  0  0  0  0
    3.6320   -3.3779   -3.2975 H   0  0  0  0  0  0  0  0  0  0  0  0
    2.0166   -3.6380   -3.4449 H   0  0  0  0  0  0  0  0  0  0  0  0
   -1.3103    1.3348    1.2791 C   0  0  0  0  0  0  0  0  0  0  0  0
   -2.2333    1.9891    0.8084 O   0  0  0  0  0  0  0  0  0  0  0  0
   -0.4429    1.8293    2.1683 N   0  0  0  0  0  0  0  0  0  0  0  0
    0.2668    1.2118    2.5263 H   0  0  0  0  0  0  0  0  0  0  0  0
   -0.5118    3.1863    2.7135 C   0  0  0  0  0  0  0  0  0  0  0  0
   -1.4470    3.3159    3.2625 H   0  0  0  0  0  0  0  0  0  0  0  0
    0.3243    3.3682    3.3896 H   0  0  0  0  0  0  0  0  0  0  0  0
   -0.4850    3.9172    1.9023 H   0  0  0  0  0  0  0  0  0  0  0  0
  5  6  2  0  0  0  0
  5  7  1  0  0  0  0
  2  3  1  0  0  0  0
  2  4  1  0  0  0  0
  2  5  1  0  0  0  0
  1  2  1  0  0  0  0
 27 28  2  0  0  0  0
 27 29  1  0  0  0  0
 23 24  1  0  0  0  0
 23 25  1  0  0  0  0
 23 26  1  0  0  0  0
 20 21  1  0  0  0  0
 20 22  1  0  0  0  0
 20 23  1  0  0  0  0
 17 18  1  0  0  0  0
 17 19  1  0  0  0  0
 17 20  1  0  0  0  0
 14 15  1  0  0  0  0
 14 16  1  0  0  0  0
 14 17  1  0  0  0  0
 11 12  1  0  0  0  0
 11 13  1  0  0  0  0
 11 14  1  0  0  0  0
  9 10  1  0  0  0  0
  9 11  1  0  0  0  0
  9 27  1  0  0  0  0
  7  8  1  0  0  0  0
  7  9  1  0  0  0  0
 31 32  1  0  0  0  0
 31 33  1  0  0  0  0
 31 34  1  0  0  0  0
 29 30  1  0  0  0  0
 29 31  1  0  0  0  0
M  CHG  1  23   1
M  END
$$$$
default_name
  -OEChem-02102213163D

 34 33  0     1  0  0  0  0  0999 V2000
   -3.8899   -3.6747    1.6490 H   0  0  0  0  0  0  0  0  0  0  0  0
   -3.9109   -2.6717    1.2250 C   0  0  0  0  0  0  0  0  0  0  0  0
   -4.6009   -2.0517    1.7950 H   0  0  0  0  0  0  0  0  0  0  0  0
   -4.2309   -2.7237    0.1860 H   0  0  0  0  0  0  0  0  0  0  0  0
   -2.5229   -2.0787    1.2980 C   0  0  0  0  0  0  0  0  0  0  0  0
   -1.5999   -2.7227    1.7810 O   0  0  0  0  0  0  0  0  0  0  0  0
   -2.3659   -0.8447    0.8120 N   0  0  0  0  0  0  0  0  0  0  0  0
   -3.1749   -0.3807    0.4220 H   0  0  0  0  0  0  0  0  0  0  0  0
   -1.0919   -0.1077    0.8170 C   0  0  1  0  0  0  0  0  0  0  0  0
   -0.4136   -0.6011    1.5155 H   0  0  0  0  0  0  0  0  0  0  0  0
   -0.4834   -0.1723   -0.5965 C   0  0  0  0  0  0  0  0  0  0  0  0
   -1.1563   -0.7423   -1.2389 H   0  0  0  0  0  0  0  0  0  0  0  0
   -0.4040    0.8392   -0.9995 H   0  0  0  0  0  0  0  0  0  0  0  0
    0.8994   -0.8410   -0.6315 C   0  0  0  0  0  0  0  0  0  0  0  0
    1.6480   -0.1583   -0.2272 H   0  0  0  0  0  0  0  0  0  0  0  0
    0.8764   -1.7464   -0.0220 H   0  0  0  0  0  0  0  0  0  0  0  0
    1.2792   -1.2083   -2.0727 C   0  0  0  0  0  0  0  0  0  0  0  0
    0.5198   -1.8801   -2.4798 H   0  0  0  0  0  0  0  0  0  0  0  0
    1.3099   -0.2986   -2.6757 H   0  0  0  0  0  0  0  0  0  0  0  0
    2.6486   -1.8983   -2.1064 C   0  0  0  0  0  0  0  0  0  0  0  0
    3.3929   -1.2131   -1.6880 H   0  0  0  0  0  0  0  0  0  0  0  0
    2.6082   -2.7826   -1.4633 H   0  0  0  0  0  0  0  0  0  0  0  0
    3.0304   -2.2864   -3.4878 N   0  3  0  0  0  0  0  0  0  0  0  0
    3.0797   -1.4708   -4.0854 H   0  0  0  0  0  0  0  0  0  0  0  0
    3.9354   -2.7403   -3.4927 H   0  0  0  0  0  0  0  0  0  0  0  0
    2.3490   -2.9278   -3.8765 H   0  0  0  0  0  0  0  0  0  0  0  0
   -1.3103    1.3348    1.2791 C   0  0  0  0  0  0  0  0  0  0  0  0
   -2.2333    1.9891    0.8084 O   0  0  0  0  0  0  0  0  0  0  0  0
   -0.4429    1.8293    2.1683 N   0  0  0  0  0  0  0  0  0  0  0  0
    0.2668    1.2118    2.5263 H   0  0  0  0  0  0  0  0  0  0  0  0
   -0.5118    3.1863    2.7135 C   0  0  0  0  0  0  0  0  0  0  0  0
   -1.4470    3.3159    3.2625 H   0  0  0  0  0  0  0  0  0  0  0  0
    0.3243    3.3682    3.3896 H   0  0  0  0  0  0  0  0  0  0  0  0
   -0.4850    3.9172    1.9023 H   0  0  0  0  0  0  0  0  0  0  0  0
  5  6  2  0  0  0  0
  5  7  1  0  0  0  0
  2  3  1  0  0  0  0
  2  4  1  0  0  0  0
  2  5  1  0  0  0  0
  1  2  1  0  0  0  0
 27 28  2  0  0  0  0
 27 29  1  0  0  0  0
 23 24  1  0  0  0  0
 23 25  1  0  0  0  0
 23 26  1  0  0  0  0
 20 21  1  0  0  0  0
 20 22  1  0  0  0  0
 20 23  1  0  0  0  0
 17 18  1  0  0  0  0
 17 19  1  0  0  0  0
 17 20  1  0  0  0  0
 14 15  1  0  0  0  0
 14 16  1  0  0  0  0
 14 17  1  0  0  0  0
 11 12  1  0  0  0  0
 11 13  1  0  0  0  0
 11 14  1  0  0  0  0
  9 10  1  0  0  0  0
  9 11  1  0  0  0  0
  9 27  1  0  0  0  0
  7  8  1  0  0  0  0
  7  9  1  0  0  0  0
 31 32  1  0  0  0  0
 31 33  1  0  0  0  0
 31 34  1  0  0  0  0
 29 30  1  0  0  0  0
 29 31  1  0  0  0  0
M  CHG  1  23   1
M  END
$$$$
default_name
  -OEChem-02102213163D

 34 33  0     1  0  0  0  0  0999 V2000
   -3.8899   -3.6747    1.6490 H   0  0  0  0  0  0  0  0  0  0  0  0
   -3.9109   -2.6717    1.2250 C   0  0  0  0  0  0  0  0  0  0  0  0
   -4.6009   -2.0517    1.7950 H   0  0  0  0  0  0  0  0  0  0  0  0
   -4.2309   -2.7237    0.1860 H   0  0  0  0  0  0  0  0  0  0  0  0
   -2.5229   -2.0787    1.2980 C   0  0  0  0  0  0  0  0  0  0  0  0
   -1.5999   -2.7227    1.7810 O   0  0  0  0  0  0  0  0  0  0  0  0
   -2.3659   -0.8447    0.8120 N   0  0  0  0  0  0  0  0  0  0  0  0
   -3.1749   -0.3807    0.4220 H   0  0  0  0  0  0  0  0  0  0  0  0
   -1.0919   -0.1077    0.8170 C   0  0  1  0  0  0  0  0  0  0  0  0
   -0.4136   -0.6011    1.5155 H   0  0  0  0  0  0  0  0  0  0  0  0
   -0.4834   -0.1723   -0.5965 C   0  0  0  0  0  0  0  0  0  0  0  0
   -1.2571   -0.4979   -1.2935 H   0  0  0  0  0  0  0  0  0  0  0  0
   -0.1572    0.8266   -0.8927 H   0  0  0  0  0  0  0  0  0  0  0  0
    0.7020   -1.1439   -0.7027 C   0  0  0  0  0  0  0  0  0  0  0  0
    1.4918   -0.8363   -0.0160 H   0  0  0  0  0  0  0  0  0  0  0  0
    0.3685   -2.1485   -0.4354 H   0  0  0  0  0  0  0  0  0  0  0  0
    1.2562   -1.1566   -2.1340 C   0  0  0  0  0  0  0  0  0  0  0  0
    0.4589   -1.4505   -2.8209 H   0  0  0  0  0  0  0  0  0  0  0  0
    1.5968   -0.1521   -2.3930 H   0  0  0  0  0  0  0  0  0  0  0  0
    2.4239   -2.1447   -2.2476 C   0  0  0  0  0  0  0  0  0  0  0  0
    3.2075   -1.8378   -1.5472 H   0  0  0  0  0  0  0  0  0  0  0  0
    2.0720   -3.1351   -1.9436 H   0  0  0  0  0  0  0  0  0  0  0  0
    2.9642   -2.1947   -3.6296 N   0  3  0  0  0  0  0  0  0  0  0  0
    3.3012   -1.2830   -3.9127 H   0  0  0  0  0  0  0  0  0  0  0  0
    3.7331   -2.8508   -3.6877 H   0  0  0  0  0  0  0  0  0  0  0  0
    2.2449   -2.4869   -4.2807 H   0  0  0  0  0  0  0  0  0  0  0  0
   -1.3103    1.3348    1.2791 C   0  0  0  0  0  0  0  0  0  0  0  0
   -2.2333    1.9891    0.8084 O   0  0  0  0  0  0  0  0  0  0  0  0
   -0.4429    1.8293    2.1683 N   0  0  0  0  0  0  0  0  0  0  0  0
    0.2668    1.2118    2.5263 H   0  0  0  0  0  0  0  0  0  0  0  0
   -0.5118    3.1863    2.7135 C   0  0  0  0  0  0  0  0  0  0  0  0
   -1.4470    3.3159    3.2625 H   0  0  0  0  0  0  0  0  0  0  0  0
    0.3243    3.3682    3.3896 H   0  0  0  0  0  0  0  0  0  0  0  0
   -0.4850    3.9172    1.9023 H   0  0  0  0  0  0  0  0  0  0  0  0
  5  6  2  0  0  0  0
  5  7  1  0  0  0  0
  2  3  1  0  0  0  0
  2  4  1  0  0  0  0
  2  5  1  0  0  0  0
  1  2  1  0  0  0  0
 27 28  2  0  0  0  0
 27 29  1  0  0  0  0
 23 24  1  0  0  0  0
 23 25  1  0  0  0  0
 23 26  1  0  0  0  0
 20 21  1  0  0  0  0
 20 22  1  0  0  0  0
 20 23  1  0  0  0  0
 17 18  1  0  0  0  0
 17 19  1  0  0  0  0
 17 20  1  0  0  0  0
 14 15  1  0  0  0  0
 14 16  1  0  0  0  0
 14 17  1  0  0  0  0
 11 12  1  0  0  0  0
 11 13  1  0  0  0  0
 11 14  1  0  0  0  0
  9 10  1  0  0  0  0
  9 11  1  0  0  0  0
  9 27  1  0  0  0  0
  7  8  1  0  0  0  0
  7  9  1  0  0  0  0
 31 32  1  0  0  0  0
 31 33  1  0  0  0  0
 31 34  1  0  0  0  0
 29 30  1  0  0  0  0
 29 31  1  0  0  0  0
M  CHG  1  23   1
M  END
$$$$
default_name
  -OEChem-02102213163D

 34 33  0     1  0  0  0  0  0999 V2000
   -3.8899   -3.6747    1.6490 H   0  0  0  0  0  0  0  0  0  0  0  0
   -3.9109   -2.6717    1.2250 C   0  0  0  0  0  0  0  0  0  0  0  0
   -4.6009   -2.0517    1.7950 H   0  0  0  0  0  0  0  0  0  0  0  0
   -4.2309   -2.7237    0.1860 H   0  0  0  0  0  0  0  0  0  0  0  0
   -2.5229   -2.0787    1.2980 C   0  0  0  0  0  0  0  0  0  0  0  0
   -1.5999   -2.7227    1.7810 O   0  0  0  0  0  0  0  0  0  0  0  0
   -2.3659   -0.8447    0.8120 N   0  0  0  0  0  0  0  0  0  0  0  0
   -3.1749   -0.3807    0.4220 H   0  0  0  0  0  0  0  0  0  0  0  0
   -1.0919   -0.1077    0.8170 C   0  0  1  0  0  0  0  0  0  0  0  0
   -0.4136   -0.6011    1.5155 H   0  0  0  0  0  0  0  0  0  0  0  0
   -0.4834   -0.1723   -0.5965 C   0  0  0  0  0  0  0  0  0  0  0  0
   -1.2571   -0.4979   -1.2935 H   0  0  0  0  0  0  0  0  0  0  0  0
   -0.1572    0.8266   -0.8927 H   0  0  0  0  0  0  0  0  0  0  0  0
    0.7020   -1.1439   -0.7027 C   0  0  0  0  0  0  0  0  0  0  0  0
    1.3677   -1.0060    0.1505 H   0  0  0  0  0  0  0  0  0  0  0  0
    0.3276   -2.1694   -0.7005 H   0  0  0  0  0  0  0  0  0  0  0  0
    1.4854   -0.8918   -1.9984 C   0  0  0  0  0  0  0  0  0  0  0  0
    0.8125   -1.0160   -2.8501 H   0  0  0  0  0  0  0  0  0  0  0  0
    1.8654    0.1317   -1.9913 H   0  0  0  0  0  0  0  0  0  0  0  0
    2.6545   -1.8774   -2.1178 C   0  0  0  0  0  0  0  0  0  0  0  0
    3.3119   -1.7427   -1.2526 H   0  0  0  0  0  0  0  0  0  0  0  0
    2.2559   -2.8957   -2.0804 H   0  0  0  0  0  0  0  0  0  0  0  0
    3.4161   -1.6711   -3.3756 N   0  3  0  0  0  0  0  0  0  0  0  0
    3.7964   -0.7336   -3.4112 H   0  0  0  0  0  0  0  0  0  0  0  0
    4.1831   -2.3289   -3.4392 H   0  0  0  0  0  0  0  0  0  0  0  0
    2.8140   -1.8035   -4.1798 H   0  0  0  0  0  0  0  0  0  0  0  0
   -1.3103    1.3348    1.2791 C   0  0  0  0  0  0  0  0  0  0  0  0
   -2.2333    1.9891    0.8084 O   0  0  0  0  0  0  0  0  0  0  0  0
   -0.4429    1.8293    2.1683 N   0  0  0  0  0  0  0  0  0  0  0  0
    0.2668    1.2118    2.5263 H   0  0  0  0  0  0  0  0  0  0  0  0
   -0.5118    3.1863    2.7135 C   0  0  0  0  0  0  0  0  0  0  0  0
   -1.4470    3.3159    3.2625 H   0  0  0  0  0  0  0  0  0  0  0  0
    0.3243    3.3682    3.3896 H   0  0  0  0  0  0  0  0  0  0  0  0
   -0.4850    3.9172    1.9023 H   0  0  0  0  0  0  0  0  0  0  0  0
  5  6  2  0  0  0  0
  5  7  1  0  0  0  0
  2  3  1  0  0  0  0
  2  4  1  0  0  0  0
  2  5  1  0  0  0  0
  1  2  1  0  0  0  0
 27 28  2  0  0  0  0
 27 29  1  0  0  0  0
 23 24  1  0  0  0  0
 23 25  1  0  0  0  0
 23 26  1  0  0  0  0
 20 21  1  0  0  0  0
 20 22  1  0  0  0  0
 20 23  1  0  0  0  0
 17 18  1  0  0  0  0
 17 19  1  0  0  0  0
 17 20  1  0  0  0  0
 14 15  1  0  0  0  0
 14 16  1  0  0  0  0
 14 17  1  0  0  0  0
 11 12  1  0  0  0  0
 11 13  1  0  0  0  0
 11 14  1  0  0  0  0
  9 10  1  0  0  0  0
  9 11  1  0  0  0  0
  9 27  1  0  0  0  0
  7  8  1  0  0  0  0
  7  9  1  0  0  0  0
 31 32  1  0  0  0  0
 31 33  1  0  0  0  0
 31 34  1  0  0  0  0
 29 30  1  0  0  0  0
 29 31  1  0  0  0  0
M  CHG  1  23   1
M  END
$$$$
default_name
  -OEChem-02102213163D

 34 33  0     1  0  0  0  0  0999 V2000
   -3.8899   -3.6747    1.6490 H   0  0  0  0  0  0  0  0  0  0  0  0
   -3.9109   -2.6717    1.2250 C   0  0  0  0  0  0  0  0  0  0  0  0
   -4.6009   -2.0517    1.7950 H   0  0  0  0  0  0  0  0  0  0  0  0
   -4.2309   -2.7237    0.1860 H   0  0  0  0  0  0  0  0  0  0  0  0
   -2.5229   -2.0787    1.2980 C   0  0  0  0  0  0  0  0  0  0  0  0
   -1.5999   -2.7227    1.7810 O   0  0  0  0  0  0  0  0  0  0  0  0
   -2.3659   -0.8447    0.8120 N   0  0  0  0  0  0  0  0  0  0  0  0
   -3.1749   -0.3807    0.4220 H   0  0  0  0  0  0  0  0  0  0  0  0
   -1.0919   -0.1077    0.8170 C   0  0  1  0  0  0  0  0  0  0  0  0
   -0.4136   -0.6011    1.5155 H   0  0  0  0  0  0  0  0  0  0  0  0
   -0.4834   -0.1723   -0.5965 C   0  0  0  0  0  0  0  0  0  0  0  0
   -1.2571   -0.4979   -1.2935 H   0  0  0  0  0  0  0  0  0  0  0  0
   -0.1572    0.8266   -0.8927 H   0  0  0  0  0  0  0  0  0  0  0  0
    0.7020   -1.1439   -0.7027 C   0  0  0  0  0  0  0  0  0  0  0  0
    1.2175   -1.2009    0.2570 H   0  0  0  0  0  0  0  0  0  0  0  0
    0.3311   -2.1359   -0.9675 H   0  0  0  0  0  0  0  0  0  0  0  0
    1.6894   -0.6672   -1.7769 C   0  0  0  0  0  0  0  0  0  0  0  0
    1.1665   -0.5968   -2.7337 H   0  0  0  0  0  0  0  0  0  0  0  0
    2.0643    0.3209   -1.5027 H   0  0  0  0  0  0  0  0  0  0  0  0
    2.8609   -1.6493   -1.9014 C   0  0  0  0  0  0  0  0  0  0  0  0
    3.3661   -1.7115   -0.9320 H   0  0  0  0  0  0  0  0  0  0  0  0
    2.4603   -2.6405   -2.1347 H   0  0  0  0  0  0  0  0  0  0  0  0
    3.8204   -1.2242   -2.9517 N   0  3  0  0  0  0  0  0  0  0  0  0
    4.2025   -0.3120   -2.7359 H   0  0  0  0  0  0  0  0  0  0  0  0
    4.5865   -1.8824   -3.0214 H   0  0  0  0  0  0  0  0  0  0  0  0
    3.3595   -1.1737   -3.8528 H   0  0  0  0  0  0  0  0  0  0  0  0
   -1.3103    1.3348    1.2791 C   0  0  0  0  0  0  0  0  0  0  0  0
   -2.2333    1.9891    0.8084 O   0  0  0  0  0  0  0  0  0  0  0  0
   -0.4429    1.8293    2.1683 N   0  0  0  0  0  0  0  0  0  0  0  0
    0.2668    1.2118    2.5263 H   0  0  0  0  0  0  0  0  0  0  0  0
   -0.5118    3.1863    2.7135 C   0  0  0  0  0  0  0  0  0  0  0  0
   -1.4470    3.3159    3.2625 H   0  0  0  0  0  0  0  0  0  0  0  0
    0.3243    3.3682    3.3896 H   0  0  0  0  0  0  0  0  0  0  0  0
   -0.4850    3.9172    1.9023 H   0  0  0  0  0  0  0  0  0  0  0  0
  5  6  2  0  0  0  0
  5  7  1  0  0  0  0
  2  3  1  0  0  0  0
  2  4  1  0  0  0  0
  2  5  1  0  0  0  0
  1  2  1  0  0  0  0
 27 28  2  0  0  0  0
 27 29  1  0  0  0  0
 23 24  1  0  0  0  0
 23 25  1  0  0  0  0
 23 26  1  0  0  0  0
 20 21  1  0  0  0  0
 20 22  1  0  0  0  0
 20 23  1  0  0  0  0
 17 18  1  0  0  0  0
 17 19  1  0  0  0  0
 17 20  1  0  0  0  0
 14 15  1  0  0  0  0
 14 16  1  0  0  0  0
 14 17  1  0  0  0  0
 11 12  1  0  0  0  0
 11 13  1  0  0  0  0
 11 14  1  0  0  0  0
  9 10  1  0  0  0  0
  9 11  1  0  0  0  0
  9 27  1  0  0  0  0
  7  8  1  0  0  0  0
  7  9  1  0  0  0  0
 31 32  1  0  0  0  0
 31 33  1  0  0  0  0
 31 34  1  0  0  0  0
 29 30  1  0  0  0  0
 29 31  1  0  0  0  0
M  CHG  1  23   1
M  END
$$$$
default_name
  -OEChem-02102213163D

 34 33  0     1  0  0  0  0  0999 V2000
   -3.8899   -3.6747    1.6490 H   0  0  0  0  0  0  0  0  0  0  0  0
   -3.9109   -2.6717    1.2250 C   0  0  0  0  0  0  0  0  0  0  0  0
   -4.6009   -2.0517    1.7950 H   0  0  0  0  0  0  0  0  0  0  0  0
   -4.2309   -2.7237    0.1860 H   0  0  0  0  0  0  0  0  0  0  0  0
   -2.5229   -2.0787    1.2980 C   0  0  0  0  0  0  0  0  0  0  0  0
   -1.5999   -2.7227    1.7810 O   0  0  0  0  0  0  0  0  0  0  0  0
   -2.3659   -0.8447    0.8120 N   0  0  0  0  0  0  0  0  0  0  0  0
   -3.1749   -0.3807    0.4220 H   0  0  0  0  0  0  0  0  0  0  0  0
   -1.0919   -0.1077    0.8170 C   0  0  1  0  0  0  0  0  0  0  0  0
   -0.4136   -0.6011    1.5155 H   0  0  0  0  0  0  0  0  0  0  0  0
   -0.4834   -0.1723   -0.5965 C   0  0  0  0  0  0  0  0  0  0  0  0
   -1.2571   -0.4979   -1.2935 H   0  0  0  0  0  0  0  0  0  0  0  0
   -0.1572    0.8266   -0.8927 H   0  0  0  0  0  0  0  0  0  0  0  0
    0.7020   -1.1439   -0.7027 C   0  0  0  0  0  0  0  0  0  0  0  0
    1.0515   -1.4077    0.2964 H   0  0  0  0  0  0  0  0  0  0  0  0
    0.3788   -2.0503   -1.2182 H   0  0  0  0  0  0  0  0  0  0  0  0
    1.8541   -0.4981   -1.4848 C   0  0  0  0  0  0  0  0  0  0  0  0
    1.4969   -0.2214   -2.4796 H   0  0  0  0  0  0  0  0  0  0  0  0
    2.1797    0.4025   -0.9603 H   0  0  0  0  0  0  0  0  0  0  0  0
    3.0289   -1.4759   -1.6130 C   0  0  0  0  0  0  0  0  0  0  0  0
    3.3666   -1.7464   -0.6073 H   0  0  0  0  0  0  0  0  0  0  0  0
    2.6712   -2.3867   -2.1026 H   0  0  0  0  0  0  0  0  0  0  0  0
    4.1494   -0.8844   -2.3869 N   0  3  0  0  0  0  0  0  0  0  0  0
    4.4918   -0.0468   -1.9330 H   0  0  0  0  0  0  0  0  0  0  0  0
    4.9157   -1.5417   -2.4626 H   0  0  0  0  0  0  0  0  0  0  0  0
    3.8441   -0.6404   -3.3218 H   0  0  0  0  0  0  0  0  0  0  0  0
   -1.3103    1.3348    1.2791 C   0  0  0  0  0  0  0  0  0  0  0  0
   -2.2333    1.9891    0.8084 O   0  0  0  0  0  0  0  0  0  0  0  0
   -0.4429    1.8293    2.1683 N   0  0  0  0  0  0  0  0  0  0  0  0
    0.2668    1.2118    2.5263 H   0  0  0  0  0  0  0  0  0  0  0  0
   -0.5118    3.1863    2.7135 C   0  0  0  0  0  0  0  0  0  0  0  0
   -1.4470    3.3159    3.2625 H   0  0  0  0  0  0  0  0  0  0  0  0
    0.3243    3.3682    3.3896 H   0  0  0  0  0  0  0  0  0  0  0  0
   -0.4850    3.9172    1.9023 H   0  0  0  0  0  0  0  0  0  0  0  0
  5  6  2  0  0  0  0
  5  7  1  0  0  0  0
  2  3  1  0  0  0  0
  2  4  1  0  0  0  0
  2  5  1  0  0  0  0
  1  2  1  0  0  0  0
 27 28  2  0  0  0  0
 27 29  1  0  0  0  0
 23 24  1  0  0  0  0
 23 25  1  0  0  0  0
 23 26  1  0  0  0  0
 20 21  1  0  0  0  0
 20 22  1  0  0  0  0
 20 23  1  0  0  0  0
 17 18  1  0  0  0  0
 17 19  1  0  0  0  0
 17 20  1  0  0  0  0
 14 15  1  0  0  0  0
 14 16  1  0  0  0  0
 14 17  1  0  0  0  0
 11 12  1  0  0  0  0
 11 13  1  0  0  0  0
 11 14  1  0  0  0  0
  9 10  1  0  0  0  0
  9 11  1  0  0  0  0
  9 27  1  0  0  0  0
  7  8  1  0  0  0  0
  7  9  1  0  0  0  0
 31 32  1  0  0  0  0
 31 33  1  0  0  0  0
 31 34  1  0  0  0  0
 29 30  1  0  0  0  0
 29 31  1  0  0  0  0
M  CHG  1  23   1
M  END
$$$$
default_name
  -OEChem-02102213163D

 34 33  0     1  0  0  0  0  0999 V2000
   -3.8899   -3.6747    1.6490 H   0  0  0  0  0  0  0  0  0  0  0  0
   -3.9109   -2.6717    1.2250 C   0  0  0  0  0  0  0  0  0  0  0  0
   -4.6009   -2.0517    1.7950 H   0  0  0  0  0  0  0  0  0  0  0  0
   -4.2309   -2.7237    0.1860 H   0  0  0  0  0  0  0  0  0  0  0  0
   -2.5229   -2.0787    1.2980 C   0  0  0  0  0  0  0  0  0  0  0  0
   -1.5999   -2.7227    1.7810 O   0  0  0  0  0  0  0  0  0  0  0  0
   -2.3659   -0.8447    0.8120 N   0  0  0  0  0  0  0  0  0  0  0  0
   -3.1749   -0.3807    0.4220 H   0  0  0  0  0  0  0  0  0  0  0  0
   -1.0919   -0.1077    0.8170 C   0  0  1  0  0  0  0  0  0  0  0  0
   -0.4136   -0.6011    1.5155 H   0  0  0  0  0  0  0  0  0  0  0  0
   -0.4834   -0.1723   -0.5965 C   0  0  0  0  0  0  0  0  0  0  0  0
   -1.2571   -0.4979   -1.2935 H   0  0  0  0  0  0  0  0  0  0  0  0
   -0.1572    0.8266   -0.8927 H   0  0  0  0  0  0  0  0  0  0  0  0
    0.7020   -1.1439   -0.7027 C   0  0  0  0  0  0  0  0  0  0  0  0
    0.8810   -1.6124    0.2660 H   0  0  0  0  0  0  0  0  0  0  0  0
    0.4674   -1.9185   -1.4354 H   0  0  0  0  0  0  0  0  0  0  0  0
    1.9685   -0.3960   -1.1418 C   0  0  0  0  0  0  0  0  0  0  0  0
    1.7812    0.0845   -2.1051 H   0  0  0  0  0  0  0  0  0  0  0  0
    2.2039    0.3710   -0.4013 H   0  0  0  0  0  0  0  0  0  0  0  0
    3.1470   -1.3690   -1.2723 C   0  0  0  0  0  0  0  0  0  0  0  0
    3.3133   -1.8449   -0.3004 H   0  0  0  0  0  0  0  0  0  0  0  0
    2.8741   -2.1518   -1.9864 H   0  0  0  0  0  0  0  0  0  0  0  0
    4.3810   -0.6749   -1.7196 N   0  3  0  0  0  0  0  0  0  0  0  0
    4.6445    0.0438   -1.0572 H   0  0  0  0  0  0  0  0  0  0  0  0
    5.1484   -1.3302   -1.8010 H   0  0  0  0  0  0  0  0  0  0  0  0
    4.2349   -0.2400   -2.6231 H   0  0  0  0  0  0  0  0  0  0  0  0
   -1.3103    1.3348    1.2791 C   0  0  0  0  0  0  0  0  0  0  0  0
   -2.2333    1.9891    0.8084 O   0  0  0  0  0  0  0  0  0  0  0  0
   -0.4429    1.8293    2.1683 N   0  0  0  0  0  0  0  0  0  0  0  0
    0.2668    1.2118    2.5263 H   0  0  0  0  0  0  0  0  0  0  0  0
   -0.5118    3.1863    2.7135 C   0  0  0  0  0  0  0  0  0  0  0  0
   -1.4470    3.3159    3.2625 H   0  0  0  0  0  0  0  0  0  0  0  0
    0.3243    3.3682    3.3896 H   0  0  0  0  0  0  0  0  0  0  0  0
   -0.4850    3.9172    1.9023 H   0  0  0  0  0  0  0  0  0  0  0  0
  5  6  2  0  0  0  0
  5  7  1  0  0  0  0
  2  3  1  0  0  0  0
  2  4  1  0  0  0  0
  2  5  1  0  0  0  0
  1  2  1  0  0  0  0
 27 28  2  0  0  0  0
 27 29  1  0  0  0  0
 23 24  1  0  0  0  0
 23 25  1  0  0  0  0
 23 26  1  0  0  0  0
 20 21  1  0  0  0  0
 20 22  1  0  0  0  0
 20 23  1  0  0  0  0
 17 18  1  0  0  0  0
 17 19  1  0  0  0  0
 17 20  1  0  0  0  0
 14 15  1  0  0  0  0
 14 16  1  0  0  0  0
 14 17  1  0  0  0  0
 11 12  1  0  0  0  0
 11 13  1  0  0  0  0
 11 14  1  0  0  0  0
  9 10  1  0  0  0  0
  9 11  1  0  0  0  0
  9 27  1  0  0  0  0
  7  8  1  0  0  0  0
  7  9  1  0  0  0  0
 31 32  1  0  0  0  0
 31 33  1  0  0  0  0
 31 34  1  0  0  0  0
 29 30  1  0  0  0  0
 29 31  1  0  0  0  0
M  CHG  1  23   1
M  END
$$$$
default_name
  -OEChem-02102213163D

 34 33  0     1  0  0  0  0  0999 V2000
   -3.8899   -3.6747    1.6490 H   0  0  0  0  0  0  0  0  0  0  0  0
   -3.9109   -2.6717    1.2250 C   0  0  0  0  0  0  0  0  0  0  0  0
   -4.6009   -2.0517    1.7950 H   0  0  0  0  0  0  0  0  0  0  0  0
   -4.2309   -2.7237    0.1860 H   0  0  0  0  0  0  0  0  0  0  0  0
   -2.5229   -2.0787    1.2980 C   0  0  0  0  0  0  0  0  0  0  0  0
   -1.5999   -2.7227    1.7810 O   0  0  0  0  0  0  0  0  0  0  0  0
   -2.3659   -0.8447    0.8120 N   0  0  0  0  0  0  0  0  0  0  0  0
   -3.1749   -0.3807    0.4220 H   0  0  0  0  0  0  0  0  0  0  0  0
   -1.0919   -0.1077    0.8170 C   0  0  1  0  0  0  0  0  0  0  0  0
   -0.4136   -0.6011    1.5155 H   0  0  0  0  0  0  0  0  0  0  0  0
   -0.4834   -0.1723   -0.5965 C   0  0  0  0  0  0  0  0  0  0  0  0
   -1.2571   -0.4979   -1.2935 H   0  0  0  0  0  0  0  0  0  0  0  0
   -0.1572    0.8266   -0.8927 H   0  0  0  0  0  0  0  0  0  0  0  0
    0.7020   -1.1439   -0.7027 C   0  0  0  0  0  0  0  0  0  0  0  0
    0.7176   -1.8010    0.1679 H   0  0  0  0  0  0  0  0  0  0  0  0
    0.5909   -1.7493   -1.6043 H   0  0  0  0  0  0  0  0  0  0  0  0
    2.0247   -0.3680   -0.7715 C   0  0  0  0  0  0  0  0  0  0  0  0
    1.9999    0.3001   -1.6358 H   0  0  0  0  0  0  0  0  0  0  0  0
    2.1353    0.2284    0.1363 H   0  0  0  0  0  0  0  0  0  0  0  0
    3.2073   -1.3359   -0.9025 C   0  0  0  0  0  0  0  0  0  0  0  0
    3.2099   -2.0004   -0.0324 H   0  0  0  0  0  0  0  0  0  0  0  0
    3.0553   -1.9517   -1.7941 H   0  0  0  0  0  0  0  0  0  0  0  0
    4.4991   -0.6099   -0.9953 N   0  3  0  0  0  0  0  0  0  0  0  0
    4.6503   -0.0462   -0.1681 H   0  0  0  0  0  0  0  0  0  0  0  0
    5.2686   -1.2622   -1.0815 H   0  0  0  0  0  0  0  0  0  0  0  0
    4.5051    0.0002   -1.8044 H   0  0  0  0  0  0  0  0  0  0  0  0
   -1.3103    1.3348    1.2791 C   0  0  0  0  0  0  0  0  0  0  0  0
   -2.2333    1.9891    0.8084 O   0  0  0  0  0  0  0  0  0  0  0  0
   -0.4429    1.8293    2.1683 N   0  0  0  0  0  0  0  0  0  0  0  0
    0.2668    1.2118    2.5263 H   0  0  0  0  0  0  0  0  0  0  0  0
   -0.5118    3.1863    2.7135 C   0  0  0  0  0  0  0  0  0  0  0  0
   -1.4470    3.3159    3.2625 H   0  0  0  0  0  0  0  0  0  0  0  0
    0.3243    3.3682    3.3896 H   0  0  0  0  0  0  0  0  0  0  0  0
   -0.4850    3.9172    1.9023 H   0  0  0  0  0  0  0  0  0  0  0  0
  5  6  2  0  0  0  0
  5  7  1  0  0  0  0
  2  3  1  0  0  0  0
  2  4  1  0  0  0  0
  2  5  1  0  0  0  0
  1  2  1  0  0  0  0
 27 28  2  0  0  0  0
 27 29  1  0  0  0  0
 23 24  1  0  0  0  0
 23 25  1  0  0  0  0
 23 26  1  0  0  0  0
 20 21  1  0  0  0  0
 20 22  1  0  0  0  0
 20 23  1  0  0  0  0
 17 18  1  0  0  0  0
 17 19  1  0  0  0  0
 17 20  1  0  0  0  0
 14 15  1  0  0  0  0
 14 16  1  0  0  0  0
 14 17  1  0  0  0  0
 11 12  1  0  0  0  0
 11 13  1  0  0  0  0
 11 14  1  0  0  0  0
  9 10  1  0  0  0  0
  9 11  1  0  0  0  0
  9 27  1  0  0  0  0
  7  8  1  0  0  0  0
  7  9  1  0  0  0  0
 31 32  1  0  0  0  0
 31 33  1  0  0  0  0
 31 34  1  0  0  0  0
 29 30  1  0  0  0  0
 29 31  1  0  0  0  0
M  CHG  1  23   1
M  END
$$$$
default_name
  -OEChem-02102213163D

 34 33  0     1  0  0  0  0  0999 V2000
   -3.8899   -3.6747    1.6490 H   0  0  0  0  0  0  0  0  0  0  0  0
   -3.9109   -2.6717    1.2250 C   0  0  0  0  0  0  0  0  0  0  0  0
   -4.6009   -2.0517    1.7950 H   0  0  0  0  0  0  0  0  0  0  0  0
   -4.2309   -2.7237    0.1860 H   0  0  0  0  0  0  0  0  0  0  0  0
   -2.5229   -2.0787    1.2980 C   0  0  0  0  0  0  0  0  0  0  0  0
   -1.5999   -2.7227    1.7810 O   0  0  0  0  0  0  0  0  0  0  0  0
   -2.3659   -0.8447    0.8120 N   0  0  0  0  0  0  0  0  0  0  0  0
   -3.1749   -0.3807    0.4220 H   0  0  0  0  0  0  0  0  0  0  0  0
   -1.0919   -0.1077    0.8170 C   0  0  1  0  0  0  0  0  0  0  0  0
   -0.4136   -0.6011    1.5155 H   0  0  0  0  0  0  0  0  0  0  0  0
   -0.4834   -0.1723   -0.5965 C   0  0  0  0  0  0  0  0  0  0  0  0
   -1.2571   -0.4979   -1.2935 H   0  0  0  0  0  0  0  0  0  0  0  0
   -0.1572    0.8266   -0.8927 H   0  0  0  0  0  0  0  0  0  0  0  0
    0.7020   -1.1439   -0.7027 C   0  0  0  0  0  0  0  0  0  0  0  0
    0.5725   -1.9607    0.0087 H   0  0  0  0  0  0  0  0  0  0  0  0
    0.7409   -1.5544   -1.7136 H   0  0  0  0  0  0  0  0  0  0  0  0
    2.0188   -0.4159   -0.3990 C   0  0  0  0  0  0  0  0  0  0  0  0
    2.1383    0.4107   -1.1035 H   0  0  0  0  0  0  0  0  0  0  0  0
    1.9784   -0.0154    0.6159 H   0  0  0  0  0  0  0  0  0  0  0  0
    3.2056   -1.3788   -0.5289 C   0  0  0  0  0  0  0  0  0  0  0  0
    3.0633   -2.2023    0.1784 H   0  0  0  0  0  0  0  0  0  0  0  0
    3.2025   -1.8001   -1.5387 H   0  0  0  0  0  0  0  0  0  0  0  0
    4.4959   -0.6939   -0.2634 N   0  3  0  0  0  0  0  0  0  0  0  0
    4.5088   -0.3109    0.6736 H   0  0  0  0  0  0  0  0  0  0  0  0
    5.2682   -1.3423   -0.3534 H   0  0  0  0  0  0  0  0  0  0  0  0
    4.6365    0.0639   -0.9213 H   0  0  0  0  0  0  0  0  0  0  0  0
   -1.3103    1.3348    1.2791 C   0  0  0  0  0  0  0  0  0  0  0  0
   -2.2333    1.9891    0.8084 O   0  0  0  0  0  0  0  0  0  0  0  0
   -0.4429    1.8293    2.1683 N   0  0  0  0  0  0  0  0  0  0  0  0
    0.2668    1.2118    2.5263 H   0  0  0  0  0  0  0  0  0  0  0  0
   -0.5118    3.1863    2.7135 C   0  0  0  0  0  0  0  0  0  0  0  0
   -1.4470    3.3159    3.2625 H   0  0  0  0  0  0  0  0  0  0  0  0
    0.3243    3.3682    3.3896 H   0  0  0  0  0  0  0  0  0  0  0  0
   -0.4850    3.9172    1.9023 H   0  0  0  0  0  0  0  0  0  0  0  0
  5  6  2  0  0  0  0
  5  7  1  0  0  0  0
  2  3  1  0  0  0  0
  2  4  1  0  0  0  0
  2  5  1  0  0  0  0
  1  2  1  0  0  0  0
 27 28  2  0  0  0  0
 27 29  1  0  0  0  0
 23 24  1  0  0  0  0
 23 25  1  0  0  0  0
 23 26  1  0  0  0  0
 20 21  1  0  0  0  0
 20 22  1  0  0  0  0
 20 23  1  0  0  0  0
 17 18  1  0  0  0  0
 17 19  1  0  0  0  0
 17 20  1  0  0  0  0
 14 15  1  0  0  0  0
 14 16  1  0  0  0  0
 14 17  1  0  0  0  0
 11 12  1  0  0  0  0
 11 13  1  0  0  0  0
 11 14  1  0  0  0  0
  9 10  1  0  0  0  0
  9 11  1  0  0  0  0
  9 27  1  0  0  0  0
  7  8  1  0  0  0  0
  7  9  1  0  0  0  0
 31 32  1  0  0  0  0
 31 33  1  0  0  0  0
 31 34  1  0  0  0  0
 29 30  1  0  0  0  0
 29 31  1  0  0  0  0
M  CHG  1  23   1
M  END
$$$$
default_name
  -OEChem-02102213163D

 34 33  0     1  0  0  0  0  0999 V2000
   -3.8899   -3.6747    1.6490 H   0  0  0  0  0  0  0  0  0  0  0  0
   -3.9109   -2.6717    1.2250 C   0  0  0  0  0  0  0  0  0  0  0  0
   -4.6009   -2.0517    1.7950 H   0  0  0  0  0  0  0  0  0  0  0  0
   -4.2309   -2.7237    0.1860 H   0  0  0  0  0  0  0  0  0  0  0  0
   -2.5229   -2.0787    1.2980 C   0  0  0  0  0  0  0  0  0  0  0  0
   -1.5999   -2.7227    1.7810 O   0  0  0  0  0  0  0  0  0  0  0  0
   -2.3659   -0.8447    0.8120 N   0  0  0  0  0  0  0  0  0  0  0  0
   -3.1749   -0.3807    0.4220 H   0  0  0  0  0  0  0  0  0  0  0  0
   -1.0919   -0.1077    0.8170 C   0  0  1  0  0  0  0  0  0  0  0  0
   -0.4136   -0.6011    1.5155 H   0  0  0  0  0  0  0  0  0  0  0  0
   -0.4834   -0.1723   -0.5965 C   0  0  0  0  0  0  0  0  0  0  0  0
   -1.2571   -0.4979   -1.2935 H   0  0  0  0  0  0  0  0  0  0  0  0
   -0.1572    0.8266   -0.8927 H   0  0  0  0  0  0  0  0  0  0  0  0
    0.7020   -1.1439   -0.7027 C   0  0  0  0  0  0  0  0  0  0  0  0
    0.4555   -2.0805   -0.2007 H   0  0  0  0  0  0  0  0  0  0  0  0
    0.9071   -1.3470   -1.7556 H   0  0  0  0  0  0  0  0  0  0  0  0
    1.9513   -0.5364   -0.0497 C   0  0  0  0  0  0  0  0  0  0  0  0
    2.1868    0.4088   -0.5447 H   0  0  0  0  0  0  0  0  0  0  0  0
    1.7440   -0.3439    1.0048 H   0  0  0  0  0  0  0  0  0  0  0  0
    3.1420   -1.4948   -0.1768 C   0  0  0  0  0  0  0  0  0  0  0  0
    2.8836   -2.4368    0.3178 H   0  0  0  0  0  0  0  0  0  0  0  0
    3.3055   -1.7072   -1.2377 H   0  0  0  0  0  0  0  0  0  0  0  0
    4.3714   -0.9211    0.4263 N   0  3  0  0  0  0  0  0  0  0  0  0
    4.2296   -0.7321    1.4107 H   0  0  0  0  0  0  0  0  0  0  0  0
    5.1471   -1.5650    0.3339 H   0  0  0  0  0  0  0  0  0  0  0  0
    4.6199   -0.0532   -0.0340 H   0  0  0  0  0  0  0  0  0  0  0  0
   -1.3103    1.3348    1.2791 C   0  0  0  0  0  0  0  0  0  0  0  0
   -2.2333    1.9891    0.8084 O   0  0  0  0  0  0  0  0  0  0  0  0
   -0.4429    1.8293    2.1683 N   0  0  0  0  0  0  0  0  0  0  0  0
    0.2668    1.2118    2.5263 H   0  0  0  0  0  0  0  0  0  0  0  0
   -0.5118    3.1863    2.7135 C   0  0  0  0  0  0  0  0  0  0  0  0
   -1.4470    3.3159    3.2625 H   0  0  0  0  0  0  0  0  0  0  0  0
    0.3243    3.3682    3.3896 H   0  0  0  0  0  0  0  0  0  0  0  0
   -0.4850    3.9172    1.9023 H   0  0  0  0  0  0  0  0  0  0  0  0
  5  6  2  0  0  0  0
  5  7  1  0  0  0  0
  2  3  1  0  0  0  0
  2  4  1  0  0  0  0
  2  5  1  0  0  0  0
  1  2  1  0  0  0  0
 27 28  2  0  0  0  0
 27 29  1  0  0  0  0
 23 24  1  0  0  0  0
 23 25  1  0  0  0  0
 23 26  1  0  0  0  0
 20 21  1  0  0  0  0
 20 22  1  0  0  0  0
 20 23  1  0  0  0  0
 17 18  1  0  0  0  0
 17 19  1  0  0  0  0
 17 20  1  0  0  0  0
 14 15  1  0  0  0  0
 14 16  1  0  0  0  0
 14 17  1  0  0  0  0
 11 12  1  0  0  0  0
 11 13  1  0  0  0  0
 11 14  1  0  0  0  0
  9 10  1  0  0  0  0
  9 11  1  0  0  0  0
  9 27  1  0  0  0  0
  7  8  1  0  0  0  0
  7  9  1  0  0  0  0
 31 32  1  0  0  0  0
 31 33  1  0  0  0  0
 31 34  1  0  0  0  0
 29 30  1  0  0  0  0
 29 31  1  0  0  0  0
M  CHG  1  23   1
M  END
$$$$
default_name
  -OEChem-02102213163D

 34 33  0     1  0  0  0  0  0999 V2000
   -3.8899   -3.6747    1.6490 H   0  0  0  0  0  0  0  0  0  0  0  0
   -3.9109   -2.6717    1.2250 C   0  0  0  0  0  0  0  0  0  0  0  0
   -4.6009   -2.0517    1.7950 H   0  0  0  0  0  0  0  0  0  0  0  0
   -4.2309   -2.7237    0.1860 H   0  0  0  0  0  0  0  0  0  0  0  0
   -2.5229   -2.0787    1.2980 C   0  0  0  0  0  0  0  0  0  0  0  0
   -1.5999   -2.7227    1.7810 O   0  0  0  0  0  0  0  0  0  0  0  0
   -2.3659   -0.8447    0.8120 N   0  0  0  0  0  0  0  0  0  0  0  0
   -3.1749   -0.3807    0.4220 H   0  0  0  0  0  0  0  0  0  0  0  0
   -1.0919   -0.1077    0.8170 C   0  0  1  0  0  0  0  0  0  0  0  0
   -0.4136   -0.6011    1.5155 H   0  0  0  0  0  0  0  0  0  0  0  0
   -0.4834   -0.1723   -0.5965 C   0  0  0  0  0  0  0  0  0  0  0  0
   -1.2571   -0.4979   -1.2935 H   0  0  0  0  0  0  0  0  0  0  0  0
   -0.1572    0.8266   -0.8927 H   0  0  0  0  0  0  0  0  0  0  0  0
    0.7020   -1.1439   -0.7027 C   0  0  0  0  0  0  0  0  0  0  0  0
    0.3747   -2.1523   -0.4461 H   0  0  0  0  0  0  0  0  0  0  0  0
    1.0783   -1.1412   -1.7275 H   0  0  0  0  0  0  0  0  0  0  0  0
    1.8268   -0.7213    0.2526 C   0  0  0  0  0  0  0  0  0  0  0  0
    2.1421    0.2945    0.0026 H   0  0  0  0  0  0  0  0  0  0  0  0
    1.4481   -0.7346    1.2765 H   0  0  0  0  0  0  0  0  0  0  0  0
    3.0209   -1.6761    0.1296 C   0  0  0  0  0  0  0  0  0  0  0  0
    2.6830   -2.6879    0.3762 H   0  0  0  0  0  0  0  0  0  0  0  0
    3.3575   -1.6795   -0.9115 H   0  0  0  0  0  0  0  0  0  0  0  0
    4.1343   -1.2761    1.0268 N   0  3  0  0  0  0  0  0  0  0  0  0
    3.8317   -1.2812    1.9928 H   0  0  0  0  0  0  0  0  0  0  0  0
    4.9138   -1.9153    0.9335 H   0  0  0  0  0  0  0  0  0  0  0  0
    4.4566   -0.3433    0.7968 H   0  0  0  0  0  0  0  0  0  0  0  0
   -1.3103    1.3348    1.2791 C   0  0  0  0  0  0  0  0  0  0  0  0
   -2.2333    1.9891    0.8084 O   0  0  0  0  0  0  0  0  0  0  0  0
   -0.4429    1.8293    2.1683 N   0  0  0  0  0  0  0  0  0  0  0  0
    0.2668    1.2118    2.5263 H   0  0  0  0  0  0  0  0  0  0  0  0
   -0.5118    3.1863    2.7135 C   0  0  0  0  0  0  0  0  0  0  0  0
   -1.4470    3.3159    3.2625 H   0  0  0  0  0  0  0  0  0  0  0  0
    0.3243    3.3682    3.3896 H   0  0  0  0  0  0  0  0  0  0  0  0
   -0.4850    3.9172    1.9023 H   0  0  0  0  0  0  0  0  0  0  0  0
  5  6  2  0  0  0  0
  5  7  1  0  0  0  0
  2  3  1  0  0  0  0
  2  4  1  0  0  0  0
  2  5  1  0  0  0  0
  1  2  1  0  0  0  0
 27 28  2  0  0  0  0
 27 29  1  0  0  0  0
 23 24  1  0  0  0  0
 23 25  1  0  0  0  0
 23 26  1  0  0  0  0
 20 21  1  0  0  0  0
 20 22  1  0  0  0  0
 20 23  1  0  0  0  0
 17 18  1  0  0  0  0
 17 19  1  0  0  0  0
 17 20  1  0  0  0  0
 14 15  1  0  0  0  0
 14 16  1  0  0  0  0
 14 17  1  0  0  0  0
 11 12  1  0  0  0  0
 11 13  1  0  0  0  0
 11 14  1  0  0  0  0
  9 10  1  0  0  0  0
  9 11  1  0  0  0  0
  9 27  1  0  0  0  0
  7  8  1  0  0  0  0
  7  9  1  0  0  0  0
 31 32  1  0  0  0  0
 31 33  1  0  0  0  0
 31 34  1  0  0  0  0
 29 30  1  0  0  0  0
 29 31  1  0  0  0  0
M  CHG  1  23   1
M  END
$$$$
default_name
  -OEChem-02102213163D

 34 33  0     1  0  0  0  0  0999 V2000
   -3.8899   -3.6747    1.6490 H   0  0  0  0  0  0  0  0  0  0  0  0
   -3.9109   -2.6717    1.2250 C   0  0  0  0  0  0  0  0  0  0  0  0
   -4.6009   -2.0517    1.7950 H   0  0  0  0  0  0  0  0  0  0  0  0
   -4.2309   -2.7237    0.1860 H   0  0  0  0  0  0  0  0  0  0  0  0
   -2.5229   -2.0787    1.2980 C   0  0  0  0  0  0  0  0  0  0  0  0
   -1.5999   -2.7227    1.7810 O   0  0  0  0  0  0  0  0  0  0  0  0
   -2.3659   -0.8447    0.8120 N   0  0  0  0  0  0  0  0  0  0  0  0
   -3.1749   -0.3807    0.4220 H   0  0  0  0  0  0  0  0  0  0  0  0
   -1.0919   -0.1077    0.8170 C   0  0  1  0  0  0  0  0  0  0  0  0
   -0.4136   -0.6011    1.5155 H   0  0  0  0  0  0  0  0  0  0  0  0
   -0.4834   -0.1723   -0.5965 C   0  0  0  0  0  0  0  0  0  0  0  0
   -1.2571   -0.4979   -1.2935 H   0  0  0  0  0  0  0  0  0  0  0  0
   -0.1572    0.8266   -0.8927 H   0  0  0  0  0  0  0  0  0  0  0  0
    0.7020   -1.1439   -0.7027 C   0  0  0  0  0  0  0  0  0  0  0  0
    0.3355   -2.1712   -0.7106 H   0  0  0  0  0  0  0  0  0  0  0  0
    1.2427   -0.9511   -1.6313 H   0  0  0  0  0  0  0  0  0  0  0  0
    1.6537   -0.9581    0.4872 C   0  0  0  0  0  0  0  0  0  0  0  0
    2.0073    0.0756    0.5012 H   0  0  0  0  0  0  0  0  0  0  0  0
    1.1108   -1.1610    1.4125 H   0  0  0  0  0  0  0  0  0  0  0  0
    2.8505   -1.9102    0.3697 C   0  0  0  0  0  0  0  0  0  0  0  0
    2.4752   -2.9386    0.3496 H   0  0  0  0  0  0  0  0  0  0  0  0
    3.3547   -1.7188   -0.5824 H   0  0  0  0  0  0  0  0  0  0  0  0
    3.8006   -1.7346    1.4971 N   0  3  0  0  0  0  0  0  0  0  0  0
    3.3423   -1.9206    2.3804 H   0  0  0  0  0  0  0  0  0  0  0  0
    4.5839   -2.3692    1.4045 H   0  0  0  0  0  0  0  0  0  0  0  0
    4.1577   -0.7864    1.5148 H   0  0  0  0  0  0  0  0  0  0  0  0
   -1.3103    1.3348    1.2791 C   0  0  0  0  0  0  0  0  0  0  0  0
   -2.2333    1.9891    0.8084 O   0  0  0  0  0  0  0  0  0  0  0  0
   -0.4429    1.8293    2.1683 N   0  0  0  0  0  0  0  0  0  0  0  0
    0.2668    1.2118    2.5263 H   0  0  0  0  0  0  0  0  0  0  0  0
   -0.5118    3.1863    2.7135 C   0  0  0  0  0  0  0  0  0  0  0  0
   -1.4470    3.3159    3.2625 H   0  0  0  0  0  0  0  0  0  0  0  0
    0.3243    3.3682    3.3896 H   0  0  0  0  0  0  0  0  0  0  0  0
   -0.4850    3.9172    1.9023 H   0  0  0  0  0  0  0  0  0  0  0  0
  5  6  2  0  0  0  0
  5  7  1  0  0  0  0
  2  3  1  0  0  0  0
  2  4  1  0  0  0  0
  2  5  1  0  0  0  0
  1  2  1  0  0  0  0
 27 28  2  0  0  0  0
 27 29  1  0  0  0  0
 23 24  1  0  0  0  0
 23 25  1  0  0  0  0
 23 26  1  0  0  0  0
 20 21  1  0  0  0  0
 20 22  1  0  0  0  0
 20 23  1  0  0  0  0
 17 18  1  0  0  0  0
 17 19  1  0  0  0  0
 17 20  1  0  0  0  0
 14 15  1  0  0  0  0
 14 16  1  0  0  0  0
 14 17  1  0  0  0  0
 11 12  1  0  0  0  0
 11 13  1  0  0  0  0
 11 14  1  0  0  0  0
  9 10  1  0  0  0  0
  9 11  1  0  0  0  0
  9 27  1  0  0  0  0
  7  8  1  0  0  0  0
  7  9  1  0  0  0  0
 31 32  1  0  0  0  0
 31 33  1  0  0  0  0
 31 34  1  0  0  0  0
 29 30  1  0  0  0  0
 29 31  1  0  0  0  0
M  CHG  1  23   1
M  END
$$$$
default_name
  -OEChem-02102213163D

 34 33  0     1  0  0  0  0  0999 V2000
   -3.8899   -3.6747    1.6490 H   0  0  0  0  0  0  0  0  0  0  0  0
   -3.9109   -2.6717    1.2250 C   0  0  0  0  0  0  0  0  0  0  0  0
   -4.6009   -2.0517    1.7950 H   0  0  0  0  0  0  0  0  0  0  0  0
   -4.2309   -2.7237    0.1860 H   0  0  0  0  0  0  0  0  0  0  0  0
   -2.5229   -2.0787    1.2980 C   0  0  0  0  0  0  0  0  0  0  0  0
   -1.5999   -2.7227    1.7810 O   0  0  0  0  0  0  0  0  0  0  0  0
   -2.3659   -0.8447    0.8120 N   0  0  0  0  0  0  0  0  0  0  0  0
   -3.1749   -0.3807    0.4220 H   0  0  0  0  0  0  0  0  0  0  0  0
   -1.0919   -0.1077    0.8170 C   0  0  1  0  0  0  0  0  0  0  0  0
   -0.4136   -0.6011    1.5155 H   0  0  0  0  0  0  0  0  0  0  0  0
   -0.4834   -0.1723   -0.5965 C   0  0  0  0  0  0  0  0  0  0  0  0
   -1.2571   -0.4979   -1.2935 H   0  0  0  0  0  0  0  0  0  0  0  0
   -0.1572    0.8266   -0.8927 H   0  0  0  0  0  0  0  0  0  0  0  0
    0.7020   -1.1439   -0.7027 C   0  0  0  0  0  0  0  0  0  0  0  0
    0.3405   -2.1360   -0.9764 H   0  0  0  0  0  0  0  0  0  0  0  0
    1.3892   -0.7896   -1.4735 H   0  0  0  0  0  0  0  0  0  0  0  0
    1.4439   -1.2306    0.6383 C   0  0  0  0  0  0  0  0  0  0  0  0
    1.7917   -0.2330    0.9170 H   0  0  0  0  0  0  0  0  0  0  0  0
    0.7551   -1.5940    1.4035 H   0  0  0  0  0  0  0  0  0  0  0  0
    2.6424   -2.1812    0.5269 C   0  0  0  0  0  0  0  0  0  0  0  0
    2.2743   -3.1716    0.2398 H   0  0  0  0  0  0  0  0  0  0  0  0
    3.2975   -1.8225   -0.2728 H   0  0  0  0  0  0  0  0  0  0  0  0
    3.3931   -2.2655    1.8051 N   0  3  0  0  0  0  0  0  0  0  0  0
    2.7947   -2.6070    2.5469 H   0  0  0  0  0  0  0  0  0  0  0  0
    4.1801   -2.8958    1.7149 H   0  0  0  0  0  0  0  0  0  0  0  0
    3.7435   -1.3525    2.0708 H   0  0  0  0  0  0  0  0  0  0  0  0
   -1.3103    1.3348    1.2791 C   0  0  0  0  0  0  0  0  0  0  0  0
   -2.2333    1.9891    0.8084 O   0  0  0  0  0  0  0  0  0  0  0  0
   -0.4429    1.8293    2.1683 N   0  0  0  0  0  0  0  0  0  0  0  0
    0.2668    1.2118    2.5263 H   0  0  0  0  0  0  0  0  0  0  0  0
   -0.5118    3.1863    2.7135 C   0  0  0  0  0  0  0  0  0  0  0  0
   -1.4470    3.3159    3.2625 H   0  0  0  0  0  0  0  0  0  0  0  0
    0.3243    3.3682    3.3896 H   0  0  0  0  0  0  0  0  0  0  0  0
   -0.4850    3.9172    1.9023 H   0  0  0  0  0  0  0  0  0  0  0  0
  5  6  2  0  0  0  0
  5  7  1  0  0  0  0
  2  3  1  0  0  0  0
  2  4  1  0  0  0  0
  2  5  1  0  0  0  0
  1  2  1  0  0  0  0
 27 28  2  0  0  0  0
 27 29  1  0  0  0  0
 23 24  1  0  0  0  0
 23 25  1  0  0  0  0
 23 26  1  0  0  0  0
 20 21  1  0  0  0  0
 20 22  1  0  0  0  0
 20 23  1  0  0  0  0
 17 18  1  0  0  0  0
 17 19  1  0  0  0  0
 17 20  1  0  0  0  0
 14 15  1  0  0  0  0
 14 16  1  0  0  0  0
 14 17  1  0  0  0  0
 11 12  1  0  0  0  0
 11 13  1  0  0  0  0
 11 14  1  0  0  0  0
  9 10  1  0  0  0  0
  9 11  1  0  0  0  0
  9 27  1  0  0  0  0
  7  8  1  0  0  0  0
  7  9  1  0  0  0  0
 31 32  1  0  0  0  0
 31 33  1  0  0  0  0
 31 34  1  0  0  0  0
 29 30  1  0  0  0  0
 29 31  1  0  0  0  0
M  CHG  1  23   1
M  END
$$$$
default_name
  -OEChem-02102213163D

 34 33  0     1  0  0  0  0  0999 V2000
   -3.8899   -3.6747    1.6490 H   0  0  0  0  0  0  0  0  0  0  0  0
   -3.9109   -2.6717    1.2250 C   0  0  0  0  0  0  0  0  0  0  0  0
   -4.6009   -2.0517    1.7950 H   0  0  0  0  0  0  0  0  0  0  0  0
   -4.2309   -2.7237    0.1860 H   0  0  0  0  0  0  0  0  0  0  0  0
   -2.5229   -2.0787    1.2980 C   0  0  0  0  0  0  0  0  0  0  0  0
   -1.5999   -2.7227    1.7810 O   0  0  0  0  0  0  0  0  0  0  0  0
   -2.3659   -0.8447    0.8120 N   0  0  0  0  0  0  0  0  0  0  0  0
   -3.1749   -0.3807    0.4220 H   0  0  0  0  0  0  0  0  0  0  0  0
   -1.0919   -0.1077    0.8170 C   0  0  1  0  0  0  0  0  0  0  0  0
   -0.4136   -0.6011    1.5155 H   0  0  0  0  0  0  0  0  0  0  0  0
   -0.4834   -0.1723   -0.5965 C   0  0  0  0  0  0  0  0  0  0  0  0
   -1.2571   -0.4979   -1.2935 H   0  0  0  0  0  0  0  0  0  0  0  0
   -0.1572    0.8266   -0.8927 H   0  0  0  0  0  0  0  0  0  0  0  0
    0.7020   -1.1439   -0.7027 C   0  0  0  0  0  0  0  0  0  0  0  0
    0.3896   -2.0490   -1.2252 H   0  0  0  0  0  0  0  0  0  0  0  0
    1.5077   -0.6678   -1.2649 H   0  0  0  0  0  0  0  0  0  0  0  0
    1.2117   -1.5202    0.6954 C   0  0  0  0  0  0  0  0  0  0  0  0
    1.5098   -0.6103    1.2216 H   0  0  0  0  0  0  0  0  0  0  0  0
    0.4052   -2.0041    1.2501 H   0  0  0  0  0  0  0  0  0  0  0  0
    2.4109   -2.4707    0.5905 C   0  0  0  0  0  0  0  0  0  0  0  0
    2.0941   -3.3712    0.0544 H   0  0  0  0  0  0  0  0  0  0  0  0
    3.1897   -1.9834   -0.0038 H   0  0  0  0  0  0  0  0  0  0  0  0
    2.9395   -2.8325    1.9300 N   0  3  0  0  0  0  0  0  0  0  0  0
    2.2262   -3.2934    2.4811 H   0  0  0  0  0  0  0  0  0  0  0  0
    3.7299   -3.4592    1.8434 H   0  0  0  0  0  0  0  0  0  0  0  0
    3.2423   -2.0030    2.4270 H   0  0  0  0  0  0  0  0  0  0  0  0
   -1.3103    1.3348    1.2791 C   0  0  0  0  0  0  0  0  0  0  0  0
   -2.2333    1.9891    0.8084 O   0  0  0  0  0  0  0  0  0  0  0  0
   -0.4429    1.8293    2.1683 N   0  0  0  0  0  0  0  0  0  0  0  0
    0.2668    1.2118    2.5263 H   0  0  0  0  0  0  0  0  0  0  0  0
   -0.5118    3.1863    2.7135 C   0  0  0  0  0  0  0  0  0  0  0  0
   -1.4470    3.3159    3.2625 H   0  0  0  0  0  0  0  0  0  0  0  0
    0.3243    3.3682    3.3896 H   0  0  0  0  0  0  0  0  0  0  0  0
   -0.4850    3.9172    1.9023 H   0  0  0  0  0  0  0  0  0  0  0  0
  5  6  2  0  0  0  0
  5  7  1  0  0  0  0
  2  3  1  0  0  0  0
  2  4  1  0  0  0  0
  2  5  1  0  0  0  0
  1  2  1  0  0  0  0
 27 28  2  0  0  0  0
 27 29  1  0  0  0  0
 23 24  1  0  0  0  0
 23 25  1  0  0  0  0
 23 26  1  0  0  0  0
 20 21  1  0  0  0  0
 20 22  1  0  0  0  0
 20 23  1  0  0  0  0
 17 18  1  0  0  0  0
 17 19  1  0  0  0  0
 17 20  1  0  0  0  0
 14 15  1  0  0  0  0
 14 16  1  0  0  0  0
 14 17  1  0  0  0  0
 11 12  1  0  0  0  0
 11 13  1  0  0  0  0
 11 14  1  0  0  0  0
  9 10  1  0  0  0  0
  9 11  1  0  0  0  0
  9 27  1  0  0  0  0
  7  8  1  0  0  0  0
  7  9  1  0  0  0  0
 31 32  1  0  0  0  0
 31 33  1  0  0  0  0
 31 34  1  0  0  0  0
 29 30  1  0  0  0  0
 29 31  1  0  0  0  0
M  CHG  1  23   1
M  END
$$$$
default_name
  -OEChem-02102213163D

 34 33  0     1  0  0  0  0  0999 V2000
   -3.8899   -3.6747    1.6490 H   0  0  0  0  0  0  0  0  0  0  0  0
   -3.9109   -2.6717    1.2250 C   0  0  0  0  0  0  0  0  0  0  0  0
   -4.6009   -2.0517    1.7950 H   0  0  0  0  0  0  0  0  0  0  0  0
   -4.2309   -2.7237    0.1860 H   0  0  0  0  0  0  0  0  0  0  0  0
   -2.5229   -2.0787    1.2980 C   0  0  0  0  0  0  0  0  0  0  0  0
   -1.5999   -2.7227    1.7810 O   0  0  0  0  0  0  0  0  0  0  0  0
   -2.3659   -0.8447    0.8120 N   0  0  0  0  0  0  0  0  0  0  0  0
   -3.1749   -0.3807    0.4220 H   0  0  0  0  0  0  0  0  0  0  0  0
   -1.0919   -0.1077    0.8170 C   0  0  1  0  0  0  0  0  0  0  0  0
   -0.4136   -0.6011    1.5155 H   0  0  0  0  0  0  0  0  0  0  0  0
   -0.4834   -0.1723   -0.5965 C   0  0  0  0  0  0  0  0  0  0  0  0
   -1.2571   -0.4979   -1.2935 H   0  0  0  0  0  0  0  0  0  0  0  0
   -0.1572    0.8266   -0.8927 H   0  0  0  0  0  0  0  0  0  0  0  0
    0.7020   -1.1439   -0.7027 C   0  0  0  0  0  0  0  0  0  0  0  0
    0.4792   -1.9161   -1.4402 H   0  0  0  0  0  0  0  0  0  0  0  0
    1.5903   -0.5939   -1.0196 H   0  0  0  0  0  0  0  0  0  0  0  0
    0.9728   -1.8073    0.6548 C   0  0  0  0  0  0  0  0  0  0  0  0
    1.1808   -1.0305    1.3945 H   0  0  0  0  0  0  0  0  0  0  0  0
    0.0851   -2.3633    0.9627 H   0  0  0  0  0  0  0  0  0  0  0  0
    2.1716   -2.7589    0.5563 C   0  0  0  0  0  0  0  0  0  0  0  0
    1.9468   -3.5238   -0.1941 H   0  0  0  0  0  0  0  0  0  0  0  0
    3.0387   -2.1906    0.2063 H   0  0  0  0  0  0  0  0  0  0  0  0
    2.4708   -3.3970    1.8632 N   0  3  0  0  0  0  0  0  0  0  0  0
    1.6756   -3.9330    2.1873 H   0  0  0  0  0  0  0  0  0  0  0  0
    3.2639   -4.0210    1.7813 H   0  0  0  0  0  0  0  0  0  0  0  0
    2.6883   -2.6934    2.5592 H   0  0  0  0  0  0  0  0  0  0  0  0
   -1.3103    1.3348    1.2791 C   0  0  0  0  0  0  0  0  0  0  0  0
   -2.2333    1.9891    0.8084 O   0  0  0  0  0  0  0  0  0  0  0  0
   -0.4429    1.8293    2.1683 N   0  0  0  0  0  0  0  0  0  0  0  0
    0.2668    1.2118    2.5263 H   0  0  0  0  0  0  0  0  0  0  0  0
   -0.5118    3.1863    2.7135 C   0  0  0  0  0  0  0  0  0  0  0  0
   -1.4470    3.3159    3.2625 H   0  0  0  0  0  0  0  0  0  0  0  0
    0.3243    3.3682    3.3896 H   0  0  0  0  0  0  0  0  0  0  0  0
   -0.4850    3.9172    1.9023 H   0  0  0  0  0  0  0  0  0  0  0  0
  5  6  2  0  0  0  0
  5  7  1  0  0  0  0
  2  3  1  0  0  0  0
  2  4  1  0  0  0  0
  2  5  1  0  0  0  0
  1  2  1  0  0  0  0
 27 28  2  0  0  0  0
 27 29  1  0  0  0  0
 23 24  1  0  0  0  0
 23 25  1  0  0  0  0
 23 26  1  0  0  0  0
 20 21  1  0  0  0  0
 20 22  1  0  0  0  0
 20 23  1  0  0  0  0
 17 18  1  0  0  0  0
 17 19  1  0  0  0  0
 17 20  1  0  0  0  0
 14 15  1  0  0  0  0
 14 16  1  0  0  0  0
 14 17  1  0  0  0  0
 11 12  1  0  0  0  0
 11 13  1  0  0  0  0
 11 14  1  0  0  0  0
  9 10  1  0  0  0  0
  9 11  1  0  0  0  0
  9 27  1  0  0  0  0
  7  8  1  0  0  0  0
  7  9  1  0  0  0  0
 31 32  1  0  0  0  0
 31 33  1  0  0  0  0
 31 34  1  0  0  0  0
 29 30  1  0  0  0  0
 29 31  1  0  0  0  0
M  CHG  1  23   1
M  END
$$$$
default_name
  -OEChem-02102213163D

 34 33  0     1  0  0  0  0  0999 V2000
   -3.8899   -3.6747    1.6490 H   0  0  0  0  0  0  0  0  0  0  0  0
   -3.9109   -2.6717    1.2250 C   0  0  0  0  0  0  0  0  0  0  0  0
   -4.6009   -2.0517    1.7950 H   0  0  0  0  0  0  0  0  0  0  0  0
   -4.2309   -2.7237    0.1860 H   0  0  0  0  0  0  0  0  0  0  0  0
   -2.5229   -2.0787    1.2980 C   0  0  0  0  0  0  0  0  0  0  0  0
   -1.5999   -2.7227    1.7810 O   0  0  0  0  0  0  0  0  0  0  0  0
   -2.3659   -0.8447    0.8120 N   0  0  0  0  0  0  0  0  0  0  0  0
   -3.1749   -0.3807    0.4220 H   0  0  0  0  0  0  0  0  0  0  0  0
   -1.0919   -0.1077    0.8170 C   0  0  1  0  0  0  0  0  0  0  0  0
   -0.4136   -0.6011    1.5155 H   0  0  0  0  0  0  0  0  0  0  0  0
   -0.4834   -0.1723   -0.5965 C   0  0  0  0  0  0  0  0  0  0  0  0
   -1.2571   -0.4979   -1.2935 H   0  0  0  0  0  0  0  0  0  0  0  0
   -0.1572    0.8266   -0.8927 H   0  0  0  0  0  0  0  0  0  0  0  0
    0.7020   -1.1439   -0.7027 C   0  0  0  0  0  0  0  0  0  0  0  0
    0.6034   -1.7465   -1.6066 H   0  0  0  0  0  0  0  0  0  0  0  0
    1.6312   -0.5730   -0.7545 H   0  0  0  0  0  0  0  0  0  0  0  0
    0.7436   -2.0721    0.5191 C   0  0  0  0  0  0  0  0  0  0  0  0
    0.8273   -1.4650    1.4237 H   0  0  0  0  0  0  0  0  0  0  0  0
   -0.1836   -2.6472    0.5611 H   0  0  0  0  0  0  0  0  0  0  0  0
    1.9410   -3.0261    0.4266 C   0  0  0  0  0  0  0  0  0  0  0  0
    1.8425   -3.6189   -0.4886 H   0  0  0  0  0  0  0  0  0  0  0  0
    2.8547   -2.4300    0.3431 H   0  0  0  0  0  0  0  0  0  0  0  0
    2.0190   -3.9205    1.6091 N   0  3  0  0  0  0  0  0  0  0  0  0
    1.1804   -4.4824    1.6858 H   0  0  0  0  0  0  0  0  0  0  0  0
    2.8138   -4.5429    1.5329 H   0  0  0  0  0  0  0  0  0  0  0  0
    2.1191   -3.3768    2.4584 H   0  0  0  0  0  0  0  0  0  0  0  0
   -1.3103    1.3348    1.2791 C   0  0  0  0  0  0  0  0  0  0  0  0
   -2.2333    1.9891    0.8084 O   0  0  0  0  0  0  0  0  0  0  0  0
   -0.4429    1.8293    2.1683 N   0  0  0  0  0  0  0  0  0  0  0  0
    0.2668    1.2118    2.5263 H   0  0  0  0  0  0  0  0  0  0  0  0
   -0.5118    3.1863    2.7135 C   0  0  0  0  0  0  0  0  0  0  0  0
   -1.4470    3.3159    3.2625 H   0  0  0  0  0  0  0  0  0  0  0  0
    0.3243    3.3682    3.3896 H   0  0  0  0  0  0  0  0  0  0  0  0
   -0.4850    3.9172    1.9023 H   0  0  0  0  0  0  0  0  0  0  0  0
  5  6  2  0  0  0  0
  5  7  1  0  0  0  0
  2  3  1  0  0  0  0
  2  4  1  0  0  0  0
  2  5  1  0  0  0  0
  1  2  1  0  0  0  0
 27 28  2  0  0  0  0
 27 29  1  0  0  0  0
 23 24  1  0  0  0  0
 23 25  1  0  0  0  0
 23 26  1  0  0  0  0
 20 21  1  0  0  0  0
 20 22  1  0  0  0  0
 20 23  1  0  0  0  0
 17 18  1  0  0  0  0
 17 19  1  0  0  0  0
 17 20  1  0  0  0  0
 14 15  1  0  0  0  0
 14 16  1  0  0  0  0
 14 17  1  0  0  0  0
 11 12  1  0  0  0  0
 11 13  1  0  0  0  0
 11 14  1  0  0  0  0
  9 10  1  0  0  0  0
  9 11  1  0  0  0  0
  9 27  1  0  0  0  0
  7  8  1  0  0  0  0
  7  9  1  0  0  0  0
 31 32  1  0  0  0  0
 31 33  1  0  0  0  0
 31 34  1  0  0  0  0
 29 30  1  0  0  0  0
 29 31  1  0  0  0  0
M  CHG  1  23   1
M  END
$$$$
default_name
  -OEChem-02102213163D

 34 33  0     1  0  0  0  0  0999 V2000
   -3.8899   -3.6747    1.6490 H   0  0  0  0  0  0  0  0  0  0  0  0
   -3.9109   -2.6717    1.2250 C   0  0  0  0  0  0  0  0  0  0  0  0
   -4.6009   -2.0517    1.7950 H   0  0  0  0  0  0  0  0  0  0  0  0
   -4.2309   -2.7237    0.1860 H   0  0  0  0  0  0  0  0  0  0  0  0
   -2.5229   -2.0787    1.2980 C   0  0  0  0  0  0  0  0  0  0  0  0
   -1.5999   -2.7227    1.7810 O   0  0  0  0  0  0  0  0  0  0  0  0
   -2.3659   -0.8447    0.8120 N   0  0  0  0  0  0  0  0  0  0  0  0
   -3.1749   -0.3807    0.4220 H   0  0  0  0  0  0  0  0  0  0  0  0
   -1.0919   -0.1077    0.8170 C   0  0  1  0  0  0  0  0  0  0  0  0
   -0.4136   -0.6011    1.5155 H   0  0  0  0  0  0  0  0  0  0  0  0
   -0.4834   -0.1723   -0.5965 C   0  0  0  0  0  0  0  0  0  0  0  0
   -1.2571   -0.4979   -1.2935 H   0  0  0  0  0  0  0  0  0  0  0  0
   -0.1572    0.8266   -0.8927 H   0  0  0  0  0  0  0  0  0  0  0  0
    0.7020   -1.1439   -0.7027 C   0  0  0  0  0  0  0  0  0  0  0  0
    0.7536   -1.5516   -1.7131 H   0  0  0  0  0  0  0  0  0  0  0  0
    1.6277   -0.6065   -0.4875 H   0  0  0  0  0  0  0  0  0  0  0  0
    0.5396   -2.2967    0.2977 C   0  0  0  0  0  0  0  0  0  0  0  0
    0.4733   -1.8842    1.3073 H   0  0  0  0  0  0  0  0  0  0  0  0
   -0.3824   -2.8364    0.0724 H   0  0  0  0  0  0  0  0  0  0  0  0
    1.7346   -3.2542    0.2102 C   0  0  0  0  0  0  0  0  0  0  0  0
    1.7882   -3.6501   -0.8092 H   0  0  0  0  0  0  0  0  0  0  0  0
    2.6504   -2.6853    0.3973 H   0  0  0  0  0  0  0  0  0  0  0  0
    1.6147   -4.3674    1.1853 N   0  3  0  0  0  0  0  0  0  0  0  0
    0.7743   -4.9041    1.0106 H   0  0  0  0  0  0  0  0  0  0  0  0
    2.4104   -4.9894    1.1151 H   0  0  0  0  0  0  0  0  0  0  0  0
    1.5736   -4.0066    2.1313 H   0  0  0  0  0  0  0  0  0  0  0  0
   -1.3103    1.3348    1.2791 C   0  0  0  0  0  0  0  0  0  0  0  0
   -2.2333    1.9891    0.8084 O   0  0  0  0  0  0  0  0  0  0  0  0
   -0.4429    1.8293    2.1683 N   0  0  0  0  0  0  0  0  0  0  0  0
    0.2668    1.2118    2.5263 H   0  0  0  0  0  0  0  0  0  0  0  0
   -0.5118    3.1863    2.7135 C   0  0  0  0  0  0  0  0  0  0  0  0
   -1.4470    3.3159    3.2625 H   0  0  0  0  0  0  0  0  0  0  0  0
    0.3243    3.3682    3.3896 H   0  0  0  0  0  0  0  0  0  0  0  0
   -0.4850    3.9172    1.9023 H   0  0  0  0  0  0  0  0  0  0  0  0
  5  6  2  0  0  0  0
  5  7  1  0  0  0  0
  2  3  1  0  0  0  0
  2  4  1  0  0  0  0
  2  5  1  0  0  0  0
  1  2  1  0  0  0  0
 27 28  2  0  0  0  0
 27 29  1  0  0  0  0
 23 24  1  0  0  0  0
 23 25  1  0  0  0  0
 23 26  1  0  0  0  0
 20 21  1  0  0  0  0
 20 22  1  0  0  0  0
 20 23  1  0  0  0  0
 17 18  1  0  0  0  0
 17 19  1  0  0  0  0
 17 20  1  0  0  0  0
 14 15  1  0  0  0  0
 14 16  1  0  0  0  0
 14 17  1  0  0  0  0
 11 12  1  0  0  0  0
 11 13  1  0  0  0  0
 11 14  1  0  0  0  0
  9 10  1  0  0  0  0
  9 11  1  0  0  0  0
  9 27  1  0  0  0  0
  7  8  1  0  0  0  0
  7  9  1  0  0  0  0
 31 32  1  0  0  0  0
 31 33  1  0  0  0  0
 31 34  1  0  0  0  0
 29 30  1  0  0  0  0
 29 31  1  0  0  0  0
M  CHG  1  23   1
M  END
$$$$
default_name
  -OEChem-02102213163D

 34 33  0     1  0  0  0  0  0999 V2000
   -3.8899   -3.6747    1.6490 H   0  0  0  0  0  0  0  0  0  0  0  0
   -3.9109   -2.6717    1.2250 C   0  0  0  0  0  0  0  0  0  0  0  0
   -4.6009   -2.0517    1.7950 H   0  0  0  0  0  0  0  0  0  0  0  0
   -4.2309   -2.7237    0.1860 H   0  0  0  0  0  0  0  0  0  0  0  0
   -2.5229   -2.0787    1.2980 C   0  0  0  0  0  0  0  0  0  0  0  0
   -1.5999   -2.7227    1.7810 O   0  0  0  0  0  0  0  0  0  0  0  0
   -2.3659   -0.8447    0.8120 N   0  0  0  0  0  0  0  0  0  0  0  0
   -3.1749   -0.3807    0.4220 H   0  0  0  0  0  0  0  0  0  0  0  0
   -1.0919   -0.1077    0.8170 C   0  0  1  0  0  0  0  0  0  0  0  0
   -0.4136   -0.6011    1.5155 H   0  0  0  0  0  0  0  0  0  0  0  0
   -0.4834   -0.1723   -0.5965 C   0  0  0  0  0  0  0  0  0  0  0  0
   -1.2571   -0.4979   -1.2935 H   0  0  0  0  0  0  0  0  0  0  0  0
   -0.1572    0.8266   -0.8927 H   0  0  0  0  0  0  0  0  0  0  0  0
    0.7020   -1.1439   -0.7027 C   0  0  0  0  0  0  0  0  0  0  0  0
    0.9196   -1.3447   -1.7525 H   0  0  0  0  0  0  0  0  0  0  0  0
    1.5800   -0.6920   -0.2368 H   0  0  0  0  0  0  0  0  0  0  0  0
    0.3749   -2.4658    0.0055 C   0  0  0  0  0  0  0  0  0  0  0  0
    0.1429   -2.2595    1.0531 H   0  0  0  0  0  0  0  0  0  0  0  0
   -0.4979   -2.9180   -0.4699 H   0  0  0  0  0  0  0  0  0  0  0  0
    1.5667   -3.4276   -0.0782 C   0  0  0  0  0  0  0  0  0  0  0  0
    1.7877   -3.6152   -1.1340 H   0  0  0  0  0  0  0  0  0  0  0  0
    2.4395   -2.9390    0.3652 H   0  0  0  0  0  0  0  0  0  0  0  0
    1.2856   -4.7072    0.6205 N   0  3  0  0  0  0  0  0  0  0  0  0
    0.4851   -5.1693    0.2077 H   0  0  0  0  0  0  0  0  0  0  0  0
    2.0812   -5.3300    0.5563 H   0  0  0  0  0  0  0  0  0  0  0  0
    1.0890   -4.5399    1.6004 H   0  0  0  0  0  0  0  0  0  0  0  0
   -1.3103    1.3348    1.2791 C   0  0  0  0  0  0  0  0  0  0  0  0
   -2.2333    1.9891    0.8084 O   0  0  0  0  0  0  0  0  0  0  0  0
   -0.4429    1.8293    2.1683 N   0  0  0  0  0  0  0  0  0  0  0  0
    0.2668    1.2118    2.5263 H   0  0  0  0  0  0  0  0  0  0  0  0
   -0.5118    3.1863    2.7135 C   0  0  0  0  0  0  0  0  0  0  0  0
   -1.4470    3.3159    3.2625 H   0  0  0  0  0  0  0  0  0  0  0  0
    0.3243    3.3682    3.3896 H   0  0  0  0  0  0  0  0  0  0  0  0
   -0.4850    3.9172    1.9023 H   0  0  0  0  0  0  0  0  0  0  0  0
  5  6  2  0  0  0  0
  5  7  1  0  0  0  0
  2  3  1  0  0  0  0
  2  4  1  0  0  0  0
  2  5  1  0  0  0  0
  1  2  1  0  0  0  0
 27 28  2  0  0  0  0
 27 29  1  0  0  0  0
 23 24  1  0  0  0  0
 23 25  1  0  0  0  0
 23 26  1  0  0  0  0
 20 21  1  0  0  0  0
 20 22  1  0  0  0  0
 20 23  1  0  0  0  0
 17 18  1  0  0  0  0
 17 19  1  0  0  0  0
 17 20  1  0  0  0  0
 14 15  1  0  0  0  0
 14 16  1  0  0  0  0
 14 17  1  0  0  0  0
 11 12  1  0  0  0  0
 11 13  1  0  0  0  0
 11 14  1  0  0  0  0
  9 10  1  0  0  0  0
  9 11  1  0  0  0  0
  9 27  1  0  0  0  0
  7  8  1  0  0  0  0
  7  9  1  0  0  0  0
 31 32  1  0  0  0  0
 31 33  1  0  0  0  0
 31 34  1  0  0  0  0
 29 30  1  0  0  0  0
 29 31  1  0  0  0  0
M  CHG  1  23   1
M  END
$$$$
default_name
  -OEChem-02102213163D

 34 33  0     1  0  0  0  0  0999 V2000
   -3.8899   -3.6747    1.6490 H   0  0  0  0  0  0  0  0  0  0  0  0
   -3.9109   -2.6717    1.2250 C   0  0  0  0  0  0  0  0  0  0  0  0
   -4.6009   -2.0517    1.7950 H   0  0  0  0  0  0  0  0  0  0  0  0
   -4.2309   -2.7237    0.1860 H   0  0  0  0  0  0  0  0  0  0  0  0
   -2.5229   -2.0787    1.2980 C   0  0  0  0  0  0  0  0  0  0  0  0
   -1.5999   -2.7227    1.7810 O   0  0  0  0  0  0  0  0  0  0  0  0
   -2.3659   -0.8447    0.8120 N   0  0  0  0  0  0  0  0  0  0  0  0
   -3.1749   -0.3807    0.4220 H   0  0  0  0  0  0  0  0  0  0  0  0
   -1.0919   -0.1077    0.8170 C   0  0  1  0  0  0  0  0  0  0  0  0
   -0.4136   -0.6011    1.5155 H   0  0  0  0  0  0  0  0  0  0  0  0
   -0.4834   -0.1723   -0.5965 C   0  0  0  0  0  0  0  0  0  0  0  0
   -1.2571   -0.4979   -1.2935 H   0  0  0  0  0  0  0  0  0  0  0  0
   -0.1572    0.8266   -0.8927 H   0  0  0  0  0  0  0  0  0  0  0  0
    0.7020   -1.1439   -0.7027 C   0  0  0  0  0  0  0  0  0  0  0  0
    1.0900   -1.1401   -1.7221 H   0  0  0  0  0  0  0  0  0  0  0  0
    1.4913   -0.8239   -0.0196 H   0  0  0  0  0  0  0  0  0  0  0  0
    0.2605   -2.5679   -0.3374 C   0  0  0  0  0  0  0  0  0  0  0  0
   -0.1414   -2.5654    0.6786 H   0  0  0  0  0  0  0  0  0  0  0  0
   -0.5221   -2.8864   -1.0289 H   0  0  0  0  0  0  0  0  0  0  0  0
    1.4485   -3.5345   -0.4189 C   0  0  0  0  0  0  0  0  0  0  0  0
    1.8410   -3.5166   -1.4409 H   0  0  0  0  0  0  0  0  0  0  0  0
    2.2366   -3.1740    0.2491 H   0  0  0  0  0  0  0  0  0  0  0  0
    1.0541   -4.9167   -0.0468 N   0  3  0  0  0  0  0  0  0  0  0  0
    0.3323   -5.2599   -0.6682 H   0  0  0  0  0  0  0  0  0  0  0  0
    1.8486   -5.5416   -0.1054 H   0  0  0  0  0  0  0  0  0  0  0  0
    0.6983   -4.9402    0.9017 H   0  0  0  0  0  0  0  0  0  0  0  0
   -1.3103    1.3348    1.2791 C   0  0  0  0  0  0  0  0  0  0  0  0
   -2.2333    1.9891    0.8084 O   0  0  0  0  0  0  0  0  0  0  0  0
   -0.4429    1.8293    2.1683 N   0  0  0  0  0  0  0  0  0  0  0  0
    0.2668    1.2118    2.5263 H   0  0  0  0  0  0  0  0  0  0  0  0
   -0.5118    3.1863    2.7135 C   0  0  0  0  0  0  0  0  0  0  0  0
   -1.4470    3.3159    3.2625 H   0  0  0  0  0  0  0  0  0  0  0  0
    0.3243    3.3682    3.3896 H   0  0  0  0  0  0  0  0  0  0  0  0
   -0.4850    3.9172    1.9023 H   0  0  0  0  0  0  0  0  0  0  0  0
  5  6  2  0  0  0  0
  5  7  1  0  0  0  0
  2  3  1  0  0  0  0
  2  4  1  0  0  0  0
  2  5  1  0  0  0  0
  1  2  1  0  0  0  0
 27 28  2  0  0  0  0
 27 29  1  0  0  0  0
 23 24  1  0  0  0  0
 23 25  1  0  0  0  0
 23 26  1  0  0  0  0
 20 21  1  0  0  0  0
 20 22  1  0  0  0  0
 20 23  1  0  0  0  0
 17 18  1  0  0  0  0
 17 19  1  0  0  0  0
 17 20  1  0  0  0  0
 14 15  1  0  0  0  0
 14 16  1  0  0  0  0
 14 17  1  0  0  0  0
 11 12  1  0  0  0  0
 11 13  1  0  0  0  0
 11 14  1  0  0  0  0
  9 10  1  0  0  0  0
  9 11  1  0  0  0  0
  9 27  1  0  0  0  0
  7  8  1  0  0  0  0
  7  9  1  0  0  0  0
 31 32  1  0  0  0  0
 31 33  1  0  0  0  0
 31 34  1  0  0  0  0
 29 30  1  0  0  0  0
 29 31  1  0  0  0  0
M  CHG  1  23   1
M  END
$$$$
default_name
  -OEChem-02102213163D

 34 33  0     1  0  0  0  0  0999 V2000
   -3.8899   -3.6747    1.6490 H   0  0  0  0  0  0  0  0  0  0  0  0
   -3.9109   -2.6717    1.2250 C   0  0  0  0  0  0  0  0  0  0  0  0
   -4.6009   -2.0517    1.7950 H   0  0  0  0  0  0  0  0  0  0  0  0
   -4.2309   -2.7237    0.1860 H   0  0  0  0  0  0  0  0  0  0  0  0
   -2.5229   -2.0787    1.2980 C   0  0  0  0  0  0  0  0  0  0  0  0
   -1.5999   -2.7227    1.7810 O   0  0  0  0  0  0  0  0  0  0  0  0
   -2.3659   -0.8447    0.8120 N   0  0  0  0  0  0  0  0  0  0  0  0
   -3.1749   -0.3807    0.4220 H   0  0  0  0  0  0  0  0  0  0  0  0
   -1.0919   -0.1077    0.8170 C   0  0  1  0  0  0  0  0  0  0  0  0
   -0.4136   -0.6011    1.5155 H   0  0  0  0  0  0  0  0  0  0  0  0
   -0.4834   -0.1723   -0.5965 C   0  0  0  0  0  0  0  0  0  0  0  0
   -1.2571   -0.4979   -1.2935 H   0  0  0  0  0  0  0  0  0  0  0  0
   -0.1572    0.8266   -0.8927 H   0  0  0  0  0  0  0  0  0  0  0  0
    0.7020   -1.1439   -0.7027 C   0  0  0  0  0  0  0  0  0  0  0  0
    1.2534   -0.9515   -1.6240 H   0  0  0  0  0  0  0  0  0  0  0  0
    1.3678   -0.9931    0.1493 H   0  0  0  0  0  0  0  0  0  0  0  0
    0.2043   -2.5959   -0.7077 C   0  0  0  0  0  0  0  0  0  0  0  0
   -0.3601   -2.7810    0.2093 H   0  0  0  0  0  0  0  0  0  0  0  0
   -0.4534   -2.7439   -1.5665 H   0  0  0  0  0  0  0  0  0  0  0  0
    1.3883   -3.5677   -0.7887 C   0  0  0  0  0  0  0  0  0  0  0  0
    1.9445   -3.3611   -1.7088 H   0  0  0  0  0  0  0  0  0  0  0  0
    2.0553   -3.3741    0.0568 H   0  0  0  0  0  0  0  0  0  0  0  0
    0.9360   -4.9817   -0.7711 N   0  3  0  0  0  0  0  0  0  0  0  0
    0.3265   -5.1698   -1.5573 H   0  0  0  0  0  0  0  0  0  0  0  0
    1.7284   -5.6096   -0.8248 H   0  0  0  0  0  0  0  0  0  0  0  0
    0.4280   -5.1805    0.0829 H   0  0  0  0  0  0  0  0  0  0  0  0
   -1.3103    1.3348    1.2791 C   0  0  0  0  0  0  0  0  0  0  0  0
   -2.2333    1.9891    0.8084 O   0  0  0  0  0  0  0  0  0  0  0  0
   -0.4429    1.8293    2.1683 N   0  0  0  0  0  0  0  0  0  0  0  0
    0.2668    1.2118    2.5263 H   0  0  0  0  0  0  0  0  0  0  0  0
   -0.5118    3.1863    2.7135 C   0  0  0  0  0  0  0  0  0  0  0  0
   -1.4470    3.3159    3.2625 H   0  0  0  0  0  0  0  0  0  0  0  0
    0.3243    3.3682    3.3896 H   0  0  0  0  0  0  0  0  0  0  0  0
   -0.4850    3.9172    1.9023 H   0  0  0  0  0  0  0  0  0  0  0  0
  5  6  2  0  0  0  0
  5  7  1  0  0  0  0
  2  3  1  0  0  0  0
  2  4  1  0  0  0  0
  2  5  1  0  0  0  0
  1  2  1  0  0  0  0
 27 28  2  0  0  0  0
 27 29  1  0  0  0  0
 23 24  1  0  0  0  0
 23 25  1  0  0  0  0
 23 26  1  0  0  0  0
 20 21  1  0  0  0  0
 20 22  1  0  0  0  0
 20 23  1  0  0  0  0
 17 18  1  0  0  0  0
 17 19  1  0  0  0  0
 17 20  1  0  0  0  0
 14 15  1  0  0  0  0
 14 16  1  0  0  0  0
 14 17  1  0  0  0  0
 11 12  1  0  0  0  0
 11 13  1  0  0  0  0
 11 14  1  0  0  0  0
  9 10  1  0  0  0  0
  9 11  1  0  0  0  0
  9 27  1  0  0  0  0
  7  8  1  0  0  0  0
  7  9  1  0  0  0  0
 31 32  1  0  0  0  0
 31 33  1  0  0  0  0
 31 34  1  0  0  0  0
 29 30  1  0  0  0  0
 29 31  1  0  0  0  0
M  CHG  1  23   1
M  END
$$$$
default_name
  -OEChem-02102213163D

 34 33  0     1  0  0  0  0  0999 V2000
   -3.8899   -3.6747    1.6490 H   0  0  0  0  0  0  0  0  0  0  0  0
   -3.9109   -2.6717    1.2250 C   0  0  0  0  0  0  0  0  0  0  0  0
   -4.6009   -2.0517    1.7950 H   0  0  0  0  0  0  0  0  0  0  0  0
   -4.2309   -2.7237    0.1860 H   0  0  0  0  0  0  0  0  0  0  0  0
   -2.5229   -2.0787    1.2980 C   0  0  0  0  0  0  0  0  0  0  0  0
   -1.5999   -2.7227    1.7810 O   0  0  0  0  0  0  0  0  0  0  0  0
   -2.3659   -0.8447    0.8120 N   0  0  0  0  0  0  0  0  0  0  0  0
   -3.1749   -0.3807    0.4220 H   0  0  0  0  0  0  0  0  0  0  0  0
   -1.0919   -0.1077    0.8170 C   0  0  1  0  0  0  0  0  0  0  0  0
   -0.4136   -0.6011    1.5155 H   0  0  0  0  0  0  0  0  0  0  0  0
   -0.4834   -0.1723   -0.5965 C   0  0  0  0  0  0  0  0  0  0  0  0
   -1.2571   -0.4979   -1.2935 H   0  0  0  0  0  0  0  0  0  0  0  0
   -0.1572    0.8266   -0.8927 H   0  0  0  0  0  0  0  0  0  0  0  0
    0.7020   -1.1439   -0.7027 C   0  0  0  0  0  0  0  0  0  0  0  0
    1.3985   -0.7918   -1.4648 H   0  0  0  0  0  0  0  0  0  0  0  0
    1.2178   -1.1880    0.2585 H   0  0  0  0  0  0  0  0  0  0  0  0
    0.2102   -2.5480   -1.0802 C   0  0  0  0  0  0  0  0  0  0  0  0
   -0.4985   -2.8917   -0.3229 H   0  0  0  0  0  0  0  0  0  0  0  0
   -0.2965   -2.5001   -2.0461 H   0  0  0  0  0  0  0  0  0  0  0  0
    1.3900   -3.5247   -1.1623 C   0  0  0  0  0  0  0  0  0  0  0  0
    2.0910   -3.1592   -1.9197 H   0  0  0  0  0  0  0  0  0  0  0  0
    1.9082   -3.5257   -0.1986 H   0  0  0  0  0  0  0  0  0  0  0  0
    0.9392   -4.8978   -1.5031 N   0  3  0  0  0  0  0  0  0  0  0  0
    0.4680   -4.9052   -2.3990 H   0  0  0  0  0  0  0  0  0  0  0  0
    1.7288   -5.5295   -1.5530 H   0  0  0  0  0  0  0  0  0  0  0  0
    0.2967   -5.2442   -0.8002 H   0  0  0  0  0  0  0  0  0  0  0  0
   -1.3103    1.3348    1.2791 C   0  0  0  0  0  0  0  0  0  0  0  0
   -2.2333    1.9891    0.8084 O   0  0  0  0  0  0  0  0  0  0  0  0
   -0.4429    1.8293    2.1683 N   0  0  0  0  0  0  0  0  0  0  0  0
    0.2668    1.2118    2.5263 H   0  0  0  0  0  0  0  0  0  0  0  0
   -0.5118    3.1863    2.7135 C   0  0  0  0  0  0  0  0  0  0  0  0
   -1.4470    3.3159    3.2625 H   0  0  0  0  0  0  0  0  0  0  0  0
    0.3243    3.3682    3.3896 H   0  0  0  0  0  0  0  0  0  0  0  0
   -0.4850    3.9172    1.9023 H   0  0  0  0  0  0  0  0  0  0  0  0
  5  6  2  0  0  0  0
  5  7  1  0  0  0  0
  2  3  1  0  0  0  0
  2  4  1  0  0  0  0
  2  5  1  0  0  0  0
  1  2  1  0  0  0  0
 27 28  2  0  0  0  0
 27 29  1  0  0  0  0
 23 24  1  0  0  0  0
 23 25  1  0  0  0  0
 23 26  1  0  0  0  0
 20 21  1  0  0  0  0
 20 22  1  0  0  0  0
 20 23  1  0  0  0  0
 17 18  1  0  0  0  0
 17 19  1  0  0  0  0
 17 20  1  0  0  0  0
 14 15  1  0  0  0  0
 14 16  1  0  0  0  0
 14 17  1  0  0  0  0
 11 12  1  0  0  0  0
 11 13  1  0  0  0  0
 11 14  1  0  0  0  0
  9 10  1  0  0  0  0
  9 11  1  0  0  0  0
  9 27  1  0  0  0  0
  7  8  1  0  0  0  0
  7  9  1  0  0  0  0
 31 32  1  0  0  0  0
 31 33  1  0  0  0  0
 31 34  1  0  0  0  0
 29 30  1  0  0  0  0
 29 31  1  0  0  0  0
M  CHG  1  23   1
M  END
$$$$
default_name
  -OEChem-02102213163D

 34 33  0     1  0  0  0  0  0999 V2000
   -3.8899   -3.6747    1.6490 H   0  0  0  0  0  0  0  0  0  0  0  0
   -3.9109   -2.6717    1.2250 C   0  0  0  0  0  0  0  0  0  0  0  0
   -4.6009   -2.0517    1.7950 H   0  0  0  0  0  0  0  0  0  0  0  0
   -4.2309   -2.7237    0.1860 H   0  0  0  0  0  0  0  0  0  0  0  0
   -2.5229   -2.0787    1.2980 C   0  0  0  0  0  0  0  0  0  0  0  0
   -1.5999   -2.7227    1.7810 O   0  0  0  0  0  0  0  0  0  0  0  0
   -2.3659   -0.8447    0.8120 N   0  0  0  0  0  0  0  0  0  0  0  0
   -3.1749   -0.3807    0.4220 H   0  0  0  0  0  0  0  0  0  0  0  0
   -1.0919   -0.1077    0.8170 C   0  0  1  0  0  0  0  0  0  0  0  0
   -0.4136   -0.6011    1.5155 H   0  0  0  0  0  0  0  0  0  0  0  0
   -0.4834   -0.1723   -0.5965 C   0  0  0  0  0  0  0  0  0  0  0  0
   -1.2571   -0.4979   -1.2935 H   0  0  0  0  0  0  0  0  0  0  0  0
   -0.1572    0.8266   -0.8927 H   0  0  0  0  0  0  0  0  0  0  0  0
    0.7020   -1.1439   -0.7027 C   0  0  0  0  0  0  0  0  0  0  0  0
    1.5155   -0.6720   -1.2554 H   0  0  0  0  0  0  0  0  0  0  0  0
    1.0516   -1.3954    0.3005 H   0  0  0  0  0  0  0  0  0  0  0  0
    0.2777   -2.4275   -1.4295 C   0  0  0  0  0  0  0  0  0  0  0  0
   -0.5470   -2.8898   -0.8817 H   0  0  0  0  0  0  0  0  0  0  0  0
   -0.0622   -2.1716   -2.4351 H   0  0  0  0  0  0  0  0  0  0  0  0
    1.4535   -3.4087   -1.5144 C   0  0  0  0  0  0  0  0  0  0  0  0
    2.2708   -2.9247   -2.0591 H   0  0  0  0  0  0  0  0  0  0  0  0
    1.8051   -3.6185   -0.4997 H   0  0  0  0  0  0  0  0  0  0  0  0
    1.0637   -4.6706   -2.1927 N   0  3  0  0  0  0  0  0  0  0  0  0
    0.7472   -4.4839   -3.1361 H   0  0  0  0  0  0  0  0  0  0  0  0
    1.8498   -5.3067   -2.2403 H   0  0  0  0  0  0  0  0  0  0  0  0
    0.3132   -5.1270   -1.6874 H   0  0  0  0  0  0  0  0  0  0  0  0
   -1.3103    1.3348    1.2791 C   0  0  0  0  0  0  0  0  0  0  0  0
   -2.2333    1.9891    0.8084 O   0  0  0  0  0  0  0  0  0  0  0  0
   -0.4429    1.8293    2.1683 N   0  0  0  0  0  0  0  0  0  0  0  0
    0.2668    1.2118    2.5263 H   0  0  0  0  0  0  0  0  0  0  0  0
   -0.5118    3.1863    2.7135 C   0  0  0  0  0  0  0  0  0  0  0  0
   -1.4470    3.3159    3.2625 H   0  0  0  0  0  0  0  0  0  0  0  0
    0.3243    3.3682    3.3896 H   0  0  0  0  0  0  0  0  0  0  0  0
   -0.4850    3.9172    1.9023 H   0  0  0  0  0  0  0  0  0  0  0  0
  5  6  2  0  0  0  0
  5  7  1  0  0  0  0
  2  3  1  0  0  0  0
  2  4  1  0  0  0  0
  2  5  1  0  0  0  0
  1  2  1  0  0  0  0
 27 28  2  0  0  0  0
 27 29  1  0  0  0  0
 23 24  1  0  0  0  0
 23 25  1  0  0  0  0
 23 26  1  0  0  0  0
 20 21  1  0  0  0  0
 20 22  1  0  0  0  0
 20 23  1  0  0  0  0
 17 18  1  0  0  0  0
 17 19  1  0  0  0  0
 17 20  1  0  0  0  0
 14 15  1  0  0  0  0
 14 16  1  0  0  0  0
 14 17  1  0  0  0  0
 11 12  1  0  0  0  0
 11 13  1  0  0  0  0
 11 14  1  0  0  0  0
  9 10  1  0  0  0  0
  9 11  1  0  0  0  0
  9 27  1  0  0  0  0
  7  8  1  0  0  0  0
  7  9  1  0  0  0  0
 31 32  1  0  0  0  0
 31 33  1  0  0  0  0
 31 34  1  0  0  0  0
 29 30  1  0  0  0  0
 29 31  1  0  0  0  0
M  CHG  1  23   1
M  END
$$$$
default_name
  -OEChem-02102213163D

 34 33  0     1  0  0  0  0  0999 V2000
   -3.8899   -3.6747    1.6490 H   0  0  0  0  0  0  0  0  0  0  0  0
   -3.9109   -2.6717    1.2250 C   0  0  0  0  0  0  0  0  0  0  0  0
   -4.6009   -2.0517    1.7950 H   0  0  0  0  0  0  0  0  0  0  0  0
   -4.2309   -2.7237    0.1860 H   0  0  0  0  0  0  0  0  0  0  0  0
   -2.5229   -2.0787    1.2980 C   0  0  0  0  0  0  0  0  0  0  0  0
   -1.5999   -2.7227    1.7810 O   0  0  0  0  0  0  0  0  0  0  0  0
   -2.3659   -0.8447    0.8120 N   0  0  0  0  0  0  0  0  0  0  0  0
   -3.1749   -0.3807    0.4220 H   0  0  0  0  0  0  0  0  0  0  0  0
   -1.0919   -0.1077    0.8170 C   0  0  1  0  0  0  0  0  0  0  0  0
   -0.4136   -0.6011    1.5155 H   0  0  0  0  0  0  0  0  0  0  0  0
   -0.4834   -0.1723   -0.5965 C   0  0  0  0  0  0  0  0  0  0  0  0
   -1.2571   -0.4979   -1.2935 H   0  0  0  0  0  0  0  0  0  0  0  0
   -0.1572    0.8266   -0.8927 H   0  0  0  0  0  0  0  0  0  0  0  0
    0.7020   -1.1439   -0.7027 C   0  0  0  0  0  0  0  0  0  0  0  0
    1.5963   -0.6002   -1.0100 H   0  0  0  0  0  0  0  0  0  0  0  0
    0.8804   -1.6012    0.2725 H   0  0  0  0  0  0  0  0  0  0  0  0
    0.4022   -2.2425   -1.7318 C   0  0  0  0  0  0  0  0  0  0  0  0
   -0.5023   -2.7755   -1.4291 H   0  0  0  0  0  0  0  0  0  0  0  0
    0.2338   -1.7808   -2.7068 H   0  0  0  0  0  0  0  0  0  0  0  0
    1.5746   -3.2274   -1.8209 C   0  0  0  0  0  0  0  0  0  0  0  0
    2.4713   -2.6736   -2.1174 H   0  0  0  0  0  0  0  0  0  0  0  0
    1.7532   -3.6462   -0.8259 H   0  0  0  0  0  0  0  0  0  0  0  0
    1.3008   -4.3156   -2.7932 N   0  3  0  0  0  0  0  0  0  0  0  0
    1.1451   -3.9349   -3.7182 H   0  0  0  0  0  0  0  0  0  0  0  0
    2.0832   -4.9565   -2.8399 H   0  0  0  0  0  0  0  0  0  0  0  0
    0.4765   -4.8370   -2.5183 H   0  0  0  0  0  0  0  0  0  0  0  0
   -1.3103    1.3348    1.2791 C   0  0  0  0  0  0  0  0  0  0  0  0
   -2.2333    1.9891    0.8084 O   0  0  0  0  0  0  0  0  0  0  0  0
   -0.4429    1.8293    2.1683 N   0  0  0  0  0  0  0  0  0  0  0  0
    0.2668    1.2118    2.5263 H   0  0  0  0  0  0  0  0  0  0  0  0
   -0.5118    3.1863    2.7135 C   0  0  0  0  0  0  0  0  0  0  0  0
   -1.4470    3.3159    3.2625 H   0  0  0  0  0  0  0  0  0  0  0  0
    0.3243    3.3682    3.3896 H   0  0  0  0  0  0  0  0  0  0  0  0
   -0.4850    3.9172    1.9023 H   0  0  0  0  0  0  0  0  0  0  0  0
  5  6  2  0  0  0  0
  5  7  1  0  0  0  0
  2  3  1  0  0  0  0
  2  4  1  0  0  0  0
  2  5  1  0  0  0  0
  1  2  1  0  0  0  0
 27 28  2  0  0  0  0
 27 29  1  0  0  0  0
 23 24  1  0  0  0  0
 23 25  1  0  0  0  0
 23 26  1  0  0  0  0
 20 21  1  0  0  0  0
 20 22  1  0  0  0  0
 20 23  1  0  0  0  0
 17 18  1  0  0  0  0
 17 19  1  0  0  0  0
 17 20  1  0  0  0  0
 14 15  1  0  0  0  0
 14 16  1  0  0  0  0
 14 17  1  0  0  0  0
 11 12  1  0  0  0  0
 11 13  1  0  0  0  0
 11 14  1  0  0  0  0
  9 10  1  0  0  0  0
  9 11  1  0  0  0  0
  9 27  1  0  0  0  0
  7  8  1  0  0  0  0
  7  9  1  0  0  0  0
 31 32  1  0  0  0  0
 31 33  1  0  0  0  0
 31 34  1  0  0  0  0
 29 30  1  0  0  0  0
 29 31  1  0  0  0  0
M  CHG  1  23   1
M  END
$$$$
default_name
  -OEChem-02102213163D

 34 33  0     1  0  0  0  0  0999 V2000
   -3.8899   -3.6747    1.6490 H   0  0  0  0  0  0  0  0  0  0  0  0
   -3.9109   -2.6717    1.2250 C   0  0  0  0  0  0  0  0  0  0  0  0
   -4.6009   -2.0517    1.7950 H   0  0  0  0  0  0  0  0  0  0  0  0
   -4.2309   -2.7237    0.1860 H   0  0  0  0  0  0  0  0  0  0  0  0
   -2.5229   -2.0787    1.2980 C   0  0  0  0  0  0  0  0  0  0  0  0
   -1.5999   -2.7227    1.7810 O   0  0  0  0  0  0  0  0  0  0  0  0
   -2.3659   -0.8447    0.8120 N   0  0  0  0  0  0  0  0  0  0  0  0
   -3.1749   -0.3807    0.4220 H   0  0  0  0  0  0  0  0  0  0  0  0
   -1.0919   -0.1077    0.8170 C   0  0  1  0  0  0  0  0  0  0  0  0
   -0.4136   -0.6011    1.5155 H   0  0  0  0  0  0  0  0  0  0  0  0
   -0.4834   -0.1723   -0.5965 C   0  0  0  0  0  0  0  0  0  0  0  0
   -1.2571   -0.4979   -1.2935 H   0  0  0  0  0  0  0  0  0  0  0  0
   -0.1572    0.8266   -0.8927 H   0  0  0  0  0  0  0  0  0  0  0  0
    0.7020   -1.1439   -0.7027 C   0  0  0  0  0  0  0  0  0  0  0  0
    1.6356   -0.5812   -0.7455 H   0  0  0  0  0  0  0  0  0  0  0  0
    0.7160   -1.7913    0.1763 H   0  0  0  0  0  0  0  0  0  0  0  0
    0.5753   -2.0057   -1.9665 C   0  0  0  0  0  0  0  0  0  0  0  0
   -0.3676   -2.5566   -1.9276 H   0  0  0  0  0  0  0  0  0  0  0  0
    0.5711   -1.3544   -2.8427 H   0  0  0  0  0  0  0  0  0  0  0  0
    1.7450   -2.9933   -2.0609 C   0  0  0  0  0  0  0  0  0  0  0  0
    2.6791   -2.4230   -2.0908 H   0  0  0  0  0  0  0  0  0  0  0  0
    1.7559   -3.6069   -1.1550 H   0  0  0  0  0  0  0  0  0  0  0  0
    1.6345   -3.8570   -3.2635 N   0  3  0  0  0  0  0  0  0  0  0  0
    1.6345   -3.2954   -4.1057 H   0  0  0  0  0  0  0  0  0  0  0  0
    2.4130   -4.5026   -3.3109 H   0  0  0  0  0  0  0  0  0  0  0  0
    0.7755   -4.3938   -3.2362 H   0  0  0  0  0  0  0  0  0  0  0  0
   -1.3103    1.3348    1.2791 C   0  0  0  0  0  0  0  0  0  0  0  0
   -2.2333    1.9891    0.8084 O   0  0  0  0  0  0  0  0  0  0  0  0
   -0.4429    1.8293    2.1683 N   0  0  0  0  0  0  0  0  0  0  0  0
    0.2668    1.2118    2.5263 H   0  0  0  0  0  0  0  0  0  0  0  0
   -0.5118    3.1863    2.7135 C   0  0  0  0  0  0  0  0  0  0  0  0
   -1.4470    3.3159    3.2625 H   0  0  0  0  0  0  0  0  0  0  0  0
    0.3243    3.3682    3.3896 H   0  0  0  0  0  0  0  0  0  0  0  0
   -0.4850    3.9172    1.9023 H   0  0  0  0  0  0  0  0  0  0  0  0
  5  6  2  0  0  0  0
  5  7  1  0  0  0  0
  2  3  1  0  0  0  0
  2  4  1  0  0  0  0
  2  5  1  0  0  0  0
  1  2  1  0  0  0  0
 27 28  2  0  0  0  0
 27 29  1  0  0  0  0
 23 24  1  0  0  0  0
 23 25  1  0  0  0  0
 23 26  1  0  0  0  0
 20 21  1  0  0  0  0
 20 22  1  0  0  0  0
 20 23  1  0  0  0  0
 17 18  1  0  0  0  0
 17 19  1  0  0  0  0
 17 20  1  0  0  0  0
 14 15  1  0  0  0  0
 14 16  1  0  0  0  0
 14 17  1  0  0  0  0
 11 12  1  0  0  0  0
 11 13  1  0  0  0  0
 11 14  1  0  0  0  0
  9 10  1  0  0  0  0
  9 11  1  0  0  0  0
  9 27  1  0  0  0  0
  7  8  1  0  0  0  0
  7  9  1  0  0  0  0
 31 32  1  0  0  0  0
 31 33  1  0  0  0  0
 31 34  1  0  0  0  0
 29 30  1  0  0  0  0
 29 31  1  0  0  0  0
M  CHG  1  23   1
M  END
$$$$
default_name
  -OEChem-02102213163D

 34 33  0     1  0  0  0  0  0999 V2000
   -3.8899   -3.6747    1.6490 H   0  0  0  0  0  0  0  0  0  0  0  0
   -3.9109   -2.6717    1.2250 C   0  0  0  0  0  0  0  0  0  0  0  0
   -4.6009   -2.0517    1.7950 H   0  0  0  0  0  0  0  0  0  0  0  0
   -4.2309   -2.7237    0.1860 H   0  0  0  0  0  0  0  0  0  0  0  0
   -2.5229   -2.0787    1.2980 C   0  0  0  0  0  0  0  0  0  0  0  0
   -1.5999   -2.7227    1.7810 O   0  0  0  0  0  0  0  0  0  0  0  0
   -2.3659   -0.8447    0.8120 N   0  0  0  0  0  0  0  0  0  0  0  0
   -3.1749   -0.3807    0.4220 H   0  0  0  0  0  0  0  0  0  0  0  0
   -1.0919   -0.1077    0.8170 C   0  0  1  0  0  0  0  0  0  0  0  0
   -0.4136   -0.6011    1.5155 H   0  0  0  0  0  0  0  0  0  0  0  0
   -0.4834   -0.1723   -0.5965 C   0  0  0  0  0  0  0  0  0  0  0  0
   -1.2571   -0.4979   -1.2935 H   0  0  0  0  0  0  0  0  0  0  0  0
   -0.1572    0.8266   -0.8927 H   0  0  0  0  0  0  0  0  0  0  0  0
    0.7020   -1.1439   -0.7027 C   0  0  0  0  0  0  0  0  0  0  0  0
    1.6305   -0.6165   -0.4797 H   0  0  0  0  0  0  0  0  0  0  0  0
    0.5696   -1.9527    0.0185 H   0  0  0  0  0  0  0  0  0  0  0  0
    0.7851   -1.7333   -2.1175 C   0  0  0  0  0  0  0  0  0  0  0  0
   -0.1519   -2.2480   -2.3434 H   0  0  0  0  0  0  0  0  0  0  0  0
    0.9268   -0.9214   -2.8337 H   0  0  0  0  0  0  0  0  0  0  0  0
    1.9531   -2.7223   -2.2181 C   0  0  0  0  0  0  0  0  0  0  0  0
    2.8800   -2.1899   -1.9811 H   0  0  0  0  0  0  0  0  0  0  0  0
    1.8132   -3.5033   -1.4646 H   0  0  0  0  0  0  0  0  0  0  0  0
    2.0420   -3.3262   -3.5716 N   0  3  0  0  0  0  0  0  0  0  0  0
    2.1821   -2.6091   -4.2723 H   0  0  0  0  0  0  0  0  0  0  0  0
    2.8168   -3.9760   -3.6212 H   0  0  0  0  0  0  0  0  0  0  0  0
    1.1896   -3.8277   -3.7923 H   0  0  0  0  0  0  0  0  0  0  0  0
   -1.3103    1.3348    1.2791 C   0  0  0  0  0  0  0  0  0  0  0  0
   -2.2333    1.9891    0.8084 O   0  0  0  0  0  0  0  0  0  0  0  0
   -0.4429    1.8293    2.1683 N   0  0  0  0  0  0  0  0  0  0  0  0
    0.2668    1.2118    2.5263 H   0  0  0  0  0  0  0  0  0  0  0  0
   -0.5118    3.1863    2.7135 C   0  0  0  0  0  0  0  0  0  0  0  0
   -1.4470    3.3159    3.2625 H   0  0  0  0  0  0  0  0  0  0  0  0
    0.3243    3.3682    3.3896 H   0  0  0  0  0  0  0  0  0  0  0  0
   -0.4850    3.9172    1.9023 H   0  0  0  0  0  0  0  0  0  0  0  0
  5  6  2  0  0  0  0
  5  7  1  0  0  0  0
  2  3  1  0  0  0  0
  2  4  1  0  0  0  0
  2  5  1  0  0  0  0
  1  2  1  0  0  0  0
 27 28  2  0  0  0  0
 27 29  1  0  0  0  0
 23 24  1  0  0  0  0
 23 25  1  0  0  0  0
 23 26  1  0  0  0  0
 20 21  1  0  0  0  0
 20 22  1  0  0  0  0
 20 23  1  0  0  0  0
 17 18  1  0  0  0  0
 17 19  1  0  0  0  0
 17 20  1  0  0  0  0
 14 15  1  0  0  0  0
 14 16  1  0  0  0  0
 14 17  1  0  0  0  0
 11 12  1  0  0  0  0
 11 13  1  0  0  0  0
 11 14  1  0  0  0  0
  9 10  1  0  0  0  0
  9 11  1  0  0  0  0
  9 27  1  0  0  0  0
  7  8  1  0  0  0  0
  7  9  1  0  0  0  0
 31 32  1  0  0  0  0
 31 33  1  0  0  0  0
 31 34  1  0  0  0  0
 29 30  1  0  0  0  0
 29 31  1  0  0  0  0
M  CHG  1  23   1
M  END
$$$$
default_name
  -OEChem-02102213163D

 34 33  0     1  0  0  0  0  0999 V2000
   -3.8899   -3.6747    1.6490 H   0  0  0  0  0  0  0  0  0  0  0  0
   -3.9109   -2.6717    1.2250 C   0  0  0  0  0  0  0  0  0  0  0  0
   -4.6009   -2.0517    1.7950 H   0  0  0  0  0  0  0  0  0  0  0  0
   -4.2309   -2.7237    0.1860 H   0  0  0  0  0  0  0  0  0  0  0  0
   -2.5229   -2.0787    1.2980 C   0  0  0  0  0  0  0  0  0  0  0  0
   -1.5999   -2.7227    1.7810 O   0  0  0  0  0  0  0  0  0  0  0  0
   -2.3659   -0.8447    0.8120 N   0  0  0  0  0  0  0  0  0  0  0  0
   -3.1749   -0.3807    0.4220 H   0  0  0  0  0  0  0  0  0  0  0  0
   -1.0919   -0.1077    0.8170 C   0  0  1  0  0  0  0  0  0  0  0  0
   -0.4136   -0.6011    1.5155 H   0  0  0  0  0  0  0  0  0  0  0  0
   -0.4834   -0.1723   -0.5965 C   0  0  0  0  0  0  0  0  0  0  0  0
   -1.2571   -0.4979   -1.2935 H   0  0  0  0  0  0  0  0  0  0  0  0
   -0.1572    0.8266   -0.8927 H   0  0  0  0  0  0  0  0  0  0  0  0
    0.7020   -1.1439   -0.7027 C   0  0  0  0  0  0  0  0  0  0  0  0
    1.5815   -0.7035   -0.2309 H   0  0  0  0  0  0  0  0  0  0  0  0
    0.4510   -2.0746   -0.1901 H   0  0  0  0  0  0  0  0  0  0  0  0
    1.0173   -1.4436   -2.1747 C   0  0  0  0  0  0  0  0  0  0  0  0
    0.1300   -1.8707   -2.6481 H   0  0  0  0  0  0  0  0  0  0  0  0
    1.2766   -0.5113   -2.6803 H   0  0  0  0  0  0  0  0  0  0  0  0
    2.1846   -2.4328   -2.2818 C   0  0  0  0  0  0  0  0  0  0  0  0
    3.0602   -1.9903   -1.7957 H   0  0  0  0  0  0  0  0  0  0  0  0
    1.9209   -3.3424   -1.7336 H   0  0  0  0  0  0  0  0  0  0  0  0
    2.4956   -2.7592   -3.6964 N   0  3  0  0  0  0  0  0  0  0  0  0
    2.7506   -1.9227   -4.2064 H   0  0  0  0  0  0  0  0  0  0  0  0
    3.2670   -3.4126   -3.7497 H   0  0  0  0  0  0  0  0  0  0  0  0
    1.6908   -3.1773   -4.1485 H   0  0  0  0  0  0  0  0  0  0  0  0
   -1.3103    1.3348    1.2791 C   0  0  0  0  0  0  0  0  0  0  0  0
   -2.2333    1.9891    0.8084 O   0  0  0  0  0  0  0  0  0  0  0  0
   -0.4429    1.8293    2.1683 N   0  0  0  0  0  0  0  0  0  0  0  0
    0.2668    1.2118    2.5263 H   0  0  0  0  0  0  0  0  0  0  0  0
   -0.5118    3.1863    2.7135 C   0  0  0  0  0  0  0  0  0  0  0  0
   -1.4470    3.3159    3.2625 H   0  0  0  0  0  0  0  0  0  0  0  0
    0.3243    3.3682    3.3896 H   0  0  0  0  0  0  0  0  0  0  0  0
   -0.4850    3.9172    1.9023 H   0  0  0  0  0  0  0  0  0  0  0  0
  5  6  2  0  0  0  0
  5  7  1  0  0  0  0
  2  3  1  0  0  0  0
  2  4  1  0  0  0  0
  2  5  1  0  0  0  0
  1  2  1  0  0  0  0
 27 28  2  0  0  0  0
 27 29  1  0  0  0  0
 23 24  1  0  0  0  0
 23 25  1  0  0  0  0
 23 26  1  0  0  0  0
 20 21  1  0  0  0  0
 20 22  1  0  0  0  0
 20 23  1  0  0  0  0
 17 18  1  0  0  0  0
 17 19  1  0  0  0  0
 17 20  1  0  0  0  0
 14 15  1  0  0  0  0
 14 16  1  0  0  0  0
 14 17  1  0  0  0  0
 11 12  1  0  0  0  0
 11 13  1  0  0  0  0
 11 14  1  0  0  0  0
  9 10  1  0  0  0  0
  9 11  1  0  0  0  0
  9 27  1  0  0  0  0
  7  8  1  0  0  0  0
  7  9  1  0  0  0  0
 31 32  1  0  0  0  0
 31 33  1  0  0  0  0
 31 34  1  0  0  0  0
 29 30  1  0  0  0  0
 29 31  1  0  0  0  0
M  CHG  1  23   1
M  END
$$$$
default_name
  -OEChem-02102213163D

 34 33  0     1  0  0  0  0  0999 V2000
   -3.8899   -3.6747    1.6490 H   0  0  0  0  0  0  0  0  0  0  0  0
   -3.9109   -2.6717    1.2250 C   0  0  0  0  0  0  0  0  0  0  0  0
   -4.6009   -2.0517    1.7950 H   0  0  0  0  0  0  0  0  0  0  0  0
   -4.2309   -2.7237    0.1860 H   0  0  0  0  0  0  0  0  0  0  0  0
   -2.5229   -2.0787    1.2980 C   0  0  0  0  0  0  0  0  0  0  0  0
   -1.5999   -2.7227    1.7810 O   0  0  0  0  0  0  0  0  0  0  0  0
   -2.3659   -0.8447    0.8120 N   0  0  0  0  0  0  0  0  0  0  0  0
   -3.1749   -0.3807    0.4220 H   0  0  0  0  0  0  0  0  0  0  0  0
   -1.0919   -0.1077    0.8170 C   0  0  1  0  0  0  0  0  0  0  0  0
   -0.4136   -0.6011    1.5155 H   0  0  0  0  0  0  0  0  0  0  0  0
   -0.4834   -0.1723   -0.5965 C   0  0  0  0  0  0  0  0  0  0  0  0
   -1.2958   -0.2322   -1.3223 H   0  0  0  0  0  0  0  0  0  0  0  0
    0.0770    0.7449   -0.7881 H   0  0  0  0  0  0  0  0  0  0  0  0
    0.4402   -1.3823   -0.8045 C   0  0  0  0  0  0  0  0  0  0  0  0
    1.2642   -1.3426   -0.0908 H   0  0  0  0  0  0  0  0  0  0  0  0
   -0.1280   -2.3003   -0.6422 H   0  0  0  0  0  0  0  0  0  0  0  0
    1.0087   -1.3821   -2.2303 C   0  0  0  0  0  0  0  0  0  0  0  0
    0.1806   -1.4068   -2.9428 H   0  0  0  0  0  0  0  0  0  0  0  0
    1.5835   -0.4667   -2.3843 H   0  0  0  0  0  0  0  0  0  0  0  0
    1.9113   -2.6030   -2.4473 C   0  0  0  0  0  0  0  0  0  0  0  0
    2.7288   -2.5638   -1.7201 H   0  0  0  0  0  0  0  0  0  0  0  0
    1.3277   -3.5067   -2.2471 H   0  0  0  0  0  0  0  0  0  0  0  0
    2.4563   -2.6405   -3.8279 N   0  3  0  0  0  0  0  0  0  0  0  0
    3.0062   -1.8115   -4.0156 H   0  0  0  0  0  0  0  0  0  0  0  0
    3.0489   -3.4514   -3.9548 H   0  0  0  0  0  0  0  0  0  0  0  0
    1.7035   -2.6857   -4.5047 H   0  0  0  0  0  0  0  0  0  0  0  0
   -1.3103    1.3348    1.2791 C   0  0  0  0  0  0  0  0  0  0  0  0
   -2.2333    1.9891    0.8084 O   0  0  0  0  0  0  0  0  0  0  0  0
   -0.4429    1.8293    2.1683 N   0  0  0  0  0  0  0  0  0  0  0  0
    0.2668    1.2118    2.5263 H   0  0  0  0  0  0  0  0  0  0  0  0
   -0.5118    3.1863    2.7135 C   0  0  0  0  0  0  0  0  0  0  0  0
   -1.4470    3.3159    3.2625 H   0  0  0  0  0  0  0  0  0  0  0  0
    0.3243    3.3682    3.3896 H   0  0  0  0  0  0  0  0  0  0  0  0
   -0.4850    3.9172    1.9023 H   0  0  0  0  0  0  0  0  0  0  0  0
  5  6  2  0  0  0  0
  5  7  1  0  0  0  0
  2  3  1  0  0  0  0
  2  4  1  0  0  0  0
  2  5  1  0  0  0  0
  1  2  1  0  0  0  0
 27 28  2  0  0  0  0
 27 29  1  0  0  0  0
 23 24  1  0  0  0  0
 23 25  1  0  0  0  0
 23 26  1  0  0  0  0
 20 21  1  0  0  0  0
 20 22  1  0  0  0  0
 20 23  1  0  0  0  0
 17 18  1  0  0  0  0
 17 19  1  0  0  0  0
 17 20  1  0  0  0  0
 14 15  1  0  0  0  0
 14 16  1  0  0  0  0
 14 17  1  0  0  0  0
 11 12  1  0  0  0  0
 11 13  1  0  0  0  0
 11 14  1  0  0  0  0
  9 10  1  0  0  0  0
  9 11  1  0  0  0  0
  9 27  1  0  0  0  0
  7  8  1  0  0  0  0
  7  9  1  0  0  0  0
 31 32  1  0  0  0  0
 31 33  1  0  0  0  0
 31 34  1  0  0  0  0
 29 30  1  0  0  0  0
 29 31  1  0  0  0  0
M  CHG  1  23   1
M  END
$$$$
default_name
  -OEChem-02102213163D

 34 33  0     1  0  0  0  0  0999 V2000
   -3.8899   -3.6747    1.6490 H   0  0  0  0  0  0  0  0  0  0  0  0
   -3.9109   -2.6717    1.2250 C   0  0  0  0  0  0  0  0  0  0  0  0
   -4.6009   -2.0517    1.7950 H   0  0  0  0  0  0  0  0  0  0  0  0
   -4.2309   -2.7237    0.1860 H   0  0  0  0  0  0  0  0  0  0  0  0
   -2.5229   -2.0787    1.2980 C   0  0  0  0  0  0  0  0  0  0  0  0
   -1.5999   -2.7227    1.7810 O   0  0  0  0  0  0  0  0  0  0  0  0
   -2.3659   -0.8447    0.8120 N   0  0  0  0  0  0  0  0  0  0  0  0
   -3.1749   -0.3807    0.4220 H   0  0  0  0  0  0  0  0  0  0  0  0
   -1.0919   -0.1077    0.8170 C   0  0  1  0  0  0  0  0  0  0  0  0
   -0.4136   -0.6011    1.5155 H   0  0  0  0  0  0  0  0  0  0  0  0
   -0.4834   -0.1723   -0.5965 C   0  0  0  0  0  0  0  0  0  0  0  0
   -1.2958   -0.2322   -1.3223 H   0  0  0  0  0  0  0  0  0  0  0  0
    0.0770    0.7449   -0.7881 H   0  0  0  0  0  0  0  0  0  0  0  0
    0.4402   -1.3823   -0.8045 C   0  0  0  0  0  0  0  0  0  0  0  0
    1.0996   -1.4937    0.0573 H   0  0  0  0  0  0  0  0  0  0  0  0
   -0.1665   -2.2840   -0.9080 H   0  0  0  0  0  0  0  0  0  0  0  0
    1.2909   -1.1945   -2.0683 C   0  0  0  0  0  0  0  0  0  0  0  0
    0.6276   -1.0683   -2.9273 H   0  0  0  0  0  0  0  0  0  0  0  0
    1.9023   -0.2970   -1.9558 H   0  0  0  0  0  0  0  0  0  0  0  0
    2.1956   -2.4129   -2.2909 C   0  0  0  0  0  0  0  0  0  0  0  0
    2.8459   -2.5265   -1.4174 H   0  0  0  0  0  0  0  0  0  0  0  0
    1.5663   -3.3055   -2.3586 H   0  0  0  0  0  0  0  0  0  0  0  0
    3.0134   -2.2680   -3.5217 N   0  3  0  0  0  0  0  0  0  0  0  0
    3.6057   -1.4493   -3.4606 H   0  0  0  0  0  0  0  0  0  0  0  0
    3.6039   -3.0795   -3.6543 H   0  0  0  0  0  0  0  0  0  0  0  0
    2.4159   -2.1712   -4.3344 H   0  0  0  0  0  0  0  0  0  0  0  0
   -1.3103    1.3348    1.2791 C   0  0  0  0  0  0  0  0  0  0  0  0
   -2.2333    1.9891    0.8084 O   0  0  0  0  0  0  0  0  0  0  0  0
   -0.4429    1.8293    2.1683 N   0  0  0  0  0  0  0  0  0  0  0  0
    0.2668    1.2118    2.5263 H   0  0  0  0  0  0  0  0  0  0  0  0
   -0.5118    3.1863    2.7135 C   0  0  0  0  0  0  0  0  0  0  0  0
   -1.4470    3.3159    3.2625 H   0  0  0  0  0  0  0  0  0  0  0  0
    0.3243    3.3682    3.3896 H   0  0  0  0  0  0  0  0  0  0  0  0
   -0.4850    3.9172    1.9023 H   0  0  0  0  0  0  0  0  0  0  0  0
  5  6  2  0  0  0  0
  5  7  1  0  0  0  0
  2  3  1  0  0  0  0
  2  4  1  0  0  0  0
  2  5  1  0  0  0  0
  1  2  1  0  0  0  0
 27 28  2  0  0  0  0
 27 29  1  0  0  0  0
 23 24  1  0  0  0  0
 23 25  1  0  0  0  0
 23 26  1  0  0  0  0
 20 21  1  0  0  0  0
 20 22  1  0  0  0  0
 20 23  1  0  0  0  0
 17 18  1  0  0  0  0
 17 19  1  0  0  0  0
 17 20  1  0  0  0  0
 14 15  1  0  0  0  0
 14 16  1  0  0  0  0
 14 17  1  0  0  0  0
 11 12  1  0  0  0  0
 11 13  1  0  0  0  0
 11 14  1  0  0  0  0
  9 10  1  0  0  0  0
  9 11  1  0  0  0  0
  9 27  1  0  0  0  0
  7  8  1  0  0  0  0
  7  9  1  0  0  0  0
 31 32  1  0  0  0  0
 31 33  1  0  0  0  0
 31 34  1  0  0  0  0
 29 30  1  0  0  0  0
 29 31  1  0  0  0  0
M  CHG  1  23   1
M  END
$$$$
default_name
  -OEChem-02102213163D

 34 33  0     1  0  0  0  0  0999 V2000
   -3.8899   -3.6747    1.6490 H   0  0  0  0  0  0  0  0  0  0  0  0
   -3.9109   -2.6717    1.2250 C   0  0  0  0  0  0  0  0  0  0  0  0
   -4.6009   -2.0517    1.7950 H   0  0  0  0  0  0  0  0  0  0  0  0
   -4.2309   -2.7237    0.1860 H   0  0  0  0  0  0  0  0  0  0  0  0
   -2.5229   -2.0787    1.2980 C   0  0  0  0  0  0  0  0  0  0  0  0
   -1.5999   -2.7227    1.7810 O   0  0  0  0  0  0  0  0  0  0  0  0
   -2.3659   -0.8447    0.8120 N   0  0  0  0  0  0  0  0  0  0  0  0
   -3.1749   -0.3807    0.4220 H   0  0  0  0  0  0  0  0  0  0  0  0
   -1.0919   -0.1077    0.8170 C   0  0  1  0  0  0  0  0  0  0  0  0
   -0.4136   -0.6011    1.5155 H   0  0  0  0  0  0  0  0  0  0  0  0
   -0.4834   -0.1723   -0.5965 C   0  0  0  0  0  0  0  0  0  0  0  0
   -1.2958   -0.2322   -1.3223 H   0  0  0  0  0  0  0  0  0  0  0  0
    0.0770    0.7449   -0.7881 H   0  0  0  0  0  0  0  0  0  0  0  0
    0.4402   -1.3823   -0.8045 C   0  0  0  0  0  0  0  0  0  0  0  0
    0.9050   -1.6570    0.1433 H   0  0  0  0  0  0  0  0  0  0  0  0
   -0.1490   -2.2256   -1.1701 H   0  0  0  0  0  0  0  0  0  0  0  0
    1.5370   -1.0484   -1.8251 C   0  0  0  0  0  0  0  0  0  0  0  0
    1.0681   -0.7594   -2.7686 H   0  0  0  0  0  0  0  0  0  0  0  0
    2.1289   -0.2109   -1.4505 H   0  0  0  0  0  0  0  0  0  0  0  0
    2.4450   -2.2635   -2.0523 C   0  0  0  0  0  0  0  0  0  0  0  0
    2.8985   -2.5417   -1.0954 H   0  0  0  0  0  0  0  0  0  0  0  0
    1.8266   -3.1020   -2.3864 H   0  0  0  0  0  0  0  0  0  0  0  0
    3.5020   -1.9753   -3.0544 N   0  3  0  0  0  0  0  0  0  0  0  0
    4.0843   -1.2068   -2.7459 H   0  0  0  0  0  0  0  0  0  0  0  0
    4.0918   -2.7864   -3.1931 H   0  0  0  0  0  0  0  0  0  0  0  0
    3.0873   -1.7258   -3.9447 H   0  0  0  0  0  0  0  0  0  0  0  0
   -1.3103    1.3348    1.2791 C   0  0  0  0  0  0  0  0  0  0  0  0
   -2.2333    1.9891    0.8084 O   0  0  0  0  0  0  0  0  0  0  0  0
   -0.4429    1.8293    2.1683 N   0  0  0  0  0  0  0  0  0  0  0  0
    0.2668    1.2118    2.5263 H   0  0  0  0  0  0  0  0  0  0  0  0
   -0.5118    3.1863    2.7135 C   0  0  0  0  0  0  0  0  0  0  0  0
   -1.4470    3.3159    3.2625 H   0  0  0  0  0  0  0  0  0  0  0  0
    0.3243    3.3682    3.3896 H   0  0  0  0  0  0  0  0  0  0  0  0
   -0.4850    3.9172    1.9023 H   0  0  0  0  0  0  0  0  0  0  0  0
  5  6  2  0  0  0  0
  5  7  1  0  0  0  0
  2  3  1  0  0  0  0
  2  4  1  0  0  0  0
  2  5  1  0  0  0  0
  1  2  1  0  0  0  0
 27 28  2  0  0  0  0
 27 29  1  0  0  0  0
 23 24  1  0  0  0  0
 23 25  1  0  0  0  0
 23 26  1  0  0  0  0
 20 21  1  0  0  0  0
 20 22  1  0  0  0  0
 20 23  1  0  0  0  0
 17 18  1  0  0  0  0
 17 19  1  0  0  0  0
 17 20  1  0  0  0  0
 14 15  1  0  0  0  0
 14 16  1  0  0  0  0
 14 17  1  0  0  0  0
 11 12  1  0  0  0  0
 11 13  1  0  0  0  0
 11 14  1  0  0  0  0
  9 10  1  0  0  0  0
  9 11  1  0  0  0  0
  9 27  1  0  0  0  0
  7  8  1  0  0  0  0
  7  9  1  0  0  0  0
 31 32  1  0  0  0  0
 31 33  1  0  0  0  0
 31 34  1  0  0  0  0
 29 30  1  0  0  0  0
 29 31  1  0  0  0  0
M  CHG  1  23   1
M  END
$$$$
default_name
  -OEChem-02102213163D

 34 33  0     1  0  0  0  0  0999 V2000
   -3.8899   -3.6747    1.6490 H   0  0  0  0  0  0  0  0  0  0  0  0
   -3.9109   -2.6717    1.2250 C   0  0  0  0  0  0  0  0  0  0  0  0
   -4.6009   -2.0517    1.7950 H   0  0  0  0  0  0  0  0  0  0  0  0
   -4.2309   -2.7237    0.1860 H   0  0  0  0  0  0  0  0  0  0  0  0
   -2.5229   -2.0787    1.2980 C   0  0  0  0  0  0  0  0  0  0  0  0
   -1.5999   -2.7227    1.7810 O   0  0  0  0  0  0  0  0  0  0  0  0
   -2.3659   -0.8447    0.8120 N   0  0  0  0  0  0  0  0  0  0  0  0
   -3.1749   -0.3807    0.4220 H   0  0  0  0  0  0  0  0  0  0  0  0
   -1.0919   -0.1077    0.8170 C   0  0  1  0  0  0  0  0  0  0  0  0
   -0.4136   -0.6011    1.5155 H   0  0  0  0  0  0  0  0  0  0  0  0
   -0.4834   -0.1723   -0.5965 C   0  0  0  0  0  0  0  0  0  0  0  0
   -1.2958   -0.2322   -1.3223 H   0  0  0  0  0  0  0  0  0  0  0  0
    0.0770    0.7449   -0.7881 H   0  0  0  0  0  0  0  0  0  0  0  0
    0.4402   -1.3823   -0.8045 C   0  0  0  0  0  0  0  0  0  0  0  0
    0.6939   -1.8212    0.1614 H   0  0  0  0  0  0  0  0  0  0  0  0
   -0.0766   -2.1290   -1.4106 H   0  0  0  0  0  0  0  0  0  0  0  0
    1.7304   -0.9538   -1.5172 C   0  0  0  0  0  0  0  0  0  0  0  0
    1.4720   -0.5011   -2.4775 H   0  0  0  0  0  0  0  0  0  0  0  0
    2.2478   -0.2143   -0.9028 H   0  0  0  0  0  0  0  0  0  0  0  0
    2.6426   -2.1651   -1.7478 C   0  0  0  0  0  0  0  0  0  0  0  0
    2.8832   -2.6083   -0.7760 H   0  0  0  0  0  0  0  0  0  0  0  0
    2.0907   -2.9104   -2.3286 H   0  0  0  0  0  0  0  0  0  0  0  0
    3.8891   -1.7824   -2.4580 N   0  3  0  0  0  0  0  0  0  0  0  0
    4.4095   -1.1006   -1.9203 H   0  0  0  0  0  0  0  0  0  0  0  0
    4.4793   -2.5922   -2.6025 H   0  0  0  0  0  0  0  0  0  0  0  0
    3.6721   -1.3796   -3.3621 H   0  0  0  0  0  0  0  0  0  0  0  0
   -1.3103    1.3348    1.2791 C   0  0  0  0  0  0  0  0  0  0  0  0
   -2.2333    1.9891    0.8084 O   0  0  0  0  0  0  0  0  0  0  0  0
   -0.4429    1.8293    2.1683 N   0  0  0  0  0  0  0  0  0  0  0  0
    0.2668    1.2118    2.5263 H   0  0  0  0  0  0  0  0  0  0  0  0
   -0.5118    3.1863    2.7135 C   0  0  0  0  0  0  0  0  0  0  0  0
   -1.4470    3.3159    3.2625 H   0  0  0  0  0  0  0  0  0  0  0  0
    0.3243    3.3682    3.3896 H   0  0  0  0  0  0  0  0  0  0  0  0
   -0.4850    3.9172    1.9023 H   0  0  0  0  0  0  0  0  0  0  0  0
  5  6  2  0  0  0  0
  5  7  1  0  0  0  0
  2  3  1  0  0  0  0
  2  4  1  0  0  0  0
  2  5  1  0  0  0  0
  1  2  1  0  0  0  0
 27 28  2  0  0  0  0
 27 29  1  0  0  0  0
 23 24  1  0  0  0  0
 23 25  1  0  0  0  0
 23 26  1  0  0  0  0
 20 21  1  0  0  0  0
 20 22  1  0  0  0  0
 20 23  1  0  0  0  0
 17 18  1  0  0  0  0
 17 19  1  0  0  0  0
 17 20  1  0  0  0  0
 14 15  1  0  0  0  0
 14 16  1  0  0  0  0
 14 17  1  0  0  0  0
 11 12  1  0  0  0  0
 11 13  1  0  0  0  0
 11 14  1  0  0  0  0
  9 10  1  0  0  0  0
  9 11  1  0  0  0  0
  9 27  1  0  0  0  0
  7  8  1  0  0  0  0
  7  9  1  0  0  0  0
 31 32  1  0  0  0  0
 31 33  1  0  0  0  0
 31 34  1  0  0  0  0
 29 30  1  0  0  0  0
 29 31  1  0  0  0  0
M  CHG  1  23   1
M  END
$$$$
default_name
  -OEChem-02102213163D

 34 33  0     1  0  0  0  0  0999 V2000
   -3.8899   -3.6747    1.6490 H   0  0  0  0  0  0  0  0  0  0  0  0
   -3.9109   -2.6717    1.2250 C   0  0  0  0  0  0  0  0  0  0  0  0
   -4.6009   -2.0517    1.7950 H   0  0  0  0  0  0  0  0  0  0  0  0
   -4.2309   -2.7237    0.1860 H   0  0  0  0  0  0  0  0  0  0  0  0
   -2.5229   -2.0787    1.2980 C   0  0  0  0  0  0  0  0  0  0  0  0
   -1.5999   -2.7227    1.7810 O   0  0  0  0  0  0  0  0  0  0  0  0
   -2.3659   -0.8447    0.8120 N   0  0  0  0  0  0  0  0  0  0  0  0
   -3.1749   -0.3807    0.4220 H   0  0  0  0  0  0  0  0  0  0  0  0
   -1.0919   -0.1077    0.8170 C   0  0  1  0  0  0  0  0  0  0  0  0
   -0.4136   -0.6011    1.5155 H   0  0  0  0  0  0  0  0  0  0  0  0
   -0.4834   -0.1723   -0.5965 C   0  0  0  0  0  0  0  0  0  0  0  0
   -1.2958   -0.2322   -1.3223 H   0  0  0  0  0  0  0  0  0  0  0  0
    0.0770    0.7449   -0.7881 H   0  0  0  0  0  0  0  0  0  0  0  0
    0.4402   -1.3823   -0.8045 C   0  0  0  0  0  0  0  0  0  0  0  0
    0.4805   -1.9753    0.1102 H   0  0  0  0  0  0  0  0  0  0  0  0
    0.0458   -2.0007   -1.6132 H   0  0  0  0  0  0  0  0  0  0  0  0
    1.8576   -0.9171   -1.1657 C   0  0  0  0  0  0  0  0  0  0  0  0
    1.8119   -0.3111   -2.0738 H   0  0  0  0  0  0  0  0  0  0  0  0
    2.2509   -0.3070   -0.3501 H   0  0  0  0  0  0  0  0  0  0  0  0
    2.7748   -2.1244   -1.3981 C   0  0  0  0  0  0  0  0  0  0  0  0
    2.8010   -2.7218   -0.4809 H   0  0  0  0  0  0  0  0  0  0  0  0
    2.3408   -2.7435   -2.1890 H   0  0  0  0  0  0  0  0  0  0  0  0
    4.1481   -1.7025   -1.7729 N   0  3  0  0  0  0  0  0  0  0  0  0
    4.5590   -1.1378   -1.0400 H   0  0  0  0  0  0  0  0  0  0  0  0
    4.7400   -2.5100   -1.9228 H   0  0  0  0  0  0  0  0  0  0  0  0
    4.1302   -1.1564   -2.6263 H   0  0  0  0  0  0  0  0  0  0  0  0
   -1.3103    1.3348    1.2791 C   0  0  0  0  0  0  0  0  0  0  0  0
   -2.2333    1.9891    0.8084 O   0  0  0  0  0  0  0  0  0  0  0  0
   -0.4429    1.8293    2.1683 N   0  0  0  0  0  0  0  0  0  0  0  0
    0.2668    1.2118    2.5263 H   0  0  0  0  0  0  0  0  0  0  0  0
   -0.5118    3.1863    2.7135 C   0  0  0  0  0  0  0  0  0  0  0  0
   -1.4470    3.3159    3.2625 H   0  0  0  0  0  0  0  0  0  0  0  0
    0.3243    3.3682    3.3896 H   0  0  0  0  0  0  0  0  0  0  0  0
   -0.4850    3.9172    1.9023 H   0  0  0  0  0  0  0  0  0  0  0  0
  5  6  2  0  0  0  0
  5  7  1  0  0  0  0
  2  3  1  0  0  0  0
  2  4  1  0  0  0  0
  2  5  1  0  0  0  0
  1  2  1  0  0  0  0
 27 28  2  0  0  0  0
 27 29  1  0  0  0  0
 23 24  1  0  0  0  0
 23 25  1  0  0  0  0
 23 26  1  0  0  0  0
 20 21  1  0  0  0  0
 20 22  1  0  0  0  0
 20 23  1  0  0  0  0
 17 18  1  0  0  0  0
 17 19  1  0  0  0  0
 17 20  1  0  0  0  0
 14 15  1  0  0  0  0
 14 16  1  0  0  0  0
 14 17  1  0  0  0  0
 11 12  1  0  0  0  0
 11 13  1  0  0  0  0
 11 14  1  0  0  0  0
  9 10  1  0  0  0  0
  9 11  1  0  0  0  0
  9 27  1  0  0  0  0
  7  8  1  0  0  0  0
  7  9  1  0  0  0  0
 31 32  1  0  0  0  0
 31 33  1  0  0  0  0
 31 34  1  0  0  0  0
 29 30  1  0  0  0  0
 29 31  1  0  0  0  0
M  CHG  1  23   1
M  END
$$$$
default_name
  -OEChem-02102213163D

 34 33  0     1  0  0  0  0  0999 V2000
   -3.8899   -3.6747    1.6490 H   0  0  0  0  0  0  0  0  0  0  0  0
   -3.9109   -2.6717    1.2250 C   0  0  0  0  0  0  0  0  0  0  0  0
   -4.6009   -2.0517    1.7950 H   0  0  0  0  0  0  0  0  0  0  0  0
   -4.2309   -2.7237    0.1860 H   0  0  0  0  0  0  0  0  0  0  0  0
   -2.5229   -2.0787    1.2980 C   0  0  0  0  0  0  0  0  0  0  0  0
   -1.5999   -2.7227    1.7810 O   0  0  0  0  0  0  0  0  0  0  0  0
   -2.3659   -0.8447    0.8120 N   0  0  0  0  0  0  0  0  0  0  0  0
   -3.1749   -0.3807    0.4220 H   0  0  0  0  0  0  0  0  0  0  0  0
   -1.0919   -0.1077    0.8170 C   0  0  1  0  0  0  0  0  0  0  0  0
   -0.4136   -0.6011    1.5155 H   0  0  0  0  0  0  0  0  0  0  0  0
   -0.4834   -0.1723   -0.5965 C   0  0  0  0  0  0  0  0  0  0  0  0
   -1.2958   -0.2322   -1.3223 H   0  0  0  0  0  0  0  0  0  0  0  0
    0.0770    0.7449   -0.7881 H   0  0  0  0  0  0  0  0  0  0  0  0
    0.4402   -1.3823   -0.8045 C   0  0  0  0  0  0  0  0  0  0  0  0
    0.2794   -2.1087   -0.0067 H   0  0  0  0  0  0  0  0  0  0  0  0
    0.2098   -1.8497   -1.7639 H   0  0  0  0  0  0  0  0  0  0  0  0
    1.9102   -0.9408   -0.7946 C   0  0  0  0  0  0  0  0  0  0  0  0
    2.0646   -0.2023   -1.5849 H   0  0  0  0  0  0  0  0  0  0  0  0
    2.1379   -0.4826    0.1700 H   0  0  0  0  0  0  0  0  0  0  0  0
    2.8326   -2.1440   -1.0269 C   0  0  0  0  0  0  0  0  0  0  0  0
    2.6574   -2.8745   -0.2303 H   0  0  0  0  0  0  0  0  0  0  0  0
    2.5598   -2.6127   -1.9773 H   0  0  0  0  0  0  0  0  0  0  0  0
    4.2614   -1.7410   -1.0459 N   0  3  0  0  0  0  0  0  0  0  0  0
    4.5226   -1.3160   -0.1650 H   0  0  0  0  0  0  0  0  0  0  0  0
    4.8562   -2.5455   -1.2004 H   0  0  0  0  0  0  0  0  0  0  0  0
    4.4306   -1.0713   -1.7874 H   0  0  0  0  0  0  0  0  0  0  0  0
   -1.3103    1.3348    1.2791 C   0  0  0  0  0  0  0  0  0  0  0  0
   -2.2333    1.9891    0.8084 O   0  0  0  0  0  0  0  0  0  0  0  0
   -0.4429    1.8293    2.1683 N   0  0  0  0  0  0  0  0  0  0  0  0
    0.2668    1.2118    2.5263 H   0  0  0  0  0  0  0  0  0  0  0  0
   -0.5118    3.1863    2.7135 C   0  0  0  0  0  0  0  0  0  0  0  0
   -1.4470    3.3159    3.2625 H   0  0  0  0  0  0  0  0  0  0  0  0
    0.3243    3.3682    3.3896 H   0  0  0  0  0  0  0  0  0  0  0  0
   -0.4850    3.9172    1.9023 H   0  0  0  0  0  0  0  0  0  0  0  0
  5  6  2  0  0  0  0
  5  7  1  0  0  0  0
  2  3  1  0  0  0  0
  2  4  1  0  0  0  0
  2  5  1  0  0  0  0
  1  2  1  0  0  0  0
 27 28  2  0  0  0  0
 27 29  1  0  0  0  0
 23 24  1  0  0  0  0
 23 25  1  0  0  0  0
 23 26  1  0  0  0  0
 20 21  1  0  0  0  0
 20 22  1  0  0  0  0
 20 23  1  0  0  0  0
 17 18  1  0  0  0  0
 17 19  1  0  0  0  0
 17 20  1  0  0  0  0
 14 15  1  0  0  0  0
 14 16  1  0  0  0  0
 14 17  1  0  0  0  0
 11 12  1  0  0  0  0
 11 13  1  0  0  0  0
 11 14  1  0  0  0  0
  9 10  1  0  0  0  0
  9 11  1  0  0  0  0
  9 27  1  0  0  0  0
  7  8  1  0  0  0  0
  7  9  1  0  0  0  0
 31 32  1  0  0  0  0
 31 33  1  0  0  0  0
 31 34  1  0  0  0  0
 29 30  1  0  0  0  0
 29 31  1  0  0  0  0
M  CHG  1  23   1
M  END
$$$$
default_name
  -OEChem-02102213163D

 34 33  0     1  0  0  0  0  0999 V2000
   -3.8899   -3.6747    1.6490 H   0  0  0  0  0  0  0  0  0  0  0  0
   -3.9109   -2.6717    1.2250 C   0  0  0  0  0  0  0  0  0  0  0  0
   -4.6009   -2.0517    1.7950 H   0  0  0  0  0  0  0  0  0  0  0  0
   -4.2309   -2.7237    0.1860 H   0  0  0  0  0  0  0  0  0  0  0  0
   -2.5229   -2.0787    1.2980 C   0  0  0  0  0  0  0  0  0  0  0  0
   -1.5999   -2.7227    1.7810 O   0  0  0  0  0  0  0  0  0  0  0  0
   -2.3659   -0.8447    0.8120 N   0  0  0  0  0  0  0  0  0  0  0  0
   -3.1749   -0.3807    0.4220 H   0  0  0  0  0  0  0  0  0  0  0  0
   -1.0919   -0.1077    0.8170 C   0  0  1  0  0  0  0  0  0  0  0  0
   -0.4136   -0.6011    1.5155 H   0  0  0  0  0  0  0  0  0  0  0  0
   -0.4834   -0.1723   -0.5965 C   0  0  0  0  0  0  0  0  0  0  0  0
   -1.2958   -0.2322   -1.3223 H   0  0  0  0  0  0  0  0  0  0  0  0
    0.0770    0.7449   -0.7881 H   0  0  0  0  0  0  0  0  0  0  0  0
    0.4402   -1.3823   -0.8045 C   0  0  0  0  0  0  0  0  0  0  0  0
    0.1044   -2.2123   -0.1814 H   0  0  0  0  0  0  0  0  0  0  0  0
    0.4042   -1.6861   -1.8525 H   0  0  0  0  0  0  0  0  0  0  0  0
    1.8845   -1.0232   -0.4290 C   0  0  0  0  0  0  0  0  0  0  0  0
    2.2128   -0.1821   -1.0443 H   0  0  0  0  0  0  0  0  0  0  0  0
    1.9166   -0.7292    0.6220 H   0  0  0  0  0  0  0  0  0  0  0  0
    2.8121   -2.2228   -0.6598 C   0  0  0  0  0  0  0  0  0  0  0  0
    2.4623   -3.0559   -0.0413 H   0  0  0  0  0  0  0  0  0  0  0  0
    2.7327   -2.5271   -1.7078 H   0  0  0  0  0  0  0  0  0  0  0  0
    4.2214   -1.8952   -0.3266 N   0  3  0  0  0  0  0  0  0  0  0  0
    4.3029   -1.6229    0.6450 H   0  0  0  0  0  0  0  0  0  0  0  0
    4.8199   -2.6963   -0.4845 H   0  0  0  0  0  0  0  0  0  0  0  0
    4.5528   -1.1302   -0.9027 H   0  0  0  0  0  0  0  0  0  0  0  0
   -1.3103    1.3348    1.2791 C   0  0  0  0  0  0  0  0  0  0  0  0
   -2.2333    1.9891    0.8084 O   0  0  0  0  0  0  0  0  0  0  0  0
   -0.4429    1.8293    2.1683 N   0  0  0  0  0  0  0  0  0  0  0  0
    0.2668    1.2118    2.5263 H   0  0  0  0  0  0  0  0  0  0  0  0
   -0.5118    3.1863    2.7135 C   0  0  0  0  0  0  0  0  0  0  0  0
   -1.4470    3.3159    3.2625 H   0  0  0  0  0  0  0  0  0  0  0  0
    0.3243    3.3682    3.3896 H   0  0  0  0  0  0  0  0  0  0  0  0
   -0.4850    3.9172    1.9023 H   0  0  0  0  0  0  0  0  0  0  0  0
  5  6  2  0  0  0  0
  5  7  1  0  0  0  0
  2  3  1  0  0  0  0
  2  4  1  0  0  0  0
  2  5  1  0  0  0  0
  1  2  1  0  0  0  0
 27 28  2  0  0  0  0
 27 29  1  0  0  0  0
 23 24  1  0  0  0  0
 23 25  1  0  0  0  0
 23 26  1  0  0  0  0
 20 21  1  0  0  0  0
 20 22  1  0  0  0  0
 20 23  1  0  0  0  0
 17 18  1  0  0  0  0
 17 19  1  0  0  0  0
 17 20  1  0  0  0  0
 14 15  1  0  0  0  0
 14 16  1  0  0  0  0
 14 17  1  0  0  0  0
 11 12  1  0  0  0  0
 11 13  1  0  0  0  0
 11 14  1  0  0  0  0
  9 10  1  0  0  0  0
  9 11  1  0  0  0  0
  9 27  1  0  0  0  0
  7  8  1  0  0  0  0
  7  9  1  0  0  0  0
 31 32  1  0  0  0  0
 31 33  1  0  0  0  0
 31 34  1  0  0  0  0
 29 30  1  0  0  0  0
 29 31  1  0  0  0  0
M  CHG  1  23   1
M  END
$$$$
default_name
  -OEChem-02102213163D

 34 33  0     1  0  0  0  0  0999 V2000
   -3.8899   -3.6747    1.6490 H   0  0  0  0  0  0  0  0  0  0  0  0
   -3.9109   -2.6717    1.2250 C   0  0  0  0  0  0  0  0  0  0  0  0
   -4.6009   -2.0517    1.7950 H   0  0  0  0  0  0  0  0  0  0  0  0
   -4.2309   -2.7237    0.1860 H   0  0  0  0  0  0  0  0  0  0  0  0
   -2.5229   -2.0787    1.2980 C   0  0  0  0  0  0  0  0  0  0  0  0
   -1.5999   -2.7227    1.7810 O   0  0  0  0  0  0  0  0  0  0  0  0
   -2.3659   -0.8447    0.8120 N   0  0  0  0  0  0  0  0  0  0  0  0
   -3.1749   -0.3807    0.4220 H   0  0  0  0  0  0  0  0  0  0  0  0
   -1.0919   -0.1077    0.8170 C   0  0  1  0  0  0  0  0  0  0  0  0
   -0.4136   -0.6011    1.5155 H   0  0  0  0  0  0  0  0  0  0  0  0
   -0.4834   -0.1723   -0.5965 C   0  0  0  0  0  0  0  0  0  0  0  0
   -1.2958   -0.2322   -1.3223 H   0  0  0  0  0  0  0  0  0  0  0  0
    0.0770    0.7449   -0.7881 H   0  0  0  0  0  0  0  0  0  0  0  0
    0.4402   -1.3823   -0.8045 C   0  0  0  0  0  0  0  0  0  0  0  0
   -0.0328   -2.2791   -0.4019 H   0  0  0  0  0  0  0  0  0  0  0  0
    0.6157   -1.5210   -1.8731 H   0  0  0  0  0  0  0  0  0  0  0  0
    1.7823   -1.1588   -0.0940 C   0  0  0  0  0  0  0  0  0  0  0  0
    2.2465   -0.2519   -0.4888 H   0  0  0  0  0  0  0  0  0  0  0  0
    1.6021   -1.0300    0.9751 H   0  0  0  0  0  0  0  0  0  0  0  0
    2.7146   -2.3553   -0.3215 C   0  0  0  0  0  0  0  0  0  0  0  0
    2.2290   -3.2537    0.0733 H   0  0  0  0  0  0  0  0  0  0  0  0
    2.8478   -2.4923   -1.3989 H   0  0  0  0  0  0  0  0  0  0  0  0
    4.0307   -2.1547    0.3360 N   0  3  0  0  0  0  0  0  0  0  0  0
    3.9148   -2.0377    1.3349 H   0  0  0  0  0  0  0  0  0  0  0  0
    4.6336   -2.9521    0.1762 H   0  0  0  0  0  0  0  0  0  0  0  0
    4.4883   -1.3290   -0.0324 H   0  0  0  0  0  0  0  0  0  0  0  0
   -1.3103    1.3348    1.2791 C   0  0  0  0  0  0  0  0  0  0  0  0
   -2.2333    1.9891    0.8084 O   0  0  0  0  0  0  0  0  0  0  0  0
   -0.4429    1.8293    2.1683 N   0  0  0  0  0  0  0  0  0  0  0  0
    0.2668    1.2118    2.5263 H   0  0  0  0  0  0  0  0  0  0  0  0
   -0.5118    3.1863    2.7135 C   0  0  0  0  0  0  0  0  0  0  0  0
   -1.4470    3.3159    3.2625 H   0  0  0  0  0  0  0  0  0  0  0  0
    0.3243    3.3682    3.3896 H   0  0  0  0  0  0  0  0  0  0  0  0
   -0.4850    3.9172    1.9023 H   0  0  0  0  0  0  0  0  0  0  0  0
  5  6  2  0  0  0  0
  5  7  1  0  0  0  0
  2  3  1  0  0  0  0
  2  4  1  0  0  0  0
  2  5  1  0  0  0  0
  1  2  1  0  0  0  0
 27 28  2  0  0  0  0
 27 29  1  0  0  0  0
 23 24  1  0  0  0  0
 23 25  1  0  0  0  0
 23 26  1  0  0  0  0
 20 21  1  0  0  0  0
 20 22  1  0  0  0  0
 20 23  1  0  0  0  0
 17 18  1  0  0  0  0
 17 19  1  0  0  0  0
 17 20  1  0  0  0  0
 14 15  1  0  0  0  0
 14 16  1  0  0  0  0
 14 17  1  0  0  0  0
 11 12  1  0  0  0  0
 11 13  1  0  0  0  0
 11 14  1  0  0  0  0
  9 10  1  0  0  0  0
  9 11  1  0  0  0  0
  9 27  1  0  0  0  0
  7  8  1  0  0  0  0
  7  9  1  0  0  0  0
 31 32  1  0  0  0  0
 31 33  1  0  0  0  0
 31 34  1  0  0  0  0
 29 30  1  0  0  0  0
 29 31  1  0  0  0  0
M  CHG  1  23   1
M  END
$$$$
default_name
  -OEChem-02102213163D

 34 33  0     1  0  0  0  0  0999 V2000
   -3.8899   -3.6747    1.6490 H   0  0  0  0  0  0  0  0  0  0  0  0
   -3.9109   -2.6717    1.2250 C   0  0  0  0  0  0  0  0  0  0  0  0
   -4.6009   -2.0517    1.7950 H   0  0  0  0  0  0  0  0  0  0  0  0
   -4.2309   -2.7237    0.1860 H   0  0  0  0  0  0  0  0  0  0  0  0
   -2.5229   -2.0787    1.2980 C   0  0  0  0  0  0  0  0  0  0  0  0
   -1.5999   -2.7227    1.7810 O   0  0  0  0  0  0  0  0  0  0  0  0
   -2.3659   -0.8447    0.8120 N   0  0  0  0  0  0  0  0  0  0  0  0
   -3.1749   -0.3807    0.4220 H   0  0  0  0  0  0  0  0  0  0  0  0
   -1.0919   -0.1077    0.8170 C   0  0  1  0  0  0  0  0  0  0  0  0
   -0.4136   -0.6011    1.5155 H   0  0  0  0  0  0  0  0  0  0  0  0
   -0.4834   -0.1723   -0.5965 C   0  0  0  0  0  0  0  0  0  0  0  0
   -1.2958   -0.2322   -1.3223 H   0  0  0  0  0  0  0  0  0  0  0  0
    0.0770    0.7449   -0.7881 H   0  0  0  0  0  0  0  0  0  0  0  0
    0.4402   -1.3823   -0.8045 C   0  0  0  0  0  0  0  0  0  0  0  0
   -0.1226   -2.3044   -0.6533 H   0  0  0  0  0  0  0  0  0  0  0  0
    0.8301   -1.3659   -1.8241 H   0  0  0  0  0  0  0  0  0  0  0  0
    1.6105   -1.3384    0.1877 C   0  0  0  0  0  0  0  0  0  0  0  0
    2.1633   -0.4069    0.0438 H   0  0  0  0  0  0  0  0  0  0  0  0
    1.2158   -1.3644    1.2053 H   0  0  0  0  0  0  0  0  0  0  0  0
    2.5469   -2.5325   -0.0353 C   0  0  0  0  0  0  0  0  0  0  0  0
    1.9733   -3.4544    0.1056 H   0  0  0  0  0  0  0  0  0  0  0  0
    2.8972   -2.5109   -1.0716 H   0  0  0  0  0  0  0  0  0  0  0  0
    3.7023   -2.5017    0.8968 N   0  3  0  0  0  0  0  0  0  0  0  0
    3.3848   -2.5322    1.8576 H   0  0  0  0  0  0  0  0  0  0  0  0
    4.3101   -3.2954    0.7367 H   0  0  0  0  0  0  0  0  0  0  0  0
    4.2417   -1.6542    0.7642 H   0  0  0  0  0  0  0  0  0  0  0  0
   -1.3103    1.3348    1.2791 C   0  0  0  0  0  0  0  0  0  0  0  0
   -2.2333    1.9891    0.8084 O   0  0  0  0  0  0  0  0  0  0  0  0
   -0.4429    1.8293    2.1683 N   0  0  0  0  0  0  0  0  0  0  0  0
    0.2668    1.2118    2.5263 H   0  0  0  0  0  0  0  0  0  0  0  0
   -0.5118    3.1863    2.7135 C   0  0  0  0  0  0  0  0  0  0  0  0
   -1.4470    3.3159    3.2625 H   0  0  0  0  0  0  0  0  0  0  0  0
    0.3243    3.3682    3.3896 H   0  0  0  0  0  0  0  0  0  0  0  0
   -0.4850    3.9172    1.9023 H   0  0  0  0  0  0  0  0  0  0  0  0
  5  6  2  0  0  0  0
  5  7  1  0  0  0  0
  2  3  1  0  0  0  0
  2  4  1  0  0  0  0
  2  5  1  0  0  0  0
  1  2  1  0  0  0  0
 27 28  2  0  0  0  0
 27 29  1  0  0  0  0
 23 24  1  0  0  0  0
 23 25  1  0  0  0  0
 23 26  1  0  0  0  0
 20 21  1  0  0  0  0
 20 22  1  0  0  0  0
 20 23  1  0  0  0  0
 17 18  1  0  0  0  0
 17 19  1  0  0  0  0
 17 20  1  0  0  0  0
 14 15  1  0  0  0  0
 14 16  1  0  0  0  0
 14 17  1  0  0  0  0
 11 12  1  0  0  0  0
 11 13  1  0  0  0  0
 11 14  1  0  0  0  0
  9 10  1  0  0  0  0
  9 11  1  0  0  0  0
  9 27  1  0  0  0  0
  7  8  1  0  0  0  0
  7  9  1  0  0  0  0
 31 32  1  0  0  0  0
 31 33  1  0  0  0  0
 31 34  1  0  0  0  0
 29 30  1  0  0  0  0
 29 31  1  0  0  0  0
M  CHG  1  23   1
M  END
$$$$
default_name
  -OEChem-02102213163D

 34 33  0     1  0  0  0  0  0999 V2000
   -3.8899   -3.6747    1.6490 H   0  0  0  0  0  0  0  0  0  0  0  0
   -3.9109   -2.6717    1.2250 C   0  0  0  0  0  0  0  0  0  0  0  0
   -4.6009   -2.0517    1.7950 H   0  0  0  0  0  0  0  0  0  0  0  0
   -4.2309   -2.7237    0.1860 H   0  0  0  0  0  0  0  0  0  0  0  0
   -2.5229   -2.0787    1.2980 C   0  0  0  0  0  0  0  0  0  0  0  0
   -1.5999   -2.7227    1.7810 O   0  0  0  0  0  0  0  0  0  0  0  0
   -2.3659   -0.8447    0.8120 N   0  0  0  0  0  0  0  0  0  0  0  0
   -3.1749   -0.3807    0.4220 H   0  0  0  0  0  0  0  0  0  0  0  0
   -1.0919   -0.1077    0.8170 C   0  0  1  0  0  0  0  0  0  0  0  0
   -0.4136   -0.6011    1.5155 H   0  0  0  0  0  0  0  0  0  0  0  0
   -0.4834   -0.1723   -0.5965 C   0  0  0  0  0  0  0  0  0  0  0  0
   -1.2958   -0.2322   -1.3223 H   0  0  0  0  0  0  0  0  0  0  0  0
    0.0770    0.7449   -0.7881 H   0  0  0  0  0  0  0  0  0  0  0  0
    0.4402   -1.3823   -0.8045 C   0  0  0  0  0  0  0  0  0  0  0  0
   -0.1591   -2.2867   -0.9183 H   0  0  0  0  0  0  0  0  0  0  0  0
    1.0326   -1.2311   -1.7090 H   0  0  0  0  0  0  0  0  0  0  0  0
    1.3809   -1.5496    0.3968 C   0  0  0  0  0  0  0  0  0  0  0  0
    1.9690   -0.6366    0.5172 H   0  0  0  0  0  0  0  0  0  0  0  0
    0.7840   -1.7097    1.2969 H   0  0  0  0  0  0  0  0  0  0  0  0
    2.3204   -2.7423    0.1795 C   0  0  0  0  0  0  0  0  0  0  0  0
    1.7127   -3.6443    0.0535 H   0  0  0  0  0  0  0  0  0  0  0  0
    2.8776   -2.5814   -0.7484 H   0  0  0  0  0  0  0  0  0  0  0  0
    3.2586   -2.9127    1.3176 N   0  3  0  0  0  0  0  0  0  0  0  0
    2.7489   -3.0725    2.1775 H   0  0  0  0  0  0  0  0  0  0  0  0
    3.8712   -3.7029    1.1586 H   0  0  0  0  0  0  0  0  0  0  0  0
    3.8297   -2.0836    1.4328 H   0  0  0  0  0  0  0  0  0  0  0  0
   -1.3103    1.3348    1.2791 C   0  0  0  0  0  0  0  0  0  0  0  0
   -2.2333    1.9891    0.8084 O   0  0  0  0  0  0  0  0  0  0  0  0
   -0.4429    1.8293    2.1683 N   0  0  0  0  0  0  0  0  0  0  0  0
    0.2668    1.2118    2.5263 H   0  0  0  0  0  0  0  0  0  0  0  0
   -0.5118    3.1863    2.7135 C   0  0  0  0  0  0  0  0  0  0  0  0
   -1.4470    3.3159    3.2625 H   0  0  0  0  0  0  0  0  0  0  0  0
    0.3243    3.3682    3.3896 H   0  0  0  0  0  0  0  0  0  0  0  0
   -0.4850    3.9172    1.9023 H   0  0  0  0  0  0  0  0  0  0  0  0
  5  6  2  0  0  0  0
  5  7  1  0  0  0  0
  2  3  1  0  0  0  0
  2  4  1  0  0  0  0
  2  5  1  0  0  0  0
  1  2  1  0  0  0  0
 27 28  2  0  0  0  0
 27 29  1  0  0  0  0
 23 24  1  0  0  0  0
 23 25  1  0  0  0  0
 23 26  1  0  0  0  0
 20 21  1  0  0  0  0
 20 22  1  0  0  0  0
 20 23  1  0  0  0  0
 17 18  1  0  0  0  0
 17 19  1  0  0  0  0
 17 20  1  0  0  0  0
 14 15  1  0  0  0  0
 14 16  1  0  0  0  0
 14 17  1  0  0  0  0
 11 12  1  0  0  0  0
 11 13  1  0  0  0  0
 11 14  1  0  0  0  0
  9 10  1  0  0  0  0
  9 11  1  0  0  0  0
  9 27  1  0  0  0  0
  7  8  1  0  0  0  0
  7  9  1  0  0  0  0
 31 32  1  0  0  0  0
 31 33  1  0  0  0  0
 31 34  1  0  0  0  0
 29 30  1  0  0  0  0
 29 31  1  0  0  0  0
M  CHG  1  23   1
M  END
$$$$
default_name
  -OEChem-02102213163D

 34 33  0     1  0  0  0  0  0999 V2000
   -3.8899   -3.6747    1.6490 H   0  0  0  0  0  0  0  0  0  0  0  0
   -3.9109   -2.6717    1.2250 C   0  0  0  0  0  0  0  0  0  0  0  0
   -4.6009   -2.0517    1.7950 H   0  0  0  0  0  0  0  0  0  0  0  0
   -4.2309   -2.7237    0.1860 H   0  0  0  0  0  0  0  0  0  0  0  0
   -2.5229   -2.0787    1.2980 C   0  0  0  0  0  0  0  0  0  0  0  0
   -1.5999   -2.7227    1.7810 O   0  0  0  0  0  0  0  0  0  0  0  0
   -2.3659   -0.8447    0.8120 N   0  0  0  0  0  0  0  0  0  0  0  0
   -3.1749   -0.3807    0.4220 H   0  0  0  0  0  0  0  0  0  0  0  0
   -1.0919   -0.1077    0.8170 C   0  0  1  0  0  0  0  0  0  0  0  0
   -0.4136   -0.6011    1.5155 H   0  0  0  0  0  0  0  0  0  0  0  0
   -0.4834   -0.1723   -0.5965 C   0  0  0  0  0  0  0  0  0  0  0  0
   -1.2958   -0.2322   -1.3223 H   0  0  0  0  0  0  0  0  0  0  0  0
    0.0770    0.7449   -0.7881 H   0  0  0  0  0  0  0  0  0  0  0  0
    0.4402   -1.3823   -0.8045 C   0  0  0  0  0  0  0  0  0  0  0  0
   -0.1396   -2.2270   -1.1790 H   0  0  0  0  0  0  0  0  0  0  0  0
    1.2094   -1.1259   -1.5356 H   0  0  0  0  0  0  0  0  0  0  0  0
    1.1091   -1.7781    0.5191 C   0  0  0  0  0  0  0  0  0  0  0  0
    1.6767   -0.9253    0.8991 H   0  0  0  0  0  0  0  0  0  0  0  0
    0.3362   -2.0424    1.2436 H   0  0  0  0  0  0  0  0  0  0  0  0
    2.0505   -2.9705    0.3081 C   0  0  0  0  0  0  0  0  0  0  0  0
    1.4650   -3.8106   -0.0795 H   0  0  0  0  0  0  0  0  0  0  0  0
    2.7903   -2.6992   -0.4511 H   0  0  0  0  0  0  0  0  0  0  0  0
    2.7299   -3.3596    1.5696 N   0  3  0  0  0  0  0  0  0  0  0  0
    2.0506   -3.6219    2.2729 H   0  0  0  0  0  0  0  0  0  0  0  0
    3.3471   -4.1467    1.4134 H   0  0  0  0  0  0  0  0  0  0  0  0
    3.2804   -2.5880    1.9279 H   0  0  0  0  0  0  0  0  0  0  0  0
   -1.3103    1.3348    1.2791 C   0  0  0  0  0  0  0  0  0  0  0  0
   -2.2333    1.9891    0.8084 O   0  0  0  0  0  0  0  0  0  0  0  0
   -0.4429    1.8293    2.1683 N   0  0  0  0  0  0  0  0  0  0  0  0
    0.2668    1.2118    2.5263 H   0  0  0  0  0  0  0  0  0  0  0  0
   -0.5118    3.1863    2.7135 C   0  0  0  0  0  0  0  0  0  0  0  0
   -1.4470    3.3159    3.2625 H   0  0  0  0  0  0  0  0  0  0  0  0
    0.3243    3.3682    3.3896 H   0  0  0  0  0  0  0  0  0  0  0  0
   -0.4850    3.9172    1.9023 H   0  0  0  0  0  0  0  0  0  0  0  0
  5  6  2  0  0  0  0
  5  7  1  0  0  0  0
  2  3  1  0  0  0  0
  2  4  1  0  0  0  0
  2  5  1  0  0  0  0
  1  2  1  0  0  0  0
 27 28  2  0  0  0  0
 27 29  1  0  0  0  0
 23 24  1  0  0  0  0
 23 25  1  0  0  0  0
 23 26  1  0  0  0  0
 20 21  1  0  0  0  0
 20 22  1  0  0  0  0
 20 23  1  0  0  0  0
 17 18  1  0  0  0  0
 17 19  1  0  0  0  0
 17 20  1  0  0  0  0
 14 15  1  0  0  0  0
 14 16  1  0  0  0  0
 14 17  1  0  0  0  0
 11 12  1  0  0  0  0
 11 13  1  0  0  0  0
 11 14  1  0  0  0  0
  9 10  1  0  0  0  0
  9 11  1  0  0  0  0
  9 27  1  0  0  0  0
  7  8  1  0  0  0  0
  7  9  1  0  0  0  0
 31 32  1  0  0  0  0
 31 33  1  0  0  0  0
 31 34  1  0  0  0  0
 29 30  1  0  0  0  0
 29 31  1  0  0  0  0
M  CHG  1  23   1
M  END
$$$$
default_name
  -OEChem-02102213163D

 34 33  0     1  0  0  0  0  0999 V2000
   -3.8899   -3.6747    1.6490 H   0  0  0  0  0  0  0  0  0  0  0  0
   -3.9109   -2.6717    1.2250 C   0  0  0  0  0  0  0  0  0  0  0  0
   -4.6009   -2.0517    1.7950 H   0  0  0  0  0  0  0  0  0  0  0  0
   -4.2309   -2.7237    0.1860 H   0  0  0  0  0  0  0  0  0  0  0  0
   -2.5229   -2.0787    1.2980 C   0  0  0  0  0  0  0  0  0  0  0  0
   -1.5999   -2.7227    1.7810 O   0  0  0  0  0  0  0  0  0  0  0  0
   -2.3659   -0.8447    0.8120 N   0  0  0  0  0  0  0  0  0  0  0  0
   -3.1749   -0.3807    0.4220 H   0  0  0  0  0  0  0  0  0  0  0  0
   -1.0919   -0.1077    0.8170 C   0  0  1  0  0  0  0  0  0  0  0  0
   -0.4136   -0.6011    1.5155 H   0  0  0  0  0  0  0  0  0  0  0  0
   -0.4834   -0.1723   -0.5965 C   0  0  0  0  0  0  0  0  0  0  0  0
   -1.2958   -0.2322   -1.3223 H   0  0  0  0  0  0  0  0  0  0  0  0
    0.0770    0.7449   -0.7881 H   0  0  0  0  0  0  0  0  0  0  0  0
    0.4402   -1.3823   -0.8045 C   0  0  0  0  0  0  0  0  0  0  0  0
   -0.0656   -2.1295   -1.4175 H   0  0  0  0  0  0  0  0  0  0  0  0
    1.3486   -1.0575   -1.3156 H   0  0  0  0  0  0  0  0  0  0  0  0
    0.8135   -2.0084    0.5463 C   0  0  0  0  0  0  0  0  0  0  0  0
    1.3065   -1.2534    1.1635 H   0  0  0  0  0  0  0  0  0  0  0  0
   -0.0972   -2.3398    1.0491 H   0  0  0  0  0  0  0  0  0  0  0  0
    1.7555   -3.2014    0.3418 C   0  0  0  0  0  0  0  0  0  0  0  0
    1.2469   -3.9418   -0.2843 H   0  0  0  0  0  0  0  0  0  0  0  0
    2.6412   -2.8561   -0.2000 H   0  0  0  0  0  0  0  0  0  0  0  0
    2.1521   -3.8119    1.6358 N   0  3  0  0  0  0  0  0  0  0  0  0
    1.3374   -4.1430    2.1372 H   0  0  0  0  0  0  0  0  0  0  0  0
    2.7733   -4.5968    1.4835 H   0  0  0  0  0  0  0  0  0  0  0  0
    2.6313   -3.1329    2.2156 H   0  0  0  0  0  0  0  0  0  0  0  0
   -1.3103    1.3348    1.2791 C   0  0  0  0  0  0  0  0  0  0  0  0
   -2.2333    1.9891    0.8084 O   0  0  0  0  0  0  0  0  0  0  0  0
   -0.4429    1.8293    2.1683 N   0  0  0  0  0  0  0  0  0  0  0  0
    0.2668    1.2118    2.5263 H   0  0  0  0  0  0  0  0  0  0  0  0
   -0.5118    3.1863    2.7135 C   0  0  0  0  0  0  0  0  0  0  0  0
   -1.4470    3.3159    3.2625 H   0  0  0  0  0  0  0  0  0  0  0  0
    0.3243    3.3682    3.3896 H   0  0  0  0  0  0  0  0  0  0  0  0
   -0.4850    3.9172    1.9023 H   0  0  0  0  0  0  0  0  0  0  0  0
  5  6  2  0  0  0  0
  5  7  1  0  0  0  0
  2  3  1  0  0  0  0
  2  4  1  0  0  0  0
  2  5  1  0  0  0  0
  1  2  1  0  0  0  0
 27 28  2  0  0  0  0
 27 29  1  0  0  0  0
 23 24  1  0  0  0  0
 23 25  1  0  0  0  0
 23 26  1  0  0  0  0
 20 21  1  0  0  0  0
 20 22  1  0  0  0  0
 20 23  1  0  0  0  0
 17 18  1  0  0  0  0
 17 19  1  0  0  0  0
 17 20  1  0  0  0  0
 14 15  1  0  0  0  0
 14 16  1  0  0  0  0
 14 17  1  0  0  0  0
 11 12  1  0  0  0  0
 11 13  1  0  0  0  0
 11 14  1  0  0  0  0
  9 10  1  0  0  0  0
  9 11  1  0  0  0  0
  9 27  1  0  0  0  0
  7  8  1  0  0  0  0
  7  9  1  0  0  0  0
 31 32  1  0  0  0  0
 31 33  1  0  0  0  0
 31 34  1  0  0  0  0
 29 30  1  0  0  0  0
 29 31  1  0  0  0  0
M  CHG  1  23   1
M  END
$$$$
default_name
  -OEChem-02102213163D

 34 33  0     1  0  0  0  0  0999 V2000
   -3.8899   -3.6747    1.6490 H   0  0  0  0  0  0  0  0  0  0  0  0
   -3.9109   -2.6717    1.2250 C   0  0  0  0  0  0  0  0  0  0  0  0
   -4.6009   -2.0517    1.7950 H   0  0  0  0  0  0  0  0  0  0  0  0
   -4.2309   -2.7237    0.1860 H   0  0  0  0  0  0  0  0  0  0  0  0
   -2.5229   -2.0787    1.2980 C   0  0  0  0  0  0  0  0  0  0  0  0
   -1.5999   -2.7227    1.7810 O   0  0  0  0  0  0  0  0  0  0  0  0
   -2.3659   -0.8447    0.8120 N   0  0  0  0  0  0  0  0  0  0  0  0
   -3.1749   -0.3807    0.4220 H   0  0  0  0  0  0  0  0  0  0  0  0
   -1.0919   -0.1077    0.8170 C   0  0  1  0  0  0  0  0  0  0  0  0
   -0.4136   -0.6011    1.5155 H   0  0  0  0  0  0  0  0  0  0  0  0
   -0.4834   -0.1723   -0.5965 C   0  0  0  0  0  0  0  0  0  0  0  0
   -1.2958   -0.2322   -1.3223 H   0  0  0  0  0  0  0  0  0  0  0  0
    0.0770    0.7449   -0.7881 H   0  0  0  0  0  0  0  0  0  0  0  0
    0.4402   -1.3823   -0.8045 C   0  0  0  0  0  0  0  0  0  0  0  0
    0.0579   -2.0008   -1.6177 H   0  0  0  0  0  0  0  0  0  0  0  0
    1.4406   -1.0305   -1.0641 H   0  0  0  0  0  0  0  0  0  0  0  0
    0.5145   -2.2246    0.4765 C   0  0  0  0  0  0  0  0  0  0  0  0
    0.8834   -1.5985    1.2924 H   0  0  0  0  0  0  0  0  0  0  0  0
   -0.4866   -2.5815    0.7266 H   0  0  0  0  0  0  0  0  0  0  0  0
    1.4557   -3.4194    0.2783 C   0  0  0  0  0  0  0  0  0  0  0  0
    1.0735   -4.0290   -0.5470 H   0  0  0  0  0  0  0  0  0  0  0  0
    2.4406   -3.0415   -0.0124 H   0  0  0  0  0  0  0  0  0  0  0  0
    1.5647   -4.2389    1.5115 N   0  3  0  0  0  0  0  0  0  0  0  0
    0.6578   -4.6002    1.7796 H   0  0  0  0  0  0  0  0  0  0  0  0
    2.1890   -5.0222    1.3643 H   0  0  0  0  0  0  0  0  0  0  0  0
    1.9265   -3.6813    2.2764 H   0  0  0  0  0  0  0  0  0  0  0  0
   -1.3103    1.3348    1.2791 C   0  0  0  0  0  0  0  0  0  0  0  0
   -2.2333    1.9891    0.8084 O   0  0  0  0  0  0  0  0  0  0  0  0
   -0.4429    1.8293    2.1683 N   0  0  0  0  0  0  0  0  0  0  0  0
    0.2668    1.2118    2.5263 H   0  0  0  0  0  0  0  0  0  0  0  0
   -0.5118    3.1863    2.7135 C   0  0  0  0  0  0  0  0  0  0  0  0
   -1.4470    3.3159    3.2625 H   0  0  0  0  0  0  0  0  0  0  0  0
    0.3243    3.3682    3.3896 H   0  0  0  0  0  0  0  0  0  0  0  0
   -0.4850    3.9172    1.9023 H   0  0  0  0  0  0  0  0  0  0  0  0
  5  6  2  0  0  0  0
  5  7  1  0  0  0  0
  2  3  1  0  0  0  0
  2  4  1  0  0  0  0
  2  5  1  0  0  0  0
  1  2  1  0  0  0  0
 27 28  2  0  0  0  0
 27 29  1  0  0  0  0
 23 24  1  0  0  0  0
 23 25  1  0  0  0  0
 23 26  1  0  0  0  0
 20 21  1  0  0  0  0
 20 22  1  0  0  0  0
 20 23  1  0  0  0  0
 17 18  1  0  0  0  0
 17 19  1  0  0  0  0
 17 20  1  0  0  0  0
 14 15  1  0  0  0  0
 14 16  1  0  0  0  0
 14 17  1  0  0  0  0
 11 12  1  0  0  0  0
 11 13  1  0  0  0  0
 11 14  1  0  0  0  0
  9 10  1  0  0  0  0
  9 11  1  0  0  0  0
  9 27  1  0  0  0  0
  7  8  1  0  0  0  0
  7  9  1  0  0  0  0
 31 32  1  0  0  0  0
 31 33  1  0  0  0  0
 31 34  1  0  0  0  0
 29 30  1  0  0  0  0
 29 31  1  0  0  0  0
M  CHG  1  23   1
M  END
$$$$
default_name
  -OEChem-02102213163D

 34 33  0     1  0  0  0  0  0999 V2000
   -3.8899   -3.6747    1.6490 H   0  0  0  0  0  0  0  0  0  0  0  0
   -3.9109   -2.6717    1.2250 C   0  0  0  0  0  0  0  0  0  0  0  0
   -4.6009   -2.0517    1.7950 H   0  0  0  0  0  0  0  0  0  0  0  0
   -4.2309   -2.7237    0.1860 H   0  0  0  0  0  0  0  0  0  0  0  0
   -2.5229   -2.0787    1.2980 C   0  0  0  0  0  0  0  0  0  0  0  0
   -1.5999   -2.7227    1.7810 O   0  0  0  0  0  0  0  0  0  0  0  0
   -2.3659   -0.8447    0.8120 N   0  0  0  0  0  0  0  0  0  0  0  0
   -3.1749   -0.3807    0.4220 H   0  0  0  0  0  0  0  0  0  0  0  0
   -1.0919   -0.1077    0.8170 C   0  0  1  0  0  0  0  0  0  0  0  0
   -0.4136   -0.6011    1.5155 H   0  0  0  0  0  0  0  0  0  0  0  0
   -0.4834   -0.1723   -0.5965 C   0  0  0  0  0  0  0  0  0  0  0  0
   -1.2958   -0.2322   -1.3223 H   0  0  0  0  0  0  0  0  0  0  0  0
    0.0770    0.7449   -0.7881 H   0  0  0  0  0  0  0  0  0  0  0  0
    0.4402   -1.3823   -0.8045 C   0  0  0  0  0  0  0  0  0  0  0  0
    0.2226   -1.8497   -1.7658 H   0  0  0  0  0  0  0  0  0  0  0  0
    1.4791   -1.0468   -0.7983 H   0  0  0  0  0  0  0  0  0  0  0  0
    0.2322   -2.4122    0.3145 C   0  0  0  0  0  0  0  0  0  0  0  0
    0.4365   -1.9370    1.2770 H   0  0  0  0  0  0  0  0  0  0  0  0
   -0.8055   -2.7512    0.2981 H   0  0  0  0  0  0  0  0  0  0  0  0
    1.1713   -3.6095    0.1219 C   0  0  0  0  0  0  0  0  0  0  0  0
    0.9565   -4.0663   -0.8497 H   0  0  0  0  0  0  0  0  0  0  0  0
    2.2020   -3.2428    0.0992 H   0  0  0  0  0  0  0  0  0  0  0  0
    1.0077   -4.6114    1.2053 N   0  3  0  0  0  0  0  0  0  0  0  0
    0.0583   -4.9623    1.2246 H   0  0  0  0  0  0  0  0  0  0  0  0
    1.6340   -5.3942    1.0638 H   0  0  0  0  0  0  0  0  0  0  0  0
    1.2141   -4.1958    2.1061 H   0  0  0  0  0  0  0  0  0  0  0  0
   -1.3103    1.3348    1.2791 C   0  0  0  0  0  0  0  0  0  0  0  0
   -2.2333    1.9891    0.8084 O   0  0  0  0  0  0  0  0  0  0  0  0
   -0.4429    1.8293    2.1683 N   0  0  0  0  0  0  0  0  0  0  0  0
    0.2668    1.2118    2.5263 H   0  0  0  0  0  0  0  0  0  0  0  0
   -0.5118    3.1863    2.7135 C   0  0  0  0  0  0  0  0  0  0  0  0
   -1.4470    3.3159    3.2625 H   0  0  0  0  0  0  0  0  0  0  0  0
    0.3243    3.3682    3.3896 H   0  0  0  0  0  0  0  0  0  0  0  0
   -0.4850    3.9172    1.9023 H   0  0  0  0  0  0  0  0  0  0  0  0
  5  6  2  0  0  0  0
  5  7  1  0  0  0  0
  2  3  1  0  0  0  0
  2  4  1  0  0  0  0
  2  5  1  0  0  0  0
  1  2  1  0  0  0  0
 27 28  2  0  0  0  0
 27 29  1  0  0  0  0
 23 24  1  0  0  0  0
 23 25  1  0  0  0  0
 23 26  1  0  0  0  0
 20 21  1  0  0  0  0
 20 22  1  0  0  0  0
 20 23  1  0  0  0  0
 17 18  1  0  0  0  0
 17 19  1  0  0  0  0
 17 20  1  0  0  0  0
 14 15  1  0  0  0  0
 14 16  1  0  0  0  0
 14 17  1  0  0  0  0
 11 12  1  0  0  0  0
 11 13  1  0  0  0  0
 11 14  1  0  0  0  0
  9 10  1  0  0  0  0
  9 11  1  0  0  0  0
  9 27  1  0  0  0  0
  7  8  1  0  0  0  0
  7  9  1  0  0  0  0
 31 32  1  0  0  0  0
 31 33  1  0  0  0  0
 31 34  1  0  0  0  0
 29 30  1  0  0  0  0
 29 31  1  0  0  0  0
M  CHG  1  23   1
M  END
$$$$
default_name
  -OEChem-02102213163D

 34 33  0     1  0  0  0  0  0999 V2000
   -3.8899   -3.6747    1.6490 H   0  0  0  0  0  0  0  0  0  0  0  0
   -3.9109   -2.6717    1.2250 C   0  0  0  0  0  0  0  0  0  0  0  0
   -4.6009   -2.0517    1.7950 H   0  0  0  0  0  0  0  0  0  0  0  0
   -4.2309   -2.7237    0.1860 H   0  0  0  0  0  0  0  0  0  0  0  0
   -2.5229   -2.0787    1.2980 C   0  0  0  0  0  0  0  0  0  0  0  0
   -1.5999   -2.7227    1.7810 O   0  0  0  0  0  0  0  0  0  0  0  0
   -2.3659   -0.8447    0.8120 N   0  0  0  0  0  0  0  0  0  0  0  0
   -3.1749   -0.3807    0.4220 H   0  0  0  0  0  0  0  0  0  0  0  0
   -1.0919   -0.1077    0.8170 C   0  0  1  0  0  0  0  0  0  0  0  0
   -0.4136   -0.6011    1.5155 H   0  0  0  0  0  0  0  0  0  0  0  0
   -0.4834   -0.1723   -0.5965 C   0  0  0  0  0  0  0  0  0  0  0  0
   -1.2958   -0.2322   -1.3223 H   0  0  0  0  0  0  0  0  0  0  0  0
    0.0770    0.7449   -0.7881 H   0  0  0  0  0  0  0  0  0  0  0  0
    0.4402   -1.3823   -0.8045 C   0  0  0  0  0  0  0  0  0  0  0  0
    0.4171   -1.6864   -1.8518 H   0  0  0  0  0  0  0  0  0  0  0  0
    1.4616   -1.1053   -0.5362 H   0  0  0  0  0  0  0  0  0  0  0  0
   -0.0139   -2.5583    0.0713 C   0  0  0  0  0  0  0  0  0  0  0  0
   -0.0040   -2.2459    1.1183 H   0  0  0  0  0  0  0  0  0  0  0  0
   -1.0321   -2.8373   -0.2072 H   0  0  0  0  0  0  0  0  0  0  0  0
    0.9219   -3.7589   -0.1167 C   0  0  0  0  0  0  0  0  0  0  0  0
    0.9038   -4.0511   -1.1717 H   0  0  0  0  0  0  0  0  0  0  0  0
    1.9418   -3.4462    0.1270 H   0  0  0  0  0  0  0  0  0  0  0  0
    0.5190   -4.9041    0.7381 N   0  3  0  0  0  0  0  0  0  0  0  0
   -0.4203   -5.2048    0.5099 H   0  0  0  0  0  0  0  0  0  0  0  0
    1.1461   -5.6873    0.6026 H   0  0  0  0  0  0  0  0  0  0  0  0
    0.5427   -4.6413    1.7164 H   0  0  0  0  0  0  0  0  0  0  0  0
   -1.3103    1.3348    1.2791 C   0  0  0  0  0  0  0  0  0  0  0  0
   -2.2333    1.9891    0.8084 O   0  0  0  0  0  0  0  0  0  0  0  0
   -0.4429    1.8293    2.1683 N   0  0  0  0  0  0  0  0  0  0  0  0
    0.2668    1.2118    2.5263 H   0  0  0  0  0  0  0  0  0  0  0  0
   -0.5118    3.1863    2.7135 C   0  0  0  0  0  0  0  0  0  0  0  0
   -1.4470    3.3159    3.2625 H   0  0  0  0  0  0  0  0  0  0  0  0
    0.3243    3.3682    3.3896 H   0  0  0  0  0  0  0  0  0  0  0  0
   -0.4850    3.9172    1.9023 H   0  0  0  0  0  0  0  0  0  0  0  0
  5  6  2  0  0  0  0
  5  7  1  0  0  0  0
  2  3  1  0  0  0  0
  2  4  1  0  0  0  0
  2  5  1  0  0  0  0
  1  2  1  0  0  0  0
 27 28  2  0  0  0  0
 27 29  1  0  0  0  0
 23 24  1  0  0  0  0
 23 25  1  0  0  0  0
 23 26  1  0  0  0  0
 20 21  1  0  0  0  0
 20 22  1  0  0  0  0
 20 23  1  0  0  0  0
 17 18  1  0  0  0  0
 17 19  1  0  0  0  0
 17 20  1  0  0  0  0
 14 15  1  0  0  0  0
 14 16  1  0  0  0  0
 14 17  1  0  0  0  0
 11 12  1  0  0  0  0
 11 13  1  0  0  0  0
 11 14  1  0  0  0  0
  9 10  1  0  0  0  0
  9 11  1  0  0  0  0
  9 27  1  0  0  0  0
  7  8  1  0  0  0  0
  7  9  1  0  0  0  0
 31 32  1  0  0  0  0
 31 33  1  0  0  0  0
 31 34  1  0  0  0  0
 29 30  1  0  0  0  0
 29 31  1  0  0  0  0
M  CHG  1  23   1
M  END
$$$$
default_name
  -OEChem-02102213163D

 34 33  0     1  0  0  0  0  0999 V2000
   -3.8899   -3.6747    1.6490 H   0  0  0  0  0  0  0  0  0  0  0  0
   -3.9109   -2.6717    1.2250 C   0  0  0  0  0  0  0  0  0  0  0  0
   -4.6009   -2.0517    1.7950 H   0  0  0  0  0  0  0  0  0  0  0  0
   -4.2309   -2.7237    0.1860 H   0  0  0  0  0  0  0  0  0  0  0  0
   -2.5229   -2.0787    1.2980 C   0  0  0  0  0  0  0  0  0  0  0  0
   -1.5999   -2.7227    1.7810 O   0  0  0  0  0  0  0  0  0  0  0  0
   -2.3659   -0.8447    0.8120 N   0  0  0  0  0  0  0  0  0  0  0  0
   -3.1749   -0.3807    0.4220 H   0  0  0  0  0  0  0  0  0  0  0  0
   -1.0919   -0.1077    0.8170 C   0  0  1  0  0  0  0  0  0  0  0  0
   -0.4136   -0.6011    1.5155 H   0  0  0  0  0  0  0  0  0  0  0  0
   -0.4834   -0.1723   -0.5965 C   0  0  0  0  0  0  0  0  0  0  0  0
   -1.2958   -0.2322   -1.3223 H   0  0  0  0  0  0  0  0  0  0  0  0
    0.0770    0.7449   -0.7881 H   0  0  0  0  0  0  0  0  0  0  0  0
    0.4402   -1.3823   -0.8045 C   0  0  0  0  0  0  0  0  0  0  0  0
    0.6282   -1.5222   -1.8699 H   0  0  0  0  0  0  0  0  0  0  0  0
    1.3891   -1.2019   -0.2957 H   0  0  0  0  0  0  0  0  0  0  0  0
   -0.2072   -2.6529   -0.2365 C   0  0  0  0  0  0  0  0  0  0  0  0
   -0.4080   -2.5042    0.8271 H   0  0  0  0  0  0  0  0  0  0  0  0
   -1.1510   -2.8339   -0.7549 H   0  0  0  0  0  0  0  0  0  0  0  0
    0.7244   -3.8573   -0.4213 C   0  0  0  0  0  0  0  0  0  0  0  0
    0.9191   -3.9845   -1.4911 H   0  0  0  0  0  0  0  0  0  0  0  0
    1.6776   -3.6379    0.0691 H   0  0  0  0  0  0  0  0  0  0  0  0
    0.1320   -5.0970    0.1416 N   0  3  0  0  0  0  0  0  0  0  0  0
   -0.7455   -5.3110   -0.3157 H   0  0  0  0  0  0  0  0  0  0  0  0
    0.7586   -5.8815    0.0120 H   0  0  0  0  0  0  0  0  0  0  0  0
   -0.0421   -4.9874    1.1338 H   0  0  0  0  0  0  0  0  0  0  0  0
   -1.3103    1.3348    1.2791 C   0  0  0  0  0  0  0  0  0  0  0  0
   -2.2333    1.9891    0.8084 O   0  0  0  0  0  0  0  0  0  0  0  0
   -0.4429    1.8293    2.1683 N   0  0  0  0  0  0  0  0  0  0  0  0
    0.2668    1.2118    2.5263 H   0  0  0  0  0  0  0  0  0  0  0  0
   -0.5118    3.1863    2.7135 C   0  0  0  0  0  0  0  0  0  0  0  0
   -1.4470    3.3159    3.2625 H   0  0  0  0  0  0  0  0  0  0  0  0
    0.3243    3.3682    3.3896 H   0  0  0  0  0  0  0  0  0  0  0  0
   -0.4850    3.9172    1.9023 H   0  0  0  0  0  0  0  0  0  0  0  0
  5  6  2  0  0  0  0
  5  7  1  0  0  0  0
  2  3  1  0  0  0  0
  2  4  1  0  0  0  0
  2  5  1  0  0  0  0
  1  2  1  0  0  0  0
 27 28  2  0  0  0  0
 27 29  1  0  0  0  0
 23 24  1  0  0  0  0
 23 25  1  0  0  0  0
 23 26  1  0  0  0  0
 20 21  1  0  0  0  0
 20 22  1  0  0  0  0
 20 23  1  0  0  0  0
 17 18  1  0  0  0  0
 17 19  1  0  0  0  0
 17 20  1  0  0  0  0
 14 15  1  0  0  0  0
 14 16  1  0  0  0  0
 14 17  1  0  0  0  0
 11 12  1  0  0  0  0
 11 13  1  0  0  0  0
 11 14  1  0  0  0  0
  9 10  1  0  0  0  0
  9 11  1  0  0  0  0
  9 27  1  0  0  0  0
  7  8  1  0  0  0  0
  7  9  1  0  0  0  0
 31 32  1  0  0  0  0
 31 33  1  0  0  0  0
 31 34  1  0  0  0  0
 29 30  1  0  0  0  0
 29 31  1  0  0  0  0
M  CHG  1  23   1
M  END
$$$$
default_name
  -OEChem-02102213163D

 34 33  0     1  0  0  0  0  0999 V2000
   -3.8899   -3.6747    1.6490 H   0  0  0  0  0  0  0  0  0  0  0  0
   -3.9109   -2.6717    1.2250 C   0  0  0  0  0  0  0  0  0  0  0  0
   -4.6009   -2.0517    1.7950 H   0  0  0  0  0  0  0  0  0  0  0  0
   -4.2309   -2.7237    0.1860 H   0  0  0  0  0  0  0  0  0  0  0  0
   -2.5229   -2.0787    1.2980 C   0  0  0  0  0  0  0  0  0  0  0  0
   -1.5999   -2.7227    1.7810 O   0  0  0  0  0  0  0  0  0  0  0  0
   -2.3659   -0.8447    0.8120 N   0  0  0  0  0  0  0  0  0  0  0  0
   -3.1749   -0.3807    0.4220 H   0  0  0  0  0  0  0  0  0  0  0  0
   -1.0919   -0.1077    0.8170 C   0  0  1  0  0  0  0  0  0  0  0  0
   -0.4136   -0.6011    1.5155 H   0  0  0  0  0  0  0  0  0  0  0  0
   -0.4834   -0.1723   -0.5965 C   0  0  0  0  0  0  0  0  0  0  0  0
   -1.2958   -0.2322   -1.3223 H   0  0  0  0  0  0  0  0  0  0  0  0
    0.0770    0.7449   -0.7881 H   0  0  0  0  0  0  0  0  0  0  0  0
    0.4402   -1.3823   -0.8045 C   0  0  0  0  0  0  0  0  0  0  0  0
    0.8416   -1.3681   -1.8187 H   0  0  0  0  0  0  0  0  0  0  0  0
    1.2668   -1.3301   -0.0932 H   0  0  0  0  0  0  0  0  0  0  0  0
   -0.3345   -2.6896   -0.5880 C   0  0  0  0  0  0  0  0  0  0  0  0
   -0.7478   -2.6942    0.4234 H   0  0  0  0  0  0  0  0  0  0  0  0
   -1.1540   -2.7412   -1.3076 H   0  0  0  0  0  0  0  0  0  0  0  0
    0.5922   -3.8980   -0.7710 C   0  0  0  0  0  0  0  0  0  0  0  0
    1.0014   -3.8710   -1.7862 H   0  0  0  0  0  0  0  0  0  0  0  0
    1.4275   -3.8048   -0.0704 H   0  0  0  0  0  0  0  0  0  0  0  0
   -0.1270   -5.1769   -0.5435 N   0  3  0  0  0  0  0  0  0  0  0  0
   -0.8949   -5.2738   -1.1960 H   0  0  0  0  0  0  0  0  0  0  0  0
    0.4979   -5.9637   -0.6676 H   0  0  0  0  0  0  0  0  0  0  0  0
   -0.5002   -5.2106    0.3980 H   0  0  0  0  0  0  0  0  0  0  0  0
   -1.3103    1.3348    1.2791 C   0  0  0  0  0  0  0  0  0  0  0  0
   -2.2333    1.9891    0.8084 O   0  0  0  0  0  0  0  0  0  0  0  0
   -0.4429    1.8293    2.1683 N   0  0  0  0  0  0  0  0  0  0  0  0
    0.2668    1.2118    2.5263 H   0  0  0  0  0  0  0  0  0  0  0  0
   -0.5118    3.1863    2.7135 C   0  0  0  0  0  0  0  0  0  0  0  0
   -1.4470    3.3159    3.2625 H   0  0  0  0  0  0  0  0  0  0  0  0
    0.3243    3.3682    3.3896 H   0  0  0  0  0  0  0  0  0  0  0  0
   -0.4850    3.9172    1.9023 H   0  0  0  0  0  0  0  0  0  0  0  0
  5  6  2  0  0  0  0
  5  7  1  0  0  0  0
  2  3  1  0  0  0  0
  2  4  1  0  0  0  0
  2  5  1  0  0  0  0
  1  2  1  0  0  0  0
 27 28  2  0  0  0  0
 27 29  1  0  0  0  0
 23 24  1  0  0  0  0
 23 25  1  0  0  0  0
 23 26  1  0  0  0  0
 20 21  1  0  0  0  0
 20 22  1  0  0  0  0
 20 23  1  0  0  0  0
 17 18  1  0  0  0  0
 17 19  1  0  0  0  0
 17 20  1  0  0  0  0
 14 15  1  0  0  0  0
 14 16  1  0  0  0  0
 14 17  1  0  0  0  0
 11 12  1  0  0  0  0
 11 13  1  0  0  0  0
 11 14  1  0  0  0  0
  9 10  1  0  0  0  0
  9 11  1  0  0  0  0
  9 27  1  0  0  0  0
  7  8  1  0  0  0  0
  7  9  1  0  0  0  0
 31 32  1  0  0  0  0
 31 33  1  0  0  0  0
 31 34  1  0  0  0  0
 29 30  1  0  0  0  0
 29 31  1  0  0  0  0
M  CHG  1  23   1
M  END
$$$$
default_name
  -OEChem-02102213163D

 34 33  0     1  0  0  0  0  0999 V2000
   -3.8899   -3.6747    1.6490 H   0  0  0  0  0  0  0  0  0  0  0  0
   -3.9109   -2.6717    1.2250 C   0  0  0  0  0  0  0  0  0  0  0  0
   -4.6009   -2.0517    1.7950 H   0  0  0  0  0  0  0  0  0  0  0  0
   -4.2309   -2.7237    0.1860 H   0  0  0  0  0  0  0  0  0  0  0  0
   -2.5229   -2.0787    1.2980 C   0  0  0  0  0  0  0  0  0  0  0  0
   -1.5999   -2.7227    1.7810 O   0  0  0  0  0  0  0  0  0  0  0  0
   -2.3659   -0.8447    0.8120 N   0  0  0  0  0  0  0  0  0  0  0  0
   -3.1749   -0.3807    0.4220 H   0  0  0  0  0  0  0  0  0  0  0  0
   -1.0919   -0.1077    0.8170 C   0  0  1  0  0  0  0  0  0  0  0  0
   -0.4136   -0.6011    1.5155 H   0  0  0  0  0  0  0  0  0  0  0  0
   -0.4834   -0.1723   -0.5965 C   0  0  0  0  0  0  0  0  0  0  0  0
   -1.2958   -0.2322   -1.3223 H   0  0  0  0  0  0  0  0  0  0  0  0
    0.0770    0.7449   -0.7881 H   0  0  0  0  0  0  0  0  0  0  0  0
    0.4402   -1.3823   -0.8045 C   0  0  0  0  0  0  0  0  0  0  0  0
    1.0427   -1.2347   -1.7018 H   0  0  0  0  0  0  0  0  0  0  0  0
    1.1028   -1.4812    0.0575 H   0  0  0  0  0  0  0  0  0  0  0  0
   -0.3871   -2.6660   -0.9592 C   0  0  0  0  0  0  0  0  0  0  0  0
   -1.0005   -2.8030   -0.0654 H   0  0  0  0  0  0  0  0  0  0  0  0
   -1.0411   -2.5656   -1.8277 H   0  0  0  0  0  0  0  0  0  0  0  0
    0.5344   -3.8784   -1.1421 C   0  0  0  0  0  0  0  0  0  0  0  0
    1.1449   -3.7184   -2.0368 H   0  0  0  0  0  0  0  0  0  0  0  0
    1.2085   -3.9355   -0.2822 H   0  0  0  0  0  0  0  0  0  0  0  0
   -0.2404   -5.1384   -1.2704 N   0  3  0  0  0  0  0  0  0  0  0  0
   -0.8586   -5.0957   -2.0709 H   0  0  0  0  0  0  0  0  0  0  0  0
    0.3817   -5.9282   -1.3900 H   0  0  0  0  0  0  0  0  0  0  0  0
   -0.8006   -5.2957   -0.4409 H   0  0  0  0  0  0  0  0  0  0  0  0
   -1.3103    1.3348    1.2791 C   0  0  0  0  0  0  0  0  0  0  0  0
   -2.2333    1.9891    0.8084 O   0  0  0  0  0  0  0  0  0  0  0  0
   -0.4429    1.8293    2.1683 N   0  0  0  0  0  0  0  0  0  0  0  0
    0.2668    1.2118    2.5263 H   0  0  0  0  0  0  0  0  0  0  0  0
   -0.5118    3.1863    2.7135 C   0  0  0  0  0  0  0  0  0  0  0  0
   -1.4470    3.3159    3.2625 H   0  0  0  0  0  0  0  0  0  0  0  0
    0.3243    3.3682    3.3896 H   0  0  0  0  0  0  0  0  0  0  0  0
   -0.4850    3.9172    1.9023 H   0  0  0  0  0  0  0  0  0  0  0  0
  5  6  2  0  0  0  0
  5  7  1  0  0  0  0
  2  3  1  0  0  0  0
  2  4  1  0  0  0  0
  2  5  1  0  0  0  0
  1  2  1  0  0  0  0
 27 28  2  0  0  0  0
 27 29  1  0  0  0  0
 23 24  1  0  0  0  0
 23 25  1  0  0  0  0
 23 26  1  0  0  0  0
 20 21  1  0  0  0  0
 20 22  1  0  0  0  0
 20 23  1  0  0  0  0
 17 18  1  0  0  0  0
 17 19  1  0  0  0  0
 17 20  1  0  0  0  0
 14 15  1  0  0  0  0
 14 16  1  0  0  0  0
 14 17  1  0  0  0  0
 11 12  1  0  0  0  0
 11 13  1  0  0  0  0
 11 14  1  0  0  0  0
  9 10  1  0  0  0  0
  9 11  1  0  0  0  0
  9 27  1  0  0  0  0
  7  8  1  0  0  0  0
  7  9  1  0  0  0  0
 31 32  1  0  0  0  0
 31 33  1  0  0  0  0
 31 34  1  0  0  0  0
 29 30  1  0  0  0  0
 29 31  1  0  0  0  0
M  CHG  1  23   1
M  END
$$$$
default_name
  -OEChem-02102213163D

 34 33  0     1  0  0  0  0  0999 V2000
   -3.8899   -3.6747    1.6490 H   0  0  0  0  0  0  0  0  0  0  0  0
   -3.9109   -2.6717    1.2250 C   0  0  0  0  0  0  0  0  0  0  0  0
   -4.6009   -2.0517    1.7950 H   0  0  0  0  0  0  0  0  0  0  0  0
   -4.2309   -2.7237    0.1860 H   0  0  0  0  0  0  0  0  0  0  0  0
   -2.5229   -2.0787    1.2980 C   0  0  0  0  0  0  0  0  0  0  0  0
   -1.5999   -2.7227    1.7810 O   0  0  0  0  0  0  0  0  0  0  0  0
   -2.3659   -0.8447    0.8120 N   0  0  0  0  0  0  0  0  0  0  0  0
   -3.1749   -0.3807    0.4220 H   0  0  0  0  0  0  0  0  0  0  0  0
   -1.0919   -0.1077    0.8170 C   0  0  1  0  0  0  0  0  0  0  0  0
   -0.4136   -0.6011    1.5155 H   0  0  0  0  0  0  0  0  0  0  0  0
   -0.4834   -0.1723   -0.5965 C   0  0  0  0  0  0  0  0  0  0  0  0
   -1.2958   -0.2322   -1.3223 H   0  0  0  0  0  0  0  0  0  0  0  0
    0.0770    0.7449   -0.7881 H   0  0  0  0  0  0  0  0  0  0  0  0
    0.4402   -1.3823   -0.8045 C   0  0  0  0  0  0  0  0  0  0  0  0
    1.2178   -1.1311   -1.5271 H   0  0  0  0  0  0  0  0  0  0  0  0
    0.9084   -1.6448    0.1462 H   0  0  0  0  0  0  0  0  0  0  0  0
   -0.3614   -2.5835   -1.3247 C   0  0  0  0  0  0  0  0  0  0  0  0
   -1.1487   -2.8232   -0.6060 H   0  0  0  0  0  0  0  0  0  0  0  0
   -0.8198   -2.3190   -2.2797 H   0  0  0  0  0  0  0  0  0  0  0  0
    0.5549   -3.7996   -1.5093 C   0  0  0  0  0  0  0  0  0  0  0  0
    1.3400   -3.5370   -2.2258 H   0  0  0  0  0  0  0  0  0  0  0  0
    1.0356   -4.0212   -0.5517 H   0  0  0  0  0  0  0  0  0  0  0  0
   -0.2003   -4.9842   -1.9898 N   0  3  0  0  0  0  0  0  0  0  0  0
   -0.6389   -4.7887   -2.8810 H   0  0  0  0  0  0  0  0  0  0  0  0
    0.4180   -5.7774   -2.1060 H   0  0  0  0  0  0  0  0  0  0  0  0
   -0.9228   -5.2368   -1.3256 H   0  0  0  0  0  0  0  0  0  0  0  0
   -1.3103    1.3348    1.2791 C   0  0  0  0  0  0  0  0  0  0  0  0
   -2.2333    1.9891    0.8084 O   0  0  0  0  0  0  0  0  0  0  0  0
   -0.4429    1.8293    2.1683 N   0  0  0  0  0  0  0  0  0  0  0  0
    0.2668    1.2118    2.5263 H   0  0  0  0  0  0  0  0  0  0  0  0
   -0.5118    3.1863    2.7135 C   0  0  0  0  0  0  0  0  0  0  0  0
   -1.4470    3.3159    3.2625 H   0  0  0  0  0  0  0  0  0  0  0  0
    0.3243    3.3682    3.3896 H   0  0  0  0  0  0  0  0  0  0  0  0
   -0.4850    3.9172    1.9023 H   0  0  0  0  0  0  0  0  0  0  0  0
  5  6  2  0  0  0  0
  5  7  1  0  0  0  0
  2  3  1  0  0  0  0
  2  4  1  0  0  0  0
  2  5  1  0  0  0  0
  1  2  1  0  0  0  0
 27 28  2  0  0  0  0
 27 29  1  0  0  0  0
 23 24  1  0  0  0  0
 23 25  1  0  0  0  0
 23 26  1  0  0  0  0
 20 21  1  0  0  0  0
 20 22  1  0  0  0  0
 20 23  1  0  0  0  0
 17 18  1  0  0  0  0
 17 19  1  0  0  0  0
 17 20  1  0  0  0  0
 14 15  1  0  0  0  0
 14 16  1  0  0  0  0
 14 17  1  0  0  0  0
 11 12  1  0  0  0  0
 11 13  1  0  0  0  0
 11 14  1  0  0  0  0
  9 10  1  0  0  0  0
  9 11  1  0  0  0  0
  9 27  1  0  0  0  0
  7  8  1  0  0  0  0
  7  9  1  0  0  0  0
 31 32  1  0  0  0  0
 31 33  1  0  0  0  0
 31 34  1  0  0  0  0
 29 30  1  0  0  0  0
 29 31  1  0  0  0  0
M  CHG  1  23   1
M  END
$$$$
default_name
  -OEChem-02102213163D

 34 33  0     1  0  0  0  0  0999 V2000
   -3.8899   -3.6747    1.6490 H   0  0  0  0  0  0  0  0  0  0  0  0
   -3.9109   -2.6717    1.2250 C   0  0  0  0  0  0  0  0  0  0  0  0
   -4.6009   -2.0517    1.7950 H   0  0  0  0  0  0  0  0  0  0  0  0
   -4.2309   -2.7237    0.1860 H   0  0  0  0  0  0  0  0  0  0  0  0
   -2.5229   -2.0787    1.2980 C   0  0  0  0  0  0  0  0  0  0  0  0
   -1.5999   -2.7227    1.7810 O   0  0  0  0  0  0  0  0  0  0  0  0
   -2.3659   -0.8447    0.8120 N   0  0  0  0  0  0  0  0  0  0  0  0
   -3.1749   -0.3807    0.4220 H   0  0  0  0  0  0  0  0  0  0  0  0
   -1.0919   -0.1077    0.8170 C   0  0  1  0  0  0  0  0  0  0  0  0
   -0.4136   -0.6011    1.5155 H   0  0  0  0  0  0  0  0  0  0  0  0
   -0.4834   -0.1723   -0.5965 C   0  0  0  0  0  0  0  0  0  0  0  0
   -1.2958   -0.2322   -1.3223 H   0  0  0  0  0  0  0  0  0  0  0  0
    0.0770    0.7449   -0.7881 H   0  0  0  0  0  0  0  0  0  0  0  0
    0.4402   -1.3823   -0.8045 C   0  0  0  0  0  0  0  0  0  0  0  0
    1.3549   -1.0643   -1.3066 H   0  0  0  0  0  0  0  0  0  0  0  0
    0.6968   -1.8098    0.1667 H   0  0  0  0  0  0  0  0  0  0  0  0
   -0.2592   -2.4479   -1.6598 C   0  0  0  0  0  0  0  0  0  0  0  0
   -1.1824   -2.7534   -1.1616 H   0  0  0  0  0  0  0  0  0  0  0  0
   -0.5053   -2.0182   -2.6329 H   0  0  0  0  0  0  0  0  0  0  0  0
    0.6523   -3.6671   -1.8475 C   0  0  0  0  0  0  0  0  0  0  0  0
    1.5733   -3.3392   -2.3404 H   0  0  0  0  0  0  0  0  0  0  0  0
    0.9205   -4.0559   -0.8606 H   0  0  0  0  0  0  0  0  0  0  0  0
   -0.0096   -4.7247   -2.6524 N   0  3  0  0  0  0  0  0  0  0  0  0
   -0.2508   -4.3739   -3.5708 H   0  0  0  0  0  0  0  0  0  0  0  0
    0.6043   -5.5216   -2.7667 H   0  0  0  0  0  0  0  0  0  0  0  0
   -0.8583   -5.0380   -2.1959 H   0  0  0  0  0  0  0  0  0  0  0  0
   -1.3103    1.3348    1.2791 C   0  0  0  0  0  0  0  0  0  0  0  0
   -2.2333    1.9891    0.8084 O   0  0  0  0  0  0  0  0  0  0  0  0
   -0.4429    1.8293    2.1683 N   0  0  0  0  0  0  0  0  0  0  0  0
    0.2668    1.2118    2.5263 H   0  0  0  0  0  0  0  0  0  0  0  0
   -0.5118    3.1863    2.7135 C   0  0  0  0  0  0  0  0  0  0  0  0
   -1.4470    3.3159    3.2625 H   0  0  0  0  0  0  0  0  0  0  0  0
    0.3243    3.3682    3.3896 H   0  0  0  0  0  0  0  0  0  0  0  0
   -0.4850    3.9172    1.9023 H   0  0  0  0  0  0  0  0  0  0  0  0
  5  6  2  0  0  0  0
  5  7  1  0  0  0  0
  2  3  1  0  0  0  0
  2  4  1  0  0  0  0
  2  5  1  0  0  0  0
  1  2  1  0  0  0  0
 27 28  2  0  0  0  0
 27 29  1  0  0  0  0
 23 24  1  0  0  0  0
 23 25  1  0  0  0  0
 23 26  1  0  0  0  0
 20 21  1  0  0  0  0
 20 22  1  0  0  0  0
 20 23  1  0  0  0  0
 17 18  1  0  0  0  0
 17 19  1  0  0  0  0
 17 20  1  0  0  0  0
 14 15  1  0  0  0  0
 14 16  1  0  0  0  0
 14 17  1  0  0  0  0
 11 12  1  0  0  0  0
 11 13  1  0  0  0  0
 11 14  1  0  0  0  0
  9 10  1  0  0  0  0
  9 11  1  0  0  0  0
  9 27  1  0  0  0  0
  7  8  1  0  0  0  0
  7  9  1  0  0  0  0
 31 32  1  0  0  0  0
 31 33  1  0  0  0  0
 31 34  1  0  0  0  0
 29 30  1  0  0  0  0
 29 31  1  0  0  0  0
M  CHG  1  23   1
M  END
$$$$
default_name
  -OEChem-02102213163D

 34 33  0     1  0  0  0  0  0999 V2000
   -3.8899   -3.6747    1.6490 H   0  0  0  0  0  0  0  0  0  0  0  0
   -3.9109   -2.6717    1.2250 C   0  0  0  0  0  0  0  0  0  0  0  0
   -4.6009   -2.0517    1.7950 H   0  0  0  0  0  0  0  0  0  0  0  0
   -4.2309   -2.7237    0.1860 H   0  0  0  0  0  0  0  0  0  0  0  0
   -2.5229   -2.0787    1.2980 C   0  0  0  0  0  0  0  0  0  0  0  0
   -1.5999   -2.7227    1.7810 O   0  0  0  0  0  0  0  0  0  0  0  0
   -2.3659   -0.8447    0.8120 N   0  0  0  0  0  0  0  0  0  0  0  0
   -3.1749   -0.3807    0.4220 H   0  0  0  0  0  0  0  0  0  0  0  0
   -1.0919   -0.1077    0.8170 C   0  0  1  0  0  0  0  0  0  0  0  0
   -0.4136   -0.6011    1.5155 H   0  0  0  0  0  0  0  0  0  0  0  0
   -0.4834   -0.1723   -0.5965 C   0  0  0  0  0  0  0  0  0  0  0  0
   -1.2958   -0.2322   -1.3223 H   0  0  0  0  0  0  0  0  0  0  0  0
    0.0770    0.7449   -0.7881 H   0  0  0  0  0  0  0  0  0  0  0  0
    0.4402   -1.3823   -0.8045 C   0  0  0  0  0  0  0  0  0  0  0  0
    1.4448   -1.0390   -1.0552 H   0  0  0  0  0  0  0  0  0  0  0  0
    0.4825   -1.9650    0.1178 H   0  0  0  0  0  0  0  0  0  0  0  0
   -0.0874   -2.2683   -1.9415 C   0  0  0  0  0  0  0  0  0  0  0  0
   -1.0993   -2.5984   -1.6942 H   0  0  0  0  0  0  0  0  0  0  0  0
   -0.1190   -1.6838   -2.8631 H   0  0  0  0  0  0  0  0  0  0  0  0
    0.8200   -3.4899   -2.1338 C   0  0  0  0  0  0  0  0  0  0  0  0
    1.8290   -3.1384   -2.3728 H   0  0  0  0  0  0  0  0  0  0  0  0
    0.8711   -4.0374   -1.1878 H   0  0  0  0  0  0  0  0  0  0  0  0
    0.3188   -4.3777   -3.2132 N   0  3  0  0  0  0  0  0  0  0  0  0
    0.2792   -3.8795   -4.0936 H   0  0  0  0  0  0  0  0  0  0  0  0
    0.9279   -5.1783   -3.3271 H   0  0  0  0  0  0  0  0  0  0  0  0
   -0.6117   -4.7128   -2.9925 H   0  0  0  0  0  0  0  0  0  0  0  0
   -1.3103    1.3348    1.2791 C   0  0  0  0  0  0  0  0  0  0  0  0
   -2.2333    1.9891    0.8084 O   0  0  0  0  0  0  0  0  0  0  0  0
   -0.4429    1.8293    2.1683 N   0  0  0  0  0  0  0  0  0  0  0  0
    0.2668    1.2118    2.5263 H   0  0  0  0  0  0  0  0  0  0  0  0
   -0.5118    3.1863    2.7135 C   0  0  0  0  0  0  0  0  0  0  0  0
   -1.4470    3.3159    3.2625 H   0  0  0  0  0  0  0  0  0  0  0  0
    0.3243    3.3682    3.3896 H   0  0  0  0  0  0  0  0  0  0  0  0
   -0.4850    3.9172    1.9023 H   0  0  0  0  0  0  0  0  0  0  0  0
  5  6  2  0  0  0  0
  5  7  1  0  0  0  0
  2  3  1  0  0  0  0
  2  4  1  0  0  0  0
  2  5  1  0  0  0  0
  1  2  1  0  0  0  0
 27 28  2  0  0  0  0
 27 29  1  0  0  0  0
 23 24  1  0  0  0  0
 23 25  1  0  0  0  0
 23 26  1  0  0  0  0
 20 21  1  0  0  0  0
 20 22  1  0  0  0  0
 20 23  1  0  0  0  0
 17 18  1  0  0  0  0
 17 19  1  0  0  0  0
 17 20  1  0  0  0  0
 14 15  1  0  0  0  0
 14 16  1  0  0  0  0
 14 17  1  0  0  0  0
 11 12  1  0  0  0  0
 11 13  1  0  0  0  0
 11 14  1  0  0  0  0
  9 10  1  0  0  0  0
  9 11  1  0  0  0  0
  9 27  1  0  0  0  0
  7  8  1  0  0  0  0
  7  9  1  0  0  0  0
 31 32  1  0  0  0  0
 31 33  1  0  0  0  0
 31 34  1  0  0  0  0
 29 30  1  0  0  0  0
 29 31  1  0  0  0  0
M  CHG  1  23   1
M  END
$$$$
default_name
  -OEChem-02102213163D

 34 33  0     1  0  0  0  0  0999 V2000
   -3.8899   -3.6747    1.6490 H   0  0  0  0  0  0  0  0  0  0  0  0
   -3.9109   -2.6717    1.2250 C   0  0  0  0  0  0  0  0  0  0  0  0
   -4.6009   -2.0517    1.7950 H   0  0  0  0  0  0  0  0  0  0  0  0
   -4.2309   -2.7237    0.1860 H   0  0  0  0  0  0  0  0  0  0  0  0
   -2.5229   -2.0787    1.2980 C   0  0  0  0  0  0  0  0  0  0  0  0
   -1.5999   -2.7227    1.7810 O   0  0  0  0  0  0  0  0  0  0  0  0
   -2.3659   -0.8447    0.8120 N   0  0  0  0  0  0  0  0  0  0  0  0
   -3.1749   -0.3807    0.4220 H   0  0  0  0  0  0  0  0  0  0  0  0
   -1.0919   -0.1077    0.8170 C   0  0  1  0  0  0  0  0  0  0  0  0
   -0.4136   -0.6011    1.5155 H   0  0  0  0  0  0  0  0  0  0  0  0
   -0.4834   -0.1723   -0.5965 C   0  0  0  0  0  0  0  0  0  0  0  0
   -1.2958   -0.2322   -1.3223 H   0  0  0  0  0  0  0  0  0  0  0  0
    0.0770    0.7449   -0.7881 H   0  0  0  0  0  0  0  0  0  0  0  0
    0.4402   -1.3823   -0.8045 C   0  0  0  0  0  0  0  0  0  0  0  0
    1.4812   -1.0567   -0.7902 H   0  0  0  0  0  0  0  0  0  0  0  0
    0.2800   -2.0998    0.0027 H   0  0  0  0  0  0  0  0  0  0  0  0
    0.1422   -2.0571   -2.1506 C   0  0  0  0  0  0  0  0  0  0  0  0
   -0.9049   -2.3686   -2.1676 H   0  0  0  0  0  0  0  0  0  0  0  0
    0.3128   -1.3385   -2.9547 H   0  0  0  0  0  0  0  0  0  0  0  0
    1.0465   -3.2801   -2.3485 C   0  0  0  0  0  0  0  0  0  0  0  0
    2.0896   -2.9485   -2.3207 H   0  0  0  0  0  0  0  0  0  0  0  0
    0.8907   -3.9668   -1.5111 H   0  0  0  0  0  0  0  0  0  0  0  0
    0.7625   -3.9667   -3.6340 N   0  3  0  0  0  0  0  0  0  0  0  0
    0.9151   -3.3391   -4.4135 H   0  0  0  0  0  0  0  0  0  0  0  0
    1.3667   -4.7708   -3.7491 H   0  0  0  0  0  0  0  0  0  0  0  0
   -0.1997   -4.2834   -3.6611 H   0  0  0  0  0  0  0  0  0  0  0  0
   -1.3103    1.3348    1.2791 C   0  0  0  0  0  0  0  0  0  0  0  0
   -2.2333    1.9891    0.8084 O   0  0  0  0  0  0  0  0  0  0  0  0
   -0.4429    1.8293    2.1683 N   0  0  0  0  0  0  0  0  0  0  0  0
    0.2668    1.2118    2.5263 H   0  0  0  0  0  0  0  0  0  0  0  0
   -0.5118    3.1863    2.7135 C   0  0  0  0  0  0  0  0  0  0  0  0
   -1.4470    3.3159    3.2625 H   0  0  0  0  0  0  0  0  0  0  0  0
    0.3243    3.3682    3.3896 H   0  0  0  0  0  0  0  0  0  0  0  0
   -0.4850    3.9172    1.9023 H   0  0  0  0  0  0  0  0  0  0  0  0
  5  6  2  0  0  0  0
  5  7  1  0  0  0  0
  2  3  1  0  0  0  0
  2  4  1  0  0  0  0
  2  5  1  0  0  0  0
  1  2  1  0  0  0  0
 27 28  2  0  0  0  0
 27 29  1  0  0  0  0
 23 24  1  0  0  0  0
 23 25  1  0  0  0  0
 23 26  1  0  0  0  0
 20 21  1  0  0  0  0
 20 22  1  0  0  0  0
 20 23  1  0  0  0  0
 17 18  1  0  0  0  0
 17 19  1  0  0  0  0
 17 20  1  0  0  0  0
 14 15  1  0  0  0  0
 14 16  1  0  0  0  0
 14 17  1  0  0  0  0
 11 12  1  0  0  0  0
 11 13  1  0  0  0  0
 11 14  1  0  0  0  0
  9 10  1  0  0  0  0
  9 11  1  0  0  0  0
  9 27  1  0  0  0  0
  7  8  1  0  0  0  0
  7  9  1  0  0  0  0
 31 32  1  0  0  0  0
 31 33  1  0  0  0  0
 31 34  1  0  0  0  0
 29 30  1  0  0  0  0
 29 31  1  0  0  0  0
M  CHG  1  23   1
M  END
$$$$
default_name
  -OEChem-02102213163D

 34 33  0     1  0  0  0  0  0999 V2000
   -3.8899   -3.6747    1.6490 H   0  0  0  0  0  0  0  0  0  0  0  0
   -3.9109   -2.6717    1.2250 C   0  0  0  0  0  0  0  0  0  0  0  0
   -4.6009   -2.0517    1.7950 H   0  0  0  0  0  0  0  0  0  0  0  0
   -4.2309   -2.7237    0.1860 H   0  0  0  0  0  0  0  0  0  0  0  0
   -2.5229   -2.0787    1.2980 C   0  0  0  0  0  0  0  0  0  0  0  0
   -1.5999   -2.7227    1.7810 O   0  0  0  0  0  0  0  0  0  0  0  0
   -2.3659   -0.8447    0.8120 N   0  0  0  0  0  0  0  0  0  0  0  0
   -3.1749   -0.3807    0.4220 H   0  0  0  0  0  0  0  0  0  0  0  0
   -1.0919   -0.1077    0.8170 C   0  0  1  0  0  0  0  0  0  0  0  0
   -0.4136   -0.6011    1.5155 H   0  0  0  0  0  0  0  0  0  0  0  0
   -0.4834   -0.1723   -0.5965 C   0  0  0  0  0  0  0  0  0  0  0  0
   -1.2958   -0.2322   -1.3223 H   0  0  0  0  0  0  0  0  0  0  0  0
    0.0770    0.7449   -0.7881 H   0  0  0  0  0  0  0  0  0  0  0  0
    0.4402   -1.3823   -0.8045 C   0  0  0  0  0  0  0  0  0  0  0  0
    1.4618   -1.1164   -0.5295 H   0  0  0  0  0  0  0  0  0  0  0  0
    0.1031   -2.2049   -0.1708 H   0  0  0  0  0  0  0  0  0  0  0  0
    0.4141   -1.8286   -2.2729 C   0  0  0  0  0  0  0  0  0  0  0  0
   -0.6127   -2.0799   -2.5495 H   0  0  0  0  0  0  0  0  0  0  0  0
    0.7607   -1.0058   -2.9014 H   0  0  0  0  0  0  0  0  0  0  0  0
    1.3165   -3.0519   -2.4771 C   0  0  0  0  0  0  0  0  0  0  0  0
    2.3374   -2.7823   -2.1877 H   0  0  0  0  0  0  0  0  0  0  0  0
    0.9780   -3.8491   -1.8084 H   0  0  0  0  0  0  0  0  0  0  0  0
    1.2912   -3.5198   -3.8860 N   0  3  0  0  0  0  0  0  0  0  0  0
    1.6134   -2.7897   -4.5089 H   0  0  0  0  0  0  0  0  0  0  0  0
    1.8908   -4.3269   -4.0038 H   0  0  0  0  0  0  0  0  0  0  0  0
    0.3496   -3.7791   -4.1562 H   0  0  0  0  0  0  0  0  0  0  0  0
   -1.3103    1.3348    1.2791 C   0  0  0  0  0  0  0  0  0  0  0  0
   -2.2333    1.9891    0.8084 O   0  0  0  0  0  0  0  0  0  0  0  0
   -0.4429    1.8293    2.1683 N   0  0  0  0  0  0  0  0  0  0  0  0
    0.2668    1.2118    2.5263 H   0  0  0  0  0  0  0  0  0  0  0  0
   -0.5118    3.1863    2.7135 C   0  0  0  0  0  0  0  0  0  0  0  0
   -1.4470    3.3159    3.2625 H   0  0  0  0  0  0  0  0  0  0  0  0
    0.3243    3.3682    3.3896 H   0  0  0  0  0  0  0  0  0  0  0  0
   -0.4850    3.9172    1.9023 H   0  0  0  0  0  0  0  0  0  0  0  0
  5  6  2  0  0  0  0
  5  7  1  0  0  0  0
  2  3  1  0  0  0  0
  2  4  1  0  0  0  0
  2  5  1  0  0  0  0
  1  2  1  0  0  0  0
 27 28  2  0  0  0  0
 27 29  1  0  0  0  0
 23 24  1  0  0  0  0
 23 25  1  0  0  0  0
 23 26  1  0  0  0  0
 20 21  1  0  0  0  0
 20 22  1  0  0  0  0
 20 23  1  0  0  0  0
 17 18  1  0  0  0  0
 17 19  1  0  0  0  0
 17 20  1  0  0  0  0
 14 15  1  0  0  0  0
 14 16  1  0  0  0  0
 14 17  1  0  0  0  0
 11 12  1  0  0  0  0
 11 13  1  0  0  0  0
 11 14  1  0  0  0  0
  9 10  1  0  0  0  0
  9 11  1  0  0  0  0
  9 27  1  0  0  0  0
  7  8  1  0  0  0  0
  7  9  1  0  0  0  0
 31 32  1  0  0  0  0
 31 33  1  0  0  0  0
 31 34  1  0  0  0  0
 29 30  1  0  0  0  0
 29 31  1  0  0  0  0
M  CHG  1  23   1
M  END
$$$$
default_name
  -OEChem-02102213163D

 34 33  0     1  0  0  0  0  0999 V2000
   -3.8899   -3.6747    1.6490 H   0  0  0  0  0  0  0  0  0  0  0  0
   -3.9109   -2.6717    1.2250 C   0  0  0  0  0  0  0  0  0  0  0  0
   -4.6009   -2.0517    1.7950 H   0  0  0  0  0  0  0  0  0  0  0  0
   -4.2309   -2.7237    0.1860 H   0  0  0  0  0  0  0  0  0  0  0  0
   -2.5229   -2.0787    1.2980 C   0  0  0  0  0  0  0  0  0  0  0  0
   -1.5999   -2.7227    1.7810 O   0  0  0  0  0  0  0  0  0  0  0  0
   -2.3659   -0.8447    0.8120 N   0  0  0  0  0  0  0  0  0  0  0  0
   -3.1749   -0.3807    0.4220 H   0  0  0  0  0  0  0  0  0  0  0  0
   -1.0919   -0.1077    0.8170 C   0  0  1  0  0  0  0  0  0  0  0  0
   -0.4136   -0.6011    1.5155 H   0  0  0  0  0  0  0  0  0  0  0  0
   -0.4834   -0.1723   -0.5965 C   0  0  0  0  0  0  0  0  0  0  0  0
   -1.2958   -0.2322   -1.3223 H   0  0  0  0  0  0  0  0  0  0  0  0
    0.0770    0.7449   -0.7881 H   0  0  0  0  0  0  0  0  0  0  0  0
    0.4402   -1.3823   -0.8045 C   0  0  0  0  0  0  0  0  0  0  0  0
    1.3877   -1.2139   -0.2910 H   0  0  0  0  0  0  0  0  0  0  0  0
   -0.0360   -2.2733   -0.3907 H   0  0  0  0  0  0  0  0  0  0  0  0
    0.7096   -1.5984   -2.3001 C   0  0  0  0  0  0  0  0  0  0  0  0
   -0.2424   -1.7519   -2.8139 H   0  0  0  0  0  0  0  0  0  0  0  0
    1.1941   -0.7084   -2.7068 H   0  0  0  0  0  0  0  0  0  0  0  0
    1.6114   -2.8210   -2.5108 C   0  0  0  0  0  0  0  0  0  0  0  0
    2.5554   -2.6511   -1.9828 H   0  0  0  0  0  0  0  0  0  0  0  0
    1.1271   -3.6921   -2.0594 H   0  0  0  0  0  0  0  0  0  0  0  0
    1.8689   -3.0675   -3.9521 N   0  3  0  0  0  0  0  0  0  0  0  0
    2.3267   -2.2687   -4.3731 H   0  0  0  0  0  0  0  0  0  0  0  0
    2.4646   -3.8769   -4.0740 H   0  0  0  0  0  0  0  0  0  0  0  0
    0.9987   -3.2341   -4.4439 H   0  0  0  0  0  0  0  0  0  0  0  0
   -1.3103    1.3348    1.2791 C   0  0  0  0  0  0  0  0  0  0  0  0
   -2.2333    1.9891    0.8084 O   0  0  0  0  0  0  0  0  0  0  0  0
   -0.4429    1.8293    2.1683 N   0  0  0  0  0  0  0  0  0  0  0  0
    0.2668    1.2118    2.5263 H   0  0  0  0  0  0  0  0  0  0  0  0
   -0.5118    3.1863    2.7135 C   0  0  0  0  0  0  0  0  0  0  0  0
   -1.4470    3.3159    3.2625 H   0  0  0  0  0  0  0  0  0  0  0  0
    0.3243    3.3682    3.3896 H   0  0  0  0  0  0  0  0  0  0  0  0
   -0.4850    3.9172    1.9023 H   0  0  0  0  0  0  0  0  0  0  0  0
  5  6  2  0  0  0  0
  5  7  1  0  0  0  0
  2  3  1  0  0  0  0
  2  4  1  0  0  0  0
  2  5  1  0  0  0  0
  1  2  1  0  0  0  0
 27 28  2  0  0  0  0
 27 29  1  0  0  0  0
 23 24  1  0  0  0  0
 23 25  1  0  0  0  0
 23 26  1  0  0  0  0
 20 21  1  0  0  0  0
 20 22  1  0  0  0  0
 20 23  1  0  0  0  0
 17 18  1  0  0  0  0
 17 19  1  0  0  0  0
 17 20  1  0  0  0  0
 14 15  1  0  0  0  0
 14 16  1  0  0  0  0
 14 17  1  0  0  0  0
 11 12  1  0  0  0  0
 11 13  1  0  0  0  0
 11 14  1  0  0  0  0
  9 10  1  0  0  0  0
  9 11  1  0  0  0  0
  9 27  1  0  0  0  0
  7  8  1  0  0  0  0
  7  9  1  0  0  0  0
 31 32  1  0  0  0  0
 31 33  1  0  0  0  0
 31 34  1  0  0  0  0
 29 30  1  0  0  0  0
 29 31  1  0  0  0  0
M  CHG  1  23   1
M  END
$$$$
default_name
  -OEChem-02102213163D

 34 33  0     1  0  0  0  0  0999 V2000
   -3.8899   -3.6747    1.6490 H   0  0  0  0  0  0  0  0  0  0  0  0
   -3.9109   -2.6717    1.2250 C   0  0  0  0  0  0  0  0  0  0  0  0
   -4.6009   -2.0517    1.7950 H   0  0  0  0  0  0  0  0  0  0  0  0
   -4.2309   -2.7237    0.1860 H   0  0  0  0  0  0  0  0  0  0  0  0
   -2.5229   -2.0787    1.2980 C   0  0  0  0  0  0  0  0  0  0  0  0
   -1.5999   -2.7227    1.7810 O   0  0  0  0  0  0  0  0  0  0  0  0
   -2.3659   -0.8447    0.8120 N   0  0  0  0  0  0  0  0  0  0  0  0
   -3.1749   -0.3807    0.4220 H   0  0  0  0  0  0  0  0  0  0  0  0
   -1.0919   -0.1077    0.8170 C   0  0  1  0  0  0  0  0  0  0  0  0
   -0.4136   -0.6011    1.5155 H   0  0  0  0  0  0  0  0  0  0  0  0
   -0.4834   -0.1723   -0.5965 C   0  0  0  0  0  0  0  0  0  0  0  0
   -1.2698    0.0365   -1.3234 H   0  0  0  0  0  0  0  0  0  0  0  0
    0.2827    0.5996   -0.6929 H   0  0  0  0  0  0  0  0  0  0  0  0
    0.1318   -1.5401   -0.9301 C   0  0  0  0  0  0  0  0  0  0  0  0
    0.9249   -1.7699   -0.2174 H   0  0  0  0  0  0  0  0  0  0  0  0
   -0.6414   -2.3079   -0.8629 H   0  0  0  0  0  0  0  0  0  0  0  0
    0.7170   -1.5312   -2.3491 C   0  0  0  0  0  0  0  0  0  0  0  0
   -0.0765   -1.2860   -3.0590 H   0  0  0  0  0  0  0  0  0  0  0  0
    1.4958   -0.7682   -2.4083 H   0  0  0  0  0  0  0  0  0  0  0  0
    1.3094   -2.9036   -2.6927 C   0  0  0  0  0  0  0  0  0  0  0  0
    2.0959   -3.1338   -1.9666 H   0  0  0  0  0  0  0  0  0  0  0  0
    0.5239   -3.6579   -2.5863 H   0  0  0  0  0  0  0  0  0  0  0  0
    1.8620   -2.9302   -4.0706 N   0  3  0  0  0  0  0  0  0  0  0  0
    2.5968   -2.2413   -4.1722 H   0  0  0  0  0  0  0  0  0  0  0  0
    2.2483   -3.8418   -4.2816 H   0  0  0  0  0  0  0  0  0  0  0  0
    1.1358   -2.7263   -4.7473 H   0  0  0  0  0  0  0  0  0  0  0  0
   -1.3103    1.3348    1.2791 C   0  0  0  0  0  0  0  0  0  0  0  0
   -2.2333    1.9891    0.8084 O   0  0  0  0  0  0  0  0  0  0  0  0
   -0.4429    1.8293    2.1683 N   0  0  0  0  0  0  0  0  0  0  0  0
    0.2668    1.2118    2.5263 H   0  0  0  0  0  0  0  0  0  0  0  0
   -0.5118    3.1863    2.7135 C   0  0  0  0  0  0  0  0  0  0  0  0
   -1.4470    3.3159    3.2625 H   0  0  0  0  0  0  0  0  0  0  0  0
    0.3243    3.3682    3.3896 H   0  0  0  0  0  0  0  0  0  0  0  0
   -0.4850    3.9172    1.9023 H   0  0  0  0  0  0  0  0  0  0  0  0
  5  6  2  0  0  0  0
  5  7  1  0  0  0  0
  2  3  1  0  0  0  0
  2  4  1  0  0  0  0
  2  5  1  0  0  0  0
  1  2  1  0  0  0  0
 27 28  2  0  0  0  0
 27 29  1  0  0  0  0
 23 24  1  0  0  0  0
 23 25  1  0  0  0  0
 23 26  1  0  0  0  0
 20 21  1  0  0  0  0
 20 22  1  0  0  0  0
 20 23  1  0  0  0  0
 17 18  1  0  0  0  0
 17 19  1  0  0  0  0
 17 20  1  0  0  0  0
 14 15  1  0  0  0  0
 14 16  1  0  0  0  0
 14 17  1  0  0  0  0
 11 12  1  0  0  0  0
 11 13  1  0  0  0  0
 11 14  1  0  0  0  0
  9 10  1  0  0  0  0
  9 11  1  0  0  0  0
  9 27  1  0  0  0  0
  7  8  1  0  0  0  0
  7  9  1  0  0  0  0
 31 32  1  0  0  0  0
 31 33  1  0  0  0  0
 31 34  1  0  0  0  0
 29 30  1  0  0  0  0
 29 31  1  0  0  0  0
M  CHG  1  23   1
M  END
$$$$
default_name
  -OEChem-02102213163D

 34 33  0     1  0  0  0  0  0999 V2000
   -3.8899   -3.6747    1.6490 H   0  0  0  0  0  0  0  0  0  0  0  0
   -3.9109   -2.6717    1.2250 C   0  0  0  0  0  0  0  0  0  0  0  0
   -4.6009   -2.0517    1.7950 H   0  0  0  0  0  0  0  0  0  0  0  0
   -4.2309   -2.7237    0.1860 H   0  0  0  0  0  0  0  0  0  0  0  0
   -2.5229   -2.0787    1.2980 C   0  0  0  0  0  0  0  0  0  0  0  0
   -1.5999   -2.7227    1.7810 O   0  0  0  0  0  0  0  0  0  0  0  0
   -2.3659   -0.8447    0.8120 N   0  0  0  0  0  0  0  0  0  0  0  0
   -3.1749   -0.3807    0.4220 H   0  0  0  0  0  0  0  0  0  0  0  0
   -1.0919   -0.1077    0.8170 C   0  0  1  0  0  0  0  0  0  0  0  0
   -0.4136   -0.6011    1.5155 H   0  0  0  0  0  0  0  0  0  0  0  0
   -0.4834   -0.1723   -0.5965 C   0  0  0  0  0  0  0  0  0  0  0  0
   -1.2698    0.0365   -1.3234 H   0  0  0  0  0  0  0  0  0  0  0  0
    0.2827    0.5996   -0.6929 H   0  0  0  0  0  0  0  0  0  0  0  0
    0.1318   -1.5401   -0.9301 C   0  0  0  0  0  0  0  0  0  0  0  0
    0.7258   -1.8916   -0.0854 H   0  0  0  0  0  0  0  0  0  0  0  0
   -0.6688   -2.2562   -1.1256 H   0  0  0  0  0  0  0  0  0  0  0  0
    1.0318   -1.4336   -2.1689 C   0  0  0  0  0  0  0  0  0  0  0  0
    0.4375   -1.0670   -3.0093 H   0  0  0  0  0  0  0  0  0  0  0  0
    1.8357   -0.7235   -1.9650 H   0  0  0  0  0  0  0  0  0  0  0  0
    1.6270   -2.8034   -2.5179 C   0  0  0  0  0  0  0  0  0  0  0  0
    2.2114   -3.1562   -1.6619 H   0  0  0  0  0  0  0  0  0  0  0  0
    0.8059   -3.5090   -2.6767 H   0  0  0  0  0  0  0  0  0  0  0  0
    2.4842   -2.7338   -3.7283 N   0  3  0  0  0  0  0  0  0  0  0  0
    3.2520   -2.0902   -3.5835 H   0  0  0  0  0  0  0  0  0  0  0  0
    2.8685   -3.6450   -3.9451 H   0  0  0  0  0  0  0  0  0  0  0  0
    1.9457   -2.4161   -4.5257 H   0  0  0  0  0  0  0  0  0  0  0  0
   -1.3103    1.3348    1.2791 C   0  0  0  0  0  0  0  0  0  0  0  0
   -2.2333    1.9891    0.8084 O   0  0  0  0  0  0  0  0  0  0  0  0
   -0.4429    1.8293    2.1683 N   0  0  0  0  0  0  0  0  0  0  0  0
    0.2668    1.2118    2.5263 H   0  0  0  0  0  0  0  0  0  0  0  0
   -0.5118    3.1863    2.7135 C   0  0  0  0  0  0  0  0  0  0  0  0
   -1.4470    3.3159    3.2625 H   0  0  0  0  0  0  0  0  0  0  0  0
    0.3243    3.3682    3.3896 H   0  0  0  0  0  0  0  0  0  0  0  0
   -0.4850    3.9172    1.9023 H   0  0  0  0  0  0  0  0  0  0  0  0
  5  6  2  0  0  0  0
  5  7  1  0  0  0  0
  2  3  1  0  0  0  0
  2  4  1  0  0  0  0
  2  5  1  0  0  0  0
  1  2  1  0  0  0  0
 27 28  2  0  0  0  0
 27 29  1  0  0  0  0
 23 24  1  0  0  0  0
 23 25  1  0  0  0  0
 23 26  1  0  0  0  0
 20 21  1  0  0  0  0
 20 22  1  0  0  0  0
 20 23  1  0  0  0  0
 17 18  1  0  0  0  0
 17 19  1  0  0  0  0
 17 20  1  0  0  0  0
 14 15  1  0  0  0  0
 14 16  1  0  0  0  0
 14 17  1  0  0  0  0
 11 12  1  0  0  0  0
 11 13  1  0  0  0  0
 11 14  1  0  0  0  0
  9 10  1  0  0  0  0
  9 11  1  0  0  0  0
  9 27  1  0  0  0  0
  7  8  1  0  0  0  0
  7  9  1  0  0  0  0
 31 32  1  0  0  0  0
 31 33  1  0  0  0  0
 31 34  1  0  0  0  0
 29 30  1  0  0  0  0
 29 31  1  0  0  0  0
M  CHG  1  23   1
M  END
$$$$
default_name
  -OEChem-02102213163D

 34 33  0     1  0  0  0  0  0999 V2000
   -3.8899   -3.6747    1.6490 H   0  0  0  0  0  0  0  0  0  0  0  0
   -3.9109   -2.6717    1.2250 C   0  0  0  0  0  0  0  0  0  0  0  0
   -4.6009   -2.0517    1.7950 H   0  0  0  0  0  0  0  0  0  0  0  0
   -4.2309   -2.7237    0.1860 H   0  0  0  0  0  0  0  0  0  0  0  0
   -2.5229   -2.0787    1.2980 C   0  0  0  0  0  0  0  0  0  0  0  0
   -1.5999   -2.7227    1.7810 O   0  0  0  0  0  0  0  0  0  0  0  0
   -2.3659   -0.8447    0.8120 N   0  0  0  0  0  0  0  0  0  0  0  0
   -3.1749   -0.3807    0.4220 H   0  0  0  0  0  0  0  0  0  0  0  0
   -1.0919   -0.1077    0.8170 C   0  0  1  0  0  0  0  0  0  0  0  0
   -0.4136   -0.6011    1.5155 H   0  0  0  0  0  0  0  0  0  0  0  0
   -0.4834   -0.1723   -0.5965 C   0  0  0  0  0  0  0  0  0  0  0  0
   -1.2698    0.0365   -1.3234 H   0  0  0  0  0  0  0  0  0  0  0  0
    0.2827    0.5996   -0.6929 H   0  0  0  0  0  0  0  0  0  0  0  0
    0.1318   -1.5401   -0.9301 C   0  0  0  0  0  0  0  0  0  0  0  0
    0.4962   -2.0117   -0.0165 H   0  0  0  0  0  0  0  0  0  0  0  0
   -0.6318   -2.1774   -1.3802 H   0  0  0  0  0  0  0  0  0  0  0  0
    1.2999   -1.3756   -1.9122 C   0  0  0  0  0  0  0  0  0  0  0  0
    0.9348   -0.8895   -2.8201 H   0  0  0  0  0  0  0  0  0  0  0  0
    2.0645   -0.7453   -1.4538 H   0  0  0  0  0  0  0  0  0  0  0  0
    1.8991   -2.7426   -2.2655 C   0  0  0  0  0  0  0  0  0  0  0  0
    2.2514   -3.2159   -1.3432 H   0  0  0  0  0  0  0  0  0  0  0  0
    1.1075   -3.3716   -2.6837 H   0  0  0  0  0  0  0  0  0  0  0  0
    3.0173   -2.6147   -3.2339 N   0  3  0  0  0  0  0  0  0  0  0  0
    3.7578   -2.0421   -2.8483 H   0  0  0  0  0  0  0  0  0  0  0  0
    3.4011   -3.5246   -3.4567 H   0  0  0  0  0  0  0  0  0  0  0  0
    2.6943   -2.1850   -4.0930 H   0  0  0  0  0  0  0  0  0  0  0  0
   -1.3103    1.3348    1.2791 C   0  0  0  0  0  0  0  0  0  0  0  0
   -2.2333    1.9891    0.8084 O   0  0  0  0  0  0  0  0  0  0  0  0
   -0.4429    1.8293    2.1683 N   0  0  0  0  0  0  0  0  0  0  0  0
    0.2668    1.2118    2.5263 H   0  0  0  0  0  0  0  0  0  0  0  0
   -0.5118    3.1863    2.7135 C   0  0  0  0  0  0  0  0  0  0  0  0
   -1.4470    3.3159    3.2625 H   0  0  0  0  0  0  0  0  0  0  0  0
    0.3243    3.3682    3.3896 H   0  0  0  0  0  0  0  0  0  0  0  0
   -0.4850    3.9172    1.9023 H   0  0  0  0  0  0  0  0  0  0  0  0
  5  6  2  0  0  0  0
  5  7  1  0  0  0  0
  2  3  1  0  0  0  0
  2  4  1  0  0  0  0
  2  5  1  0  0  0  0
  1  2  1  0  0  0  0
 27 28  2  0  0  0  0
 27 29  1  0  0  0  0
 23 24  1  0  0  0  0
 23 25  1  0  0  0  0
 23 26  1  0  0  0  0
 20 21  1  0  0  0  0
 20 22  1  0  0  0  0
 20 23  1  0  0  0  0
 17 18  1  0  0  0  0
 17 19  1  0  0  0  0
 17 20  1  0  0  0  0
 14 15  1  0  0  0  0
 14 16  1  0  0  0  0
 14 17  1  0  0  0  0
 11 12  1  0  0  0  0
 11 13  1  0  0  0  0
 11 14  1  0  0  0  0
  9 10  1  0  0  0  0
  9 11  1  0  0  0  0
  9 27  1  0  0  0  0
  7  8  1  0  0  0  0
  7  9  1  0  0  0  0
 31 32  1  0  0  0  0
 31 33  1  0  0  0  0
 31 34  1  0  0  0  0
 29 30  1  0  0  0  0
 29 31  1  0  0  0  0
M  CHG  1  23   1
M  END
$$$$
default_name
  -OEChem-02102213163D

 34 33  0     1  0  0  0  0  0999 V2000
   -3.8899   -3.6747    1.6490 H   0  0  0  0  0  0  0  0  0  0  0  0
   -3.9109   -2.6717    1.2250 C   0  0  0  0  0  0  0  0  0  0  0  0
   -4.6009   -2.0517    1.7950 H   0  0  0  0  0  0  0  0  0  0  0  0
   -4.2309   -2.7237    0.1860 H   0  0  0  0  0  0  0  0  0  0  0  0
   -2.5229   -2.0787    1.2980 C   0  0  0  0  0  0  0  0  0  0  0  0
   -1.5999   -2.7227    1.7810 O   0  0  0  0  0  0  0  0  0  0  0  0
   -2.3659   -0.8447    0.8120 N   0  0  0  0  0  0  0  0  0  0  0  0
   -3.1749   -0.3807    0.4220 H   0  0  0  0  0  0  0  0  0  0  0  0
   -1.0919   -0.1077    0.8170 C   0  0  1  0  0  0  0  0  0  0  0  0
   -0.4136   -0.6011    1.5155 H   0  0  0  0  0  0  0  0  0  0  0  0
   -0.4834   -0.1723   -0.5965 C   0  0  0  0  0  0  0  0  0  0  0  0
   -1.2698    0.0365   -1.3234 H   0  0  0  0  0  0  0  0  0  0  0  0
    0.2827    0.5996   -0.6929 H   0  0  0  0  0  0  0  0  0  0  0  0
    0.1318   -1.5401   -0.9301 C   0  0  0  0  0  0  0  0  0  0  0  0
    0.2517   -2.1219   -0.0153 H   0  0  0  0  0  0  0  0  0  0  0  0
   -0.5330   -2.0771   -1.6095 H   0  0  0  0  0  0  0  0  0  0  0  0
    1.5029   -1.3613   -1.5965 C   0  0  0  0  0  0  0  0  0  0  0  0
    1.3816   -0.7656   -2.5044 H   0  0  0  0  0  0  0  0  0  0  0  0
    2.1664   -0.8322   -0.9096 H   0  0  0  0  0  0  0  0  0  0  0  0
    2.1072   -2.7253   -1.9527 C   0  0  0  0  0  0  0  0  0  0  0  0
    2.2134   -3.3088   -1.0324 H   0  0  0  0  0  0  0  0  0  0  0  0
    1.4081   -3.2552   -2.6067 H   0  0  0  0  0  0  0  0  0  0  0  0
    3.4250   -2.5807   -2.6213 N   0  3  0  0  0  0  0  0  0  0  0  0
    4.0796   -2.1002   -2.0166 H   0  0  0  0  0  0  0  0  0  0  0  0
    3.8098   -3.4888   -2.8498 H   0  0  0  0  0  0  0  0  0  0  0  0
    3.3307   -2.0487   -3.4785 H   0  0  0  0  0  0  0  0  0  0  0  0
   -1.3103    1.3348    1.2791 C   0  0  0  0  0  0  0  0  0  0  0  0
   -2.2333    1.9891    0.8084 O   0  0  0  0  0  0  0  0  0  0  0  0
   -0.4429    1.8293    2.1683 N   0  0  0  0  0  0  0  0  0  0  0  0
    0.2668    1.2118    2.5263 H   0  0  0  0  0  0  0  0  0  0  0  0
   -0.5118    3.1863    2.7135 C   0  0  0  0  0  0  0  0  0  0  0  0
   -1.4470    3.3159    3.2625 H   0  0  0  0  0  0  0  0  0  0  0  0
    0.3243    3.3682    3.3896 H   0  0  0  0  0  0  0  0  0  0  0  0
   -0.4850    3.9172    1.9023 H   0  0  0  0  0  0  0  0  0  0  0  0
  5  6  2  0  0  0  0
  5  7  1  0  0  0  0
  2  3  1  0  0  0  0
  2  4  1  0  0  0  0
  2  5  1  0  0  0  0
  1  2  1  0  0  0  0
 27 28  2  0  0  0  0
 27 29  1  0  0  0  0
 23 24  1  0  0  0  0
 23 25  1  0  0  0  0
 23 26  1  0  0  0  0
 20 21  1  0  0  0  0
 20 22  1  0  0  0  0
 20 23  1  0  0  0  0
 17 18  1  0  0  0  0
 17 19  1  0  0  0  0
 17 20  1  0  0  0  0
 14 15  1  0  0  0  0
 14 16  1  0  0  0  0
 14 17  1  0  0  0  0
 11 12  1  0  0  0  0
 11 13  1  0  0  0  0
 11 14  1  0  0  0  0
  9 10  1  0  0  0  0
  9 11  1  0  0  0  0
  9 27  1  0  0  0  0
  7  8  1  0  0  0  0
  7  9  1  0  0  0  0
 31 32  1  0  0  0  0
 31 33  1  0  0  0  0
 31 34  1  0  0  0  0
 29 30  1  0  0  0  0
 29 31  1  0  0  0  0
M  CHG  1  23   1
M  END
$$$$
default_name
  -OEChem-02102213163D

 34 33  0     1  0  0  0  0  0999 V2000
   -3.8899   -3.6747    1.6490 H   0  0  0  0  0  0  0  0  0  0  0  0
   -3.9109   -2.6717    1.2250 C   0  0  0  0  0  0  0  0  0  0  0  0
   -4.6009   -2.0517    1.7950 H   0  0  0  0  0  0  0  0  0  0  0  0
   -4.2309   -2.7237    0.1860 H   0  0  0  0  0  0  0  0  0  0  0  0
   -2.5229   -2.0787    1.2980 C   0  0  0  0  0  0  0  0  0  0  0  0
   -1.5999   -2.7227    1.7810 O   0  0  0  0  0  0  0  0  0  0  0  0
   -2.3659   -0.8447    0.8120 N   0  0  0  0  0  0  0  0  0  0  0  0
   -3.1749   -0.3807    0.4220 H   0  0  0  0  0  0  0  0  0  0  0  0
   -1.0919   -0.1077    0.8170 C   0  0  1  0  0  0  0  0  0  0  0  0
   -0.4136   -0.6011    1.5155 H   0  0  0  0  0  0  0  0  0  0  0  0
   -0.4834   -0.1723   -0.5965 C   0  0  0  0  0  0  0  0  0  0  0  0
   -1.2698    0.0365   -1.3234 H   0  0  0  0  0  0  0  0  0  0  0  0
    0.2827    0.5996   -0.6929 H   0  0  0  0  0  0  0  0  0  0  0  0
    0.1318   -1.5401   -0.9301 C   0  0  0  0  0  0  0  0  0  0  0  0
    0.0092   -2.2148   -0.0818 H   0  0  0  0  0  0  0  0  0  0  0  0
   -0.3791   -1.9619   -1.7979 H   0  0  0  0  0  0  0  0  0  0  0  0
    1.6271   -1.3916   -1.2433 C   0  0  0  0  0  0  0  0  0  0  0  0
    1.7473   -0.7037   -2.0836 H   0  0  0  0  0  0  0  0  0  0  0  0
    2.1346   -0.9782   -0.3695 H   0  0  0  0  0  0  0  0  0  0  0  0
    2.2371   -2.7527   -1.6008 C   0  0  0  0  0  0  0  0  0  0  0  0
    2.0998   -3.4287   -0.7505 H   0  0  0  0  0  0  0  0  0  0  0  0
    1.6873   -3.1676   -2.4510 H   0  0  0  0  0  0  0  0  0  0  0  0
    3.6796   -2.6343   -1.9320 N   0  3  0  0  0  0  0  0  0  0  0  0
    4.1955   -2.2607   -1.1452 H   0  0  0  0  0  0  0  0  0  0  0  0
    4.0667   -3.5401   -2.1657 H   0  0  0  0  0  0  0  0  0  0  0  0
    3.8115   -2.0164   -2.7242 H   0  0  0  0  0  0  0  0  0  0  0  0
   -1.3103    1.3348    1.2791 C   0  0  0  0  0  0  0  0  0  0  0  0
   -2.2333    1.9891    0.8084 O   0  0  0  0  0  0  0  0  0  0  0  0
   -0.4429    1.8293    2.1683 N   0  0  0  0  0  0  0  0  0  0  0  0
    0.2668    1.2118    2.5263 H   0  0  0  0  0  0  0  0  0  0  0  0
   -0.5118    3.1863    2.7135 C   0  0  0  0  0  0  0  0  0  0  0  0
   -1.4470    3.3159    3.2625 H   0  0  0  0  0  0  0  0  0  0  0  0
    0.3243    3.3682    3.3896 H   0  0  0  0  0  0  0  0  0  0  0  0
   -0.4850    3.9172    1.9023 H   0  0  0  0  0  0  0  0  0  0  0  0
  5  6  2  0  0  0  0
  5  7  1  0  0  0  0
  2  3  1  0  0  0  0
  2  4  1  0  0  0  0
  2  5  1  0  0  0  0
  1  2  1  0  0  0  0
 27 28  2  0  0  0  0
 27 29  1  0  0  0  0
 23 24  1  0  0  0  0
 23 25  1  0  0  0  0
 23 26  1  0  0  0  0
 20 21  1  0  0  0  0
 20 22  1  0  0  0  0
 20 23  1  0  0  0  0
 17 18  1  0  0  0  0
 17 19  1  0  0  0  0
 17 20  1  0  0  0  0
 14 15  1  0  0  0  0
 14 16  1  0  0  0  0
 14 17  1  0  0  0  0
 11 12  1  0  0  0  0
 11 13  1  0  0  0  0
 11 14  1  0  0  0  0
  9 10  1  0  0  0  0
  9 11  1  0  0  0  0
  9 27  1  0  0  0  0
  7  8  1  0  0  0  0
  7  9  1  0  0  0  0
 31 32  1  0  0  0  0
 31 33  1  0  0  0  0
 31 34  1  0  0  0  0
 29 30  1  0  0  0  0
 29 31  1  0  0  0  0
M  CHG  1  23   1
M  END
$$$$
default_name
  -OEChem-02102213163D

 34 33  0     1  0  0  0  0  0999 V2000
   -3.8899   -3.6747    1.6490 H   0  0  0  0  0  0  0  0  0  0  0  0
   -3.9109   -2.6717    1.2250 C   0  0  0  0  0  0  0  0  0  0  0  0
   -4.6009   -2.0517    1.7950 H   0  0  0  0  0  0  0  0  0  0  0  0
   -4.2309   -2.7237    0.1860 H   0  0  0  0  0  0  0  0  0  0  0  0
   -2.5229   -2.0787    1.2980 C   0  0  0  0  0  0  0  0  0  0  0  0
   -1.5999   -2.7227    1.7810 O   0  0  0  0  0  0  0  0  0  0  0  0
   -2.3659   -0.8447    0.8120 N   0  0  0  0  0  0  0  0  0  0  0  0
   -3.1749   -0.3807    0.4220 H   0  0  0  0  0  0  0  0  0  0  0  0
   -1.0919   -0.1077    0.8170 C   0  0  1  0  0  0  0  0  0  0  0  0
   -0.4136   -0.6011    1.5155 H   0  0  0  0  0  0  0  0  0  0  0  0
   -0.4834   -0.1723   -0.5965 C   0  0  0  0  0  0  0  0  0  0  0  0
   -1.2698    0.0365   -1.3234 H   0  0  0  0  0  0  0  0  0  0  0  0
    0.2827    0.5996   -0.6929 H   0  0  0  0  0  0  0  0  0  0  0  0
    0.1318   -1.5401   -0.9301 C   0  0  0  0  0  0  0  0  0  0  0  0
   -0.2150   -2.2840   -0.2116 H   0  0  0  0  0  0  0  0  0  0  0  0
   -0.1805   -1.8398   -1.9324 H   0  0  0  0  0  0  0  0  0  0  0  0
    1.6639   -1.4645   -0.8767 C   0  0  0  0  0  0  0  0  0  0  0  0
    2.0072   -0.7081   -1.5865 H   0  0  0  0  0  0  0  0  0  0  0  0
    1.9712   -1.1735    0.1298 H   0  0  0  0  0  0  0  0  0  0  0  0
    2.2800   -2.8230   -1.2338 C   0  0  0  0  0  0  0  0  0  0  0  0
    1.9183   -3.5673   -0.5169 H   0  0  0  0  0  0  0  0  0  0  0  0
    1.9261   -3.1148   -2.2272 H   0  0  0  0  0  0  0  0  0  0  0  0
    3.7637   -2.7719   -1.2131 N   0  3  0  0  0  0  0  0  0  0  0  0
    4.0977   -2.5124   -0.2933 H   0  0  0  0  0  0  0  0  0  0  0  0
    4.1544   -3.6750   -1.4510 H   0  0  0  0  0  0  0  0  0  0  0  0
    4.1039   -2.0904   -1.8815 H   0  0  0  0  0  0  0  0  0  0  0  0
   -1.3103    1.3348    1.2791 C   0  0  0  0  0  0  0  0  0  0  0  0
   -2.2333    1.9891    0.8084 O   0  0  0  0  0  0  0  0  0  0  0  0
   -0.4429    1.8293    2.1683 N   0  0  0  0  0  0  0  0  0  0  0  0
    0.2668    1.2118    2.5263 H   0  0  0  0  0  0  0  0  0  0  0  0
   -0.5118    3.1863    2.7135 C   0  0  0  0  0  0  0  0  0  0  0  0
   -1.4470    3.3159    3.2625 H   0  0  0  0  0  0  0  0  0  0  0  0
    0.3243    3.3682    3.3896 H   0  0  0  0  0  0  0  0  0  0  0  0
   -0.4850    3.9172    1.9023 H   0  0  0  0  0  0  0  0  0  0  0  0
  5  6  2  0  0  0  0
  5  7  1  0  0  0  0
  2  3  1  0  0  0  0
  2  4  1  0  0  0  0
  2  5  1  0  0  0  0
  1  2  1  0  0  0  0
 27 28  2  0  0  0  0
 27 29  1  0  0  0  0
 23 24  1  0  0  0  0
 23 25  1  0  0  0  0
 23 26  1  0  0  0  0
 20 21  1  0  0  0  0
 20 22  1  0  0  0  0
 20 23  1  0  0  0  0
 17 18  1  0  0  0  0
 17 19  1  0  0  0  0
 17 20  1  0  0  0  0
 14 15  1  0  0  0  0
 14 16  1  0  0  0  0
 14 17  1  0  0  0  0
 11 12  1  0  0  0  0
 11 13  1  0  0  0  0
 11 14  1  0  0  0  0
  9 10  1  0  0  0  0
  9 11  1  0  0  0  0
  9 27  1  0  0  0  0
  7  8  1  0  0  0  0
  7  9  1  0  0  0  0
 31 32  1  0  0  0  0
 31 33  1  0  0  0  0
 31 34  1  0  0  0  0
 29 30  1  0  0  0  0
 29 31  1  0  0  0  0
M  CHG  1  23   1
M  END
$$$$
default_name
  -OEChem-02102213163D

 34 33  0     1  0  0  0  0  0999 V2000
   -3.8899   -3.6747    1.6490 H   0  0  0  0  0  0  0  0  0  0  0  0
   -3.9109   -2.6717    1.2250 C   0  0  0  0  0  0  0  0  0  0  0  0
   -4.6009   -2.0517    1.7950 H   0  0  0  0  0  0  0  0  0  0  0  0
   -4.2309   -2.7237    0.1860 H   0  0  0  0  0  0  0  0  0  0  0  0
   -2.5229   -2.0787    1.2980 C   0  0  0  0  0  0  0  0  0  0  0  0
   -1.5999   -2.7227    1.7810 O   0  0  0  0  0  0  0  0  0  0  0  0
   -2.3659   -0.8447    0.8120 N   0  0  0  0  0  0  0  0  0  0  0  0
   -3.1749   -0.3807    0.4220 H   0  0  0  0  0  0  0  0  0  0  0  0
   -1.0919   -0.1077    0.8170 C   0  0  1  0  0  0  0  0  0  0  0  0
   -0.4136   -0.6011    1.5155 H   0  0  0  0  0  0  0  0  0  0  0  0
   -0.4834   -0.1723   -0.5965 C   0  0  0  0  0  0  0  0  0  0  0  0
   -1.2698    0.0365   -1.3234 H   0  0  0  0  0  0  0  0  0  0  0  0
    0.2827    0.5996   -0.6929 H   0  0  0  0  0  0  0  0  0  0  0  0
    0.1318   -1.5401   -0.9301 C   0  0  0  0  0  0  0  0  0  0  0  0
   -0.4055   -2.3247   -0.3958 H   0  0  0  0  0  0  0  0  0  0  0  0
    0.0491   -1.7191   -2.0039 H   0  0  0  0  0  0  0  0  0  0  0  0
    1.6110   -1.5749   -0.5216 C   0  0  0  0  0  0  0  0  0  0  0  0
    2.1433   -0.7784   -1.0470 H   0  0  0  0  0  0  0  0  0  0  0  0
    1.6874   -1.4047    0.5542 H   0  0  0  0  0  0  0  0  0  0  0  0
    2.2329   -2.9312   -0.8767 C   0  0  0  0  0  0  0  0  0  0  0  0
    1.6815   -3.7151   -0.3474 H   0  0  0  0  0  0  0  0  0  0  0  0
    2.1081   -3.1005   -1.9505 H   0  0  0  0  0  0  0  0  0  0  0  0
    3.6716   -2.9839   -0.5136 N   0  3  0  0  0  0  0  0  0  0  0  0
    3.7928   -2.8384    0.4809 H   0  0  0  0  0  0  0  0  0  0  0  0
    4.0668   -3.8843   -0.7544 H   0  0  0  0  0  0  0  0  0  0  0  0
    4.1881   -2.2657   -1.0078 H   0  0  0  0  0  0  0  0  0  0  0  0
   -1.3103    1.3348    1.2791 C   0  0  0  0  0  0  0  0  0  0  0  0
   -2.2333    1.9891    0.8084 O   0  0  0  0  0  0  0  0  0  0  0  0
   -0.4429    1.8293    2.1683 N   0  0  0  0  0  0  0  0  0  0  0  0
    0.2668    1.2118    2.5263 H   0  0  0  0  0  0  0  0  0  0  0  0
   -0.5118    3.1863    2.7135 C   0  0  0  0  0  0  0  0  0  0  0  0
   -1.4470    3.3159    3.2625 H   0  0  0  0  0  0  0  0  0  0  0  0
    0.3243    3.3682    3.3896 H   0  0  0  0  0  0  0  0  0  0  0  0
   -0.4850    3.9172    1.9023 H   0  0  0  0  0  0  0  0  0  0  0  0
  5  6  2  0  0  0  0
  5  7  1  0  0  0  0
  2  3  1  0  0  0  0
  2  4  1  0  0  0  0
  2  5  1  0  0  0  0
  1  2  1  0  0  0  0
 27 28  2  0  0  0  0
 27 29  1  0  0  0  0
 23 24  1  0  0  0  0
 23 25  1  0  0  0  0
 23 26  1  0  0  0  0
 20 21  1  0  0  0  0
 20 22  1  0  0  0  0
 20 23  1  0  0  0  0
 17 18  1  0  0  0  0
 17 19  1  0  0  0  0
 17 20  1  0  0  0  0
 14 15  1  0  0  0  0
 14 16  1  0  0  0  0
 14 17  1  0  0  0  0
 11 12  1  0  0  0  0
 11 13  1  0  0  0  0
 11 14  1  0  0  0  0
  9 10  1  0  0  0  0
  9 11  1  0  0  0  0
  9 27  1  0  0  0  0
  7  8  1  0  0  0  0
  7  9  1  0  0  0  0
 31 32  1  0  0  0  0
 31 33  1  0  0  0  0
 31 34  1  0  0  0  0
 29 30  1  0  0  0  0
 29 31  1  0  0  0  0
M  CHG  1  23   1
M  END
$$$$
default_name
  -OEChem-02102213163D

 34 33  0     1  0  0  0  0  0999 V2000
   -3.8899   -3.6747    1.6490 H   0  0  0  0  0  0  0  0  0  0  0  0
   -3.9109   -2.6717    1.2250 C   0  0  0  0  0  0  0  0  0  0  0  0
   -4.6009   -2.0517    1.7950 H   0  0  0  0  0  0  0  0  0  0  0  0
   -4.2309   -2.7237    0.1860 H   0  0  0  0  0  0  0  0  0  0  0  0
   -2.5229   -2.0787    1.2980 C   0  0  0  0  0  0  0  0  0  0  0  0
   -1.5999   -2.7227    1.7810 O   0  0  0  0  0  0  0  0  0  0  0  0
   -2.3659   -0.8447    0.8120 N   0  0  0  0  0  0  0  0  0  0  0  0
   -3.1749   -0.3807    0.4220 H   0  0  0  0  0  0  0  0  0  0  0  0
   -1.0919   -0.1077    0.8170 C   0  0  1  0  0  0  0  0  0  0  0  0
   -0.4136   -0.6011    1.5155 H   0  0  0  0  0  0  0  0  0  0  0  0
   -0.4834   -0.1723   -0.5965 C   0  0  0  0  0  0  0  0  0  0  0  0
   -1.2698    0.0365   -1.3234 H   0  0  0  0  0  0  0  0  0  0  0  0
    0.2827    0.5996   -0.6929 H   0  0  0  0  0  0  0  0  0  0  0  0
    0.1318   -1.5401   -0.9301 C   0  0  0  0  0  0  0  0  0  0  0  0
   -0.5494   -2.3343   -0.6218 H   0  0  0  0  0  0  0  0  0  0  0  0
    0.2942   -1.6080   -2.0076 H   0  0  0  0  0  0  0  0  0  0  0  0
    1.4718   -1.7154   -0.2023 C   0  0  0  0  0  0  0  0  0  0  0  0
    2.1466   -0.9100   -0.5017 H   0  0  0  0  0  0  0  0  0  0  0  0
    1.3025   -1.6560    0.8747 H   0  0  0  0  0  0  0  0  0  0  0  0
    2.0990   -3.0702   -0.5539 C   0  0  0  0  0  0  0  0  0  0  0  0
    1.4053   -3.8622   -0.2535 H   0  0  0  0  0  0  0  0  0  0  0  0
    2.2209   -3.1255   -1.6399 H   0  0  0  0  0  0  0  0  0  0  0  0
    3.4095   -3.2561    0.1189 N   0  3  0  0  0  0  0  0  0  0  0  0
    3.3015   -3.2164    1.1247 H   0  0  0  0  0  0  0  0  0  0  0  0
    3.8099   -4.1538   -0.1235 H   0  0  0  0  0  0  0  0  0  0  0  0
    4.0582   -2.5303   -0.1627 H   0  0  0  0  0  0  0  0  0  0  0  0
   -1.3103    1.3348    1.2791 C   0  0  0  0  0  0  0  0  0  0  0  0
   -2.2333    1.9891    0.8084 O   0  0  0  0  0  0  0  0  0  0  0  0
   -0.4429    1.8293    2.1683 N   0  0  0  0  0  0  0  0  0  0  0  0
    0.2668    1.2118    2.5263 H   0  0  0  0  0  0  0  0  0  0  0  0
   -0.5118    3.1863    2.7135 C   0  0  0  0  0  0  0  0  0  0  0  0
   -1.4470    3.3159    3.2625 H   0  0  0  0  0  0  0  0  0  0  0  0
    0.3243    3.3682    3.3896 H   0  0  0  0  0  0  0  0  0  0  0  0
   -0.4850    3.9172    1.9023 H   0  0  0  0  0  0  0  0  0  0  0  0
  5  6  2  0  0  0  0
  5  7  1  0  0  0  0
  2  3  1  0  0  0  0
  2  4  1  0  0  0  0
  2  5  1  0  0  0  0
  1  2  1  0  0  0  0
 27 28  2  0  0  0  0
 27 29  1  0  0  0  0
 23 24  1  0  0  0  0
 23 25  1  0  0  0  0
 23 26  1  0  0  0  0
 20 21  1  0  0  0  0
 20 22  1  0  0  0  0
 20 23  1  0  0  0  0
 17 18  1  0  0  0  0
 17 19  1  0  0  0  0
 17 20  1  0  0  0  0
 14 15  1  0  0  0  0
 14 16  1  0  0  0  0
 14 17  1  0  0  0  0
 11 12  1  0  0  0  0
 11 13  1  0  0  0  0
 11 14  1  0  0  0  0
  9 10  1  0  0  0  0
  9 11  1  0  0  0  0
  9 27  1  0  0  0  0
  7  8  1  0  0  0  0
  7  9  1  0  0  0  0
 31 32  1  0  0  0  0
 31 33  1  0  0  0  0
 31 34  1  0  0  0  0
 29 30  1  0  0  0  0
 29 31  1  0  0  0  0
M  CHG  1  23   1
M  END
$$$$
default_name
  -OEChem-02102213163D

 34 33  0     1  0  0  0  0  0999 V2000
   -3.8899   -3.6747    1.6490 H   0  0  0  0  0  0  0  0  0  0  0  0
   -3.9109   -2.6717    1.2250 C   0  0  0  0  0  0  0  0  0  0  0  0
   -4.6009   -2.0517    1.7950 H   0  0  0  0  0  0  0  0  0  0  0  0
   -4.2309   -2.7237    0.1860 H   0  0  0  0  0  0  0  0  0  0  0  0
   -2.5229   -2.0787    1.2980 C   0  0  0  0  0  0  0  0  0  0  0  0
   -1.5999   -2.7227    1.7810 O   0  0  0  0  0  0  0  0  0  0  0  0
   -2.3659   -0.8447    0.8120 N   0  0  0  0  0  0  0  0  0  0  0  0
   -3.1749   -0.3807    0.4220 H   0  0  0  0  0  0  0  0  0  0  0  0
   -1.0919   -0.1077    0.8170 C   0  0  1  0  0  0  0  0  0  0  0  0
   -0.4136   -0.6011    1.5155 H   0  0  0  0  0  0  0  0  0  0  0  0
   -0.4834   -0.1723   -0.5965 C   0  0  0  0  0  0  0  0  0  0  0  0
   -1.2698    0.0365   -1.3234 H   0  0  0  0  0  0  0  0  0  0  0  0
    0.2827    0.5996   -0.6929 H   0  0  0  0  0  0  0  0  0  0  0  0
    0.1318   -1.5401   -0.9301 C   0  0  0  0  0  0  0  0  0  0  0  0
   -0.6369   -2.3121   -0.8743 H   0  0  0  0  0  0  0  0  0  0  0  0
    0.5380   -1.5140   -1.9431 H   0  0  0  0  0  0  0  0  0  0  0  0
    1.2558   -1.8764    0.0596 C   0  0  0  0  0  0  0  0  0  0  0  0
    2.0168   -1.0937    0.0121 H   0  0  0  0  0  0  0  0  0  0  0  0
    0.8427   -1.9103    1.0696 H   0  0  0  0  0  0  0  0  0  0  0  0
    1.8875   -3.2303   -0.2873 C   0  0  0  0  0  0  0  0  0  0  0  0
    1.1087   -3.9985   -0.2418 H   0  0  0  0  0  0  0  0  0  0  0  0
    2.2569   -3.1882   -1.3164 H   0  0  0  0  0  0  0  0  0  0  0  0
    2.9953   -3.5697    0.6412 N   0  3  0  0  0  0  0  0  0  0  0  0
    2.6574   -3.6206    1.5942 H   0  0  0  0  0  0  0  0  0  0  0  0
    3.4013   -4.4649    0.3989 H   0  0  0  0  0  0  0  0  0  0  0  0
    3.7231   -2.8661    0.5964 H   0  0  0  0  0  0  0  0  0  0  0  0
   -1.3103    1.3348    1.2791 C   0  0  0  0  0  0  0  0  0  0  0  0
   -2.2333    1.9891    0.8084 O   0  0  0  0  0  0  0  0  0  0  0  0
   -0.4429    1.8293    2.1683 N   0  0  0  0  0  0  0  0  0  0  0  0
    0.2668    1.2118    2.5263 H   0  0  0  0  0  0  0  0  0  0  0  0
   -0.5118    3.1863    2.7135 C   0  0  0  0  0  0  0  0  0  0  0  0
   -1.4470    3.3159    3.2625 H   0  0  0  0  0  0  0  0  0  0  0  0
    0.3243    3.3682    3.3896 H   0  0  0  0  0  0  0  0  0  0  0  0
   -0.4850    3.9172    1.9023 H   0  0  0  0  0  0  0  0  0  0  0  0
  5  6  2  0  0  0  0
  5  7  1  0  0  0  0
  2  3  1  0  0  0  0
  2  4  1  0  0  0  0
  2  5  1  0  0  0  0
  1  2  1  0  0  0  0
 27 28  2  0  0  0  0
 27 29  1  0  0  0  0
 23 24  1  0  0  0  0
 23 25  1  0  0  0  0
 23 26  1  0  0  0  0
 20 21  1  0  0  0  0
 20 22  1  0  0  0  0
 20 23  1  0  0  0  0
 17 18  1  0  0  0  0
 17 19  1  0  0  0  0
 17 20  1  0  0  0  0
 14 15  1  0  0  0  0
 14 16  1  0  0  0  0
 14 17  1  0  0  0  0
 11 12  1  0  0  0  0
 11 13  1  0  0  0  0
 11 14  1  0  0  0  0
  9 10  1  0  0  0  0
  9 11  1  0  0  0  0
  9 27  1  0  0  0  0
  7  8  1  0  0  0  0
  7  9  1  0  0  0  0
 31 32  1  0  0  0  0
 31 33  1  0  0  0  0
 31 34  1  0  0  0  0
 29 30  1  0  0  0  0
 29 31  1  0  0  0  0
M  CHG  1  23   1
M  END
$$$$
default_name
  -OEChem-02102213163D

 34 33  0     1  0  0  0  0  0999 V2000
   -3.8899   -3.6747    1.6490 H   0  0  0  0  0  0  0  0  0  0  0  0
   -3.9109   -2.6717    1.2250 C   0  0  0  0  0  0  0  0  0  0  0  0
   -4.6009   -2.0517    1.7950 H   0  0  0  0  0  0  0  0  0  0  0  0
   -4.2309   -2.7237    0.1860 H   0  0  0  0  0  0  0  0  0  0  0  0
   -2.5229   -2.0787    1.2980 C   0  0  0  0  0  0  0  0  0  0  0  0
   -1.5999   -2.7227    1.7810 O   0  0  0  0  0  0  0  0  0  0  0  0
   -2.3659   -0.8447    0.8120 N   0  0  0  0  0  0  0  0  0  0  0  0
   -3.1749   -0.3807    0.4220 H   0  0  0  0  0  0  0  0  0  0  0  0
   -1.0919   -0.1077    0.8170 C   0  0  1  0  0  0  0  0  0  0  0  0
   -0.4136   -0.6011    1.5155 H   0  0  0  0  0  0  0  0  0  0  0  0
   -0.4834   -0.1723   -0.5965 C   0  0  0  0  0  0  0  0  0  0  0  0
   -1.2698    0.0365   -1.3234 H   0  0  0  0  0  0  0  0  0  0  0  0
    0.2827    0.5996   -0.6929 H   0  0  0  0  0  0  0  0  0  0  0  0
    0.1318   -1.5401   -0.9301 C   0  0  0  0  0  0  0  0  0  0  0  0
   -0.6619   -2.2595   -1.1360 H   0  0  0  0  0  0  0  0  0  0  0  0
    0.7640   -1.4437   -1.8149 H   0  0  0  0  0  0  0  0  0  0  0  0
    0.9779   -2.0469    0.2460 C   0  0  0  0  0  0  0  0  0  0  0  0
    1.7626   -1.3171    0.4595 H   0  0  0  0  0  0  0  0  0  0  0  0
    0.3393   -2.1503    1.1256 H   0  0  0  0  0  0  0  0  0  0  0  0
    1.6128   -3.4008   -0.0951 C   0  0  0  0  0  0  0  0  0  0  0  0
    0.8118   -4.1147   -0.3129 H   0  0  0  0  0  0  0  0  0  0  0  0
    2.2137   -3.2843   -1.0021 H   0  0  0  0  0  0  0  0  0  0  0  0
    2.4572   -3.9036    1.0178 N   0  3  0  0  0  0  0  0  0  0  0  0
    1.9044   -4.0234    1.8574 H   0  0  0  0  0  0  0  0  0  0  0  0
    2.8687   -4.7967    0.7770 H   0  0  0  0  0  0  0  0  0  0  0  0
    3.2057   -3.2503    1.2175 H   0  0  0  0  0  0  0  0  0  0  0  0
   -1.3103    1.3348    1.2791 C   0  0  0  0  0  0  0  0  0  0  0  0
   -2.2333    1.9891    0.8084 O   0  0  0  0  0  0  0  0  0  0  0  0
   -0.4429    1.8293    2.1683 N   0  0  0  0  0  0  0  0  0  0  0  0
    0.2668    1.2118    2.5263 H   0  0  0  0  0  0  0  0  0  0  0  0
   -0.5118    3.1863    2.7135 C   0  0  0  0  0  0  0  0  0  0  0  0
   -1.4470    3.3159    3.2625 H   0  0  0  0  0  0  0  0  0  0  0  0
    0.3243    3.3682    3.3896 H   0  0  0  0  0  0  0  0  0  0  0  0
   -0.4850    3.9172    1.9023 H   0  0  0  0  0  0  0  0  0  0  0  0
  5  6  2  0  0  0  0
  5  7  1  0  0  0  0
  2  3  1  0  0  0  0
  2  4  1  0  0  0  0
  2  5  1  0  0  0  0
  1  2  1  0  0  0  0
 27 28  2  0  0  0  0
 27 29  1  0  0  0  0
 23 24  1  0  0  0  0
 23 25  1  0  0  0  0
 23 26  1  0  0  0  0
 20 21  1  0  0  0  0
 20 22  1  0  0  0  0
 20 23  1  0  0  0  0
 17 18  1  0  0  0  0
 17 19  1  0  0  0  0
 17 20  1  0  0  0  0
 14 15  1  0  0  0  0
 14 16  1  0  0  0  0
 14 17  1  0  0  0  0
 11 12  1  0  0  0  0
 11 13  1  0  0  0  0
 11 14  1  0  0  0  0
  9 10  1  0  0  0  0
  9 11  1  0  0  0  0
  9 27  1  0  0  0  0
  7  8  1  0  0  0  0
  7  9  1  0  0  0  0
 31 32  1  0  0  0  0
 31 33  1  0  0  0  0
 31 34  1  0  0  0  0
 29 30  1  0  0  0  0
 29 31  1  0  0  0  0
M  CHG  1  23   1
M  END
$$$$
default_name
  -OEChem-02102213163D

 34 33  0     1  0  0  0  0  0999 V2000
   -3.8899   -3.6747    1.6490 H   0  0  0  0  0  0  0  0  0  0  0  0
   -3.9109   -2.6717    1.2250 C   0  0  0  0  0  0  0  0  0  0  0  0
   -4.6009   -2.0517    1.7950 H   0  0  0  0  0  0  0  0  0  0  0  0
   -4.2309   -2.7237    0.1860 H   0  0  0  0  0  0  0  0  0  0  0  0
   -2.5229   -2.0787    1.2980 C   0  0  0  0  0  0  0  0  0  0  0  0
   -1.5999   -2.7227    1.7810 O   0  0  0  0  0  0  0  0  0  0  0  0
   -2.3659   -0.8447    0.8120 N   0  0  0  0  0  0  0  0  0  0  0  0
   -3.1749   -0.3807    0.4220 H   0  0  0  0  0  0  0  0  0  0  0  0
   -1.0919   -0.1077    0.8170 C   0  0  1  0  0  0  0  0  0  0  0  0
   -0.4136   -0.6011    1.5155 H   0  0  0  0  0  0  0  0  0  0  0  0
   -0.4834   -0.1723   -0.5965 C   0  0  0  0  0  0  0  0  0  0  0  0
   -1.2698    0.0365   -1.3234 H   0  0  0  0  0  0  0  0  0  0  0  0
    0.2827    0.5996   -0.6929 H   0  0  0  0  0  0  0  0  0  0  0  0
    0.1318   -1.5401   -0.9301 C   0  0  0  0  0  0  0  0  0  0  0  0
   -0.6228   -2.1802   -1.3892 H   0  0  0  0  0  0  0  0  0  0  0  0
    0.9566   -1.4017   -1.6318 H   0  0  0  0  0  0  0  0  0  0  0  0
    0.6569   -2.2152    0.3444 C   0  0  0  0  0  0  0  0  0  0  0  0
    1.4015   -1.5650    0.8098 H   0  0  0  0  0  0  0  0  0  0  0  0
   -0.1732   -2.3597    1.0388 H   0  0  0  0  0  0  0  0  0  0  0  0
    1.2936   -3.5699    0.0096 C   0  0  0  0  0  0  0  0  0  0  0  0
    0.5349   -4.2029   -0.4620 H   0  0  0  0  0  0  0  0  0  0  0  0
    2.0941   -3.4073   -0.7185 H   0  0  0  0  0  0  0  0  0  0  0  0
    1.8320   -4.2349    1.2230 N   0  3  0  0  0  0  0  0  0  0  0  0
    1.0938   -4.3975    1.8964 H   0  0  0  0  0  0  0  0  0  0  0  0
    2.2486   -5.1264    0.9852 H   0  0  0  0  0  0  0  0  0  0  0  0
    2.5412   -3.6567    1.6585 H   0  0  0  0  0  0  0  0  0  0  0  0
   -1.3103    1.3348    1.2791 C   0  0  0  0  0  0  0  0  0  0  0  0
   -2.2333    1.9891    0.8084 O   0  0  0  0  0  0  0  0  0  0  0  0
   -0.4429    1.8293    2.1683 N   0  0  0  0  0  0  0  0  0  0  0  0
    0.2668    1.2118    2.5263 H   0  0  0  0  0  0  0  0  0  0  0  0
   -0.5118    3.1863    2.7135 C   0  0  0  0  0  0  0  0  0  0  0  0
   -1.4470    3.3159    3.2625 H   0  0  0  0  0  0  0  0  0  0  0  0
    0.3243    3.3682    3.3896 H   0  0  0  0  0  0  0  0  0  0  0  0
   -0.4850    3.9172    1.9023 H   0  0  0  0  0  0  0  0  0  0  0  0
  5  6  2  0  0  0  0
  5  7  1  0  0  0  0
  2  3  1  0  0  0  0
  2  4  1  0  0  0  0
  2  5  1  0  0  0  0
  1  2  1  0  0  0  0
 27 28  2  0  0  0  0
 27 29  1  0  0  0  0
 23 24  1  0  0  0  0
 23 25  1  0  0  0  0
 23 26  1  0  0  0  0
 20 21  1  0  0  0  0
 20 22  1  0  0  0  0
 20 23  1  0  0  0  0
 17 18  1  0  0  0  0
 17 19  1  0  0  0  0
 17 20  1  0  0  0  0
 14 15  1  0  0  0  0
 14 16  1  0  0  0  0
 14 17  1  0  0  0  0
 11 12  1  0  0  0  0
 11 13  1  0  0  0  0
 11 14  1  0  0  0  0
  9 10  1  0  0  0  0
  9 11  1  0  0  0  0
  9 27  1  0  0  0  0
  7  8  1  0  0  0  0
  7  9  1  0  0  0  0
 31 32  1  0  0  0  0
 31 33  1  0  0  0  0
 31 34  1  0  0  0  0
 29 30  1  0  0  0  0
 29 31  1  0  0  0  0
M  CHG  1  23   1
M  END
$$$$
default_name
  -OEChem-02102213163D

 34 33  0     1  0  0  0  0  0999 V2000
   -3.8899   -3.6747    1.6490 H   0  0  0  0  0  0  0  0  0  0  0  0
   -3.9109   -2.6717    1.2250 C   0  0  0  0  0  0  0  0  0  0  0  0
   -4.6009   -2.0517    1.7950 H   0  0  0  0  0  0  0  0  0  0  0  0
   -4.2309   -2.7237    0.1860 H   0  0  0  0  0  0  0  0  0  0  0  0
   -2.5229   -2.0787    1.2980 C   0  0  0  0  0  0  0  0  0  0  0  0
   -1.5999   -2.7227    1.7810 O   0  0  0  0  0  0  0  0  0  0  0  0
   -2.3659   -0.8447    0.8120 N   0  0  0  0  0  0  0  0  0  0  0  0
   -3.1749   -0.3807    0.4220 H   0  0  0  0  0  0  0  0  0  0  0  0
   -1.0919   -0.1077    0.8170 C   0  0  1  0  0  0  0  0  0  0  0  0
   -0.4136   -0.6011    1.5155 H   0  0  0  0  0  0  0  0  0  0  0  0
   -0.4834   -0.1723   -0.5965 C   0  0  0  0  0  0  0  0  0  0  0  0
   -1.2698    0.0365   -1.3234 H   0  0  0  0  0  0  0  0  0  0  0  0
    0.2827    0.5996   -0.6929 H   0  0  0  0  0  0  0  0  0  0  0  0
    0.1318   -1.5401   -0.9301 C   0  0  0  0  0  0  0  0  0  0  0  0
   -0.5223   -2.0795   -1.6164 H   0  0  0  0  0  0  0  0  0  0  0  0
    1.1029   -1.3909   -1.4062 H   0  0  0  0  0  0  0  0  0  0  0  0
    0.3147   -2.3700    0.3481 C   0  0  0  0  0  0  0  0  0  0  0  0
    0.9580   -1.8204    1.0394 H   0  0  0  0  0  0  0  0  0  0  0  0
   -0.6601   -2.5241    0.8152 H   0  0  0  0  0  0  0  0  0  0  0  0
    0.9516   -3.7261    0.0196 C   0  0  0  0  0  0  0  0  0  0  0  0
    0.2968   -4.2570   -0.6790 H   0  0  0  0  0  0  0  0  0  0  0  0
    1.9063   -3.5487   -0.4848 H   0  0  0  0  0  0  0  0  0  0  0  0
    1.1621   -4.5409    1.2428 N   0  3  0  0  0  0  0  0  0  0  0  0
    0.2807   -4.7174    1.7085 H   0  0  0  0  0  0  0  0  0  0  0  0
    1.5830   -5.4316    1.0092 H   0  0  0  0  0  0  0  0  0  0  0  0
    1.7749   -4.0576    1.8892 H   0  0  0  0  0  0  0  0  0  0  0  0
   -1.3103    1.3348    1.2791 C   0  0  0  0  0  0  0  0  0  0  0  0
   -2.2333    1.9891    0.8084 O   0  0  0  0  0  0  0  0  0  0  0  0
   -0.4429    1.8293    2.1683 N   0  0  0  0  0  0  0  0  0  0  0  0
    0.2668    1.2118    2.5263 H   0  0  0  0  0  0  0  0  0  0  0  0
   -0.5118    3.1863    2.7135 C   0  0  0  0  0  0  0  0  0  0  0  0
   -1.4470    3.3159    3.2625 H   0  0  0  0  0  0  0  0  0  0  0  0
    0.3243    3.3682    3.3896 H   0  0  0  0  0  0  0  0  0  0  0  0
   -0.4850    3.9172    1.9023 H   0  0  0  0  0  0  0  0  0  0  0  0
  5  6  2  0  0  0  0
  5  7  1  0  0  0  0
  2  3  1  0  0  0  0
  2  4  1  0  0  0  0
  2  5  1  0  0  0  0
  1  2  1  0  0  0  0
 27 28  2  0  0  0  0
 27 29  1  0  0  0  0
 23 24  1  0  0  0  0
 23 25  1  0  0  0  0
 23 26  1  0  0  0  0
 20 21  1  0  0  0  0
 20 22  1  0  0  0  0
 20 23  1  0  0  0  0
 17 18  1  0  0  0  0
 17 19  1  0  0  0  0
 17 20  1  0  0  0  0
 14 15  1  0  0  0  0
 14 16  1  0  0  0  0
 14 17  1  0  0  0  0
 11 12  1  0  0  0  0
 11 13  1  0  0  0  0
 11 14  1  0  0  0  0
  9 10  1  0  0  0  0
  9 11  1  0  0  0  0
  9 27  1  0  0  0  0
  7  8  1  0  0  0  0
  7  9  1  0  0  0  0
 31 32  1  0  0  0  0
 31 33  1  0  0  0  0
 31 34  1  0  0  0  0
 29 30  1  0  0  0  0
 29 31  1  0  0  0  0
M  CHG  1  23   1
M  END
$$$$
default_name
  -OEChem-02102213163D

 34 33  0     1  0  0  0  0  0999 V2000
   -3.8899   -3.6747    1.6490 H   0  0  0  0  0  0  0  0  0  0  0  0
   -3.9109   -2.6717    1.2250 C   0  0  0  0  0  0  0  0  0  0  0  0
   -4.6009   -2.0517    1.7950 H   0  0  0  0  0  0  0  0  0  0  0  0
   -4.2309   -2.7237    0.1860 H   0  0  0  0  0  0  0  0  0  0  0  0
   -2.5229   -2.0787    1.2980 C   0  0  0  0  0  0  0  0  0  0  0  0
   -1.5999   -2.7227    1.7810 O   0  0  0  0  0  0  0  0  0  0  0  0
   -2.3659   -0.8447    0.8120 N   0  0  0  0  0  0  0  0  0  0  0  0
   -3.1749   -0.3807    0.4220 H   0  0  0  0  0  0  0  0  0  0  0  0
   -1.0919   -0.1077    0.8170 C   0  0  1  0  0  0  0  0  0  0  0  0
   -0.4136   -0.6011    1.5155 H   0  0  0  0  0  0  0  0  0  0  0  0
   -0.4834   -0.1723   -0.5965 C   0  0  0  0  0  0  0  0  0  0  0  0
   -1.2698    0.0365   -1.3234 H   0  0  0  0  0  0  0  0  0  0  0  0
    0.2827    0.5996   -0.6929 H   0  0  0  0  0  0  0  0  0  0  0  0
    0.1318   -1.5401   -0.9301 C   0  0  0  0  0  0  0  0  0  0  0  0
   -0.3672   -1.9644   -1.8024 H   0  0  0  0  0  0  0  0  0  0  0  0
    1.1928   -1.4122   -1.1534 H   0  0  0  0  0  0  0  0  0  0  0  0
   -0.0254   -2.5007    0.2567 C   0  0  0  0  0  0  0  0  0  0  0  0
    0.4624   -2.0660    1.1325 H   0  0  0  0  0  0  0  0  0  0  0  0
   -1.0881   -2.6324    0.4699 H   0  0  0  0  0  0  0  0  0  0  0  0
    0.6102   -3.8589   -0.0657 C   0  0  0  0  0  0  0  0  0  0  0  0
    0.1138   -4.2734   -0.9491 H   0  0  0  0  0  0  0  0  0  0  0  0
    1.6631   -3.6990   -0.3171 H   0  0  0  0  0  0  0  0  0  0  0  0
    0.4933   -4.8010    1.0759 N   0  3  0  0  0  0  0  0  0  0  0  0
   -0.4793   -4.9611    1.3065 H   0  0  0  0  0  0  0  0  0  0  0  0
    0.9175   -5.6914    0.8474 H   0  0  0  0  0  0  0  0  0  0  0  0
    0.9591   -4.4257    1.8939 H   0  0  0  0  0  0  0  0  0  0  0  0
   -1.3103    1.3348    1.2791 C   0  0  0  0  0  0  0  0  0  0  0  0
   -2.2333    1.9891    0.8084 O   0  0  0  0  0  0  0  0  0  0  0  0
   -0.4429    1.8293    2.1683 N   0  0  0  0  0  0  0  0  0  0  0  0
    0.2668    1.2118    2.5263 H   0  0  0  0  0  0  0  0  0  0  0  0
   -0.5118    3.1863    2.7135 C   0  0  0  0  0  0  0  0  0  0  0  0
   -1.4470    3.3159    3.2625 H   0  0  0  0  0  0  0  0  0  0  0  0
    0.3243    3.3682    3.3896 H   0  0  0  0  0  0  0  0  0  0  0  0
   -0.4850    3.9172    1.9023 H   0  0  0  0  0  0  0  0  0  0  0  0
  5  6  2  0  0  0  0
  5  7  1  0  0  0  0
  2  3  1  0  0  0  0
  2  4  1  0  0  0  0
  2  5  1  0  0  0  0
  1  2  1  0  0  0  0
 27 28  2  0  0  0  0
 27 29  1  0  0  0  0
 23 24  1  0  0  0  0
 23 25  1  0  0  0  0
 23 26  1  0  0  0  0
 20 21  1  0  0  0  0
 20 22  1  0  0  0  0
 20 23  1  0  0  0  0
 17 18  1  0  0  0  0
 17 19  1  0  0  0  0
 17 20  1  0  0  0  0
 14 15  1  0  0  0  0
 14 16  1  0  0  0  0
 14 17  1  0  0  0  0
 11 12  1  0  0  0  0
 11 13  1  0  0  0  0
 11 14  1  0  0  0  0
  9 10  1  0  0  0  0
  9 11  1  0  0  0  0
  9 27  1  0  0  0  0
  7  8  1  0  0  0  0
  7  9  1  0  0  0  0
 31 32  1  0  0  0  0
 31 33  1  0  0  0  0
 31 34  1  0  0  0  0
 29 30  1  0  0  0  0
 29 31  1  0  0  0  0
M  CHG  1  23   1
M  END
$$$$
default_name
  -OEChem-02102213163D

 34 33  0     1  0  0  0  0  0999 V2000
   -3.8899   -3.6747    1.6490 H   0  0  0  0  0  0  0  0  0  0  0  0
   -3.9109   -2.6717    1.2250 C   0  0  0  0  0  0  0  0  0  0  0  0
   -4.6009   -2.0517    1.7950 H   0  0  0  0  0  0  0  0  0  0  0  0
   -4.2309   -2.7237    0.1860 H   0  0  0  0  0  0  0  0  0  0  0  0
   -2.5229   -2.0787    1.2980 C   0  0  0  0  0  0  0  0  0  0  0  0
   -1.5999   -2.7227    1.7810 O   0  0  0  0  0  0  0  0  0  0  0  0
   -2.3659   -0.8447    0.8120 N   0  0  0  0  0  0  0  0  0  0  0  0
   -3.1749   -0.3807    0.4220 H   0  0  0  0  0  0  0  0  0  0  0  0
   -1.0919   -0.1077    0.8170 C   0  0  1  0  0  0  0  0  0  0  0  0
   -0.4136   -0.6011    1.5155 H   0  0  0  0  0  0  0  0  0  0  0  0
   -0.4834   -0.1723   -0.5965 C   0  0  0  0  0  0  0  0  0  0  0  0
   -1.2698    0.0365   -1.3234 H   0  0  0  0  0  0  0  0  0  0  0  0
    0.2827    0.5996   -0.6929 H   0  0  0  0  0  0  0  0  0  0  0  0
    0.1318   -1.5401   -0.9301 C   0  0  0  0  0  0  0  0  0  0  0  0
   -0.1680   -1.8426   -1.9343 H   0  0  0  0  0  0  0  0  0  0  0  0
    1.2202   -1.4639   -0.8907 H   0  0  0  0  0  0  0  0  0  0  0  0
   -0.3402   -2.5983    0.0765 C   0  0  0  0  0  0  0  0  0  0  0  0
   -0.0516   -2.2851    1.0827 H   0  0  0  0  0  0  0  0  0  0  0  0
   -1.4280   -2.6771    0.0266 H   0  0  0  0  0  0  0  0  0  0  0  0
    0.2927   -3.9590   -0.2405 C   0  0  0  0  0  0  0  0  0  0  0  0
   -0.0017   -4.2511   -1.2538 H   0  0  0  0  0  0  0  0  0  0  0  0
    1.3811   -3.8479   -0.2266 H   0  0  0  0  0  0  0  0  0  0  0  0
   -0.1288   -4.9973    0.7336 N   0  3  0  0  0  0  0  0  0  0  0  0
   -1.1345   -5.1122    0.7179 H   0  0  0  0  0  0  0  0  0  0  0  0
    0.2973   -5.8883    0.5109 H   0  0  0  0  0  0  0  0  0  0  0  0
    0.1492   -4.7359    1.6723 H   0  0  0  0  0  0  0  0  0  0  0  0
   -1.3103    1.3348    1.2791 C   0  0  0  0  0  0  0  0  0  0  0  0
   -2.2333    1.9891    0.8084 O   0  0  0  0  0  0  0  0  0  0  0  0
   -0.4429    1.8293    2.1683 N   0  0  0  0  0  0  0  0  0  0  0  0
    0.2668    1.2118    2.5263 H   0  0  0  0  0  0  0  0  0  0  0  0
   -0.5118    3.1863    2.7135 C   0  0  0  0  0  0  0  0  0  0  0  0
   -1.4470    3.3159    3.2625 H   0  0  0  0  0  0  0  0  0  0  0  0
    0.3243    3.3682    3.3896 H   0  0  0  0  0  0  0  0  0  0  0  0
   -0.4850    3.9172    1.9023 H   0  0  0  0  0  0  0  0  0  0  0  0
  5  6  2  0  0  0  0
  5  7  1  0  0  0  0
  2  3  1  0  0  0  0
  2  4  1  0  0  0  0
  2  5  1  0  0  0  0
  1  2  1  0  0  0  0
 27 28  2  0  0  0  0
 27 29  1  0  0  0  0
 23 24  1  0  0  0  0
 23 25  1  0  0  0  0
 23 26  1  0  0  0  0
 20 21  1  0  0  0  0
 20 22  1  0  0  0  0
 20 23  1  0  0  0  0
 17 18  1  0  0  0  0
 17 19  1  0  0  0  0
 17 20  1  0  0  0  0
 14 15  1  0  0  0  0
 14 16  1  0  0  0  0
 14 17  1  0  0  0  0
 11 12  1  0  0  0  0
 11 13  1  0  0  0  0
 11 14  1  0  0  0  0
  9 10  1  0  0  0  0
  9 11  1  0  0  0  0
  9 27  1  0  0  0  0
  7  8  1  0  0  0  0
  7  9  1  0  0  0  0
 31 32  1  0  0  0  0
 31 33  1  0  0  0  0
 31 34  1  0  0  0  0
 29 30  1  0  0  0  0
 29 31  1  0  0  0  0
M  CHG  1  23   1
M  END
$$$$
default_name
  -OEChem-02102213163D

 34 33  0     1  0  0  0  0  0999 V2000
   -3.8899   -3.6747    1.6490 H   0  0  0  0  0  0  0  0  0  0  0  0
   -3.9109   -2.6717    1.2250 C   0  0  0  0  0  0  0  0  0  0  0  0
   -4.6009   -2.0517    1.7950 H   0  0  0  0  0  0  0  0  0  0  0  0
   -4.2309   -2.7237    0.1860 H   0  0  0  0  0  0  0  0  0  0  0  0
   -2.5229   -2.0787    1.2980 C   0  0  0  0  0  0  0  0  0  0  0  0
   -1.5999   -2.7227    1.7810 O   0  0  0  0  0  0  0  0  0  0  0  0
   -2.3659   -0.8447    0.8120 N   0  0  0  0  0  0  0  0  0  0  0  0
   -3.1749   -0.3807    0.4220 H   0  0  0  0  0  0  0  0  0  0  0  0
   -1.0919   -0.1077    0.8170 C   0  0  1  0  0  0  0  0  0  0  0  0
   -0.4136   -0.6011    1.5155 H   0  0  0  0  0  0  0  0  0  0  0  0
   -0.4834   -0.1723   -0.5965 C   0  0  0  0  0  0  0  0  0  0  0  0
   -1.2698    0.0365   -1.3234 H   0  0  0  0  0  0  0  0  0  0  0  0
    0.2827    0.5996   -0.6929 H   0  0  0  0  0  0  0  0  0  0  0  0
    0.1318   -1.5401   -0.9301 C   0  0  0  0  0  0  0  0  0  0  0  0
    0.0616   -1.7226   -2.0033 H   0  0  0  0  0  0  0  0  0  0  0  0
    1.1832   -1.5427   -0.6361 H   0  0  0  0  0  0  0  0  0  0  0  0
   -0.6083   -2.6563   -0.1801 C   0  0  0  0  0  0  0  0  0  0  0  0
   -0.5489   -2.4626    0.8936 H   0  0  0  0  0  0  0  0  0  0  0  0
   -1.6568   -2.6553   -0.4845 H   0  0  0  0  0  0  0  0  0  0  0  0
    0.0205   -4.0199   -0.4929 C   0  0  0  0  0  0  0  0  0  0  0  0
   -0.0418   -4.1914   -1.5724 H   0  0  0  0  0  0  0  0  0  0  0  0
    1.0795   -3.9852   -0.2196 H   0  0  0  0  0  0  0  0  0  0  0  0
   -0.6619   -5.1165    0.2393 N   0  3  0  0  0  0  0  0  0  0  0  0
   -1.6402   -5.1603   -0.0174 H   0  0  0  0  0  0  0  0  0  0  0  0
   -0.2353   -6.0087    0.0225 H   0  0  0  0  0  0  0  0  0  0  0  0
   -0.5994   -4.9670    1.2396 H   0  0  0  0  0  0  0  0  0  0  0  0
   -1.3103    1.3348    1.2791 C   0  0  0  0  0  0  0  0  0  0  0  0
   -2.2333    1.9891    0.8084 O   0  0  0  0  0  0  0  0  0  0  0  0
   -0.4429    1.8293    2.1683 N   0  0  0  0  0  0  0  0  0  0  0  0
    0.2668    1.2118    2.5263 H   0  0  0  0  0  0  0  0  0  0  0  0
   -0.5118    3.1863    2.7135 C   0  0  0  0  0  0  0  0  0  0  0  0
   -1.4470    3.3159    3.2625 H   0  0  0  0  0  0  0  0  0  0  0  0
    0.3243    3.3682    3.3896 H   0  0  0  0  0  0  0  0  0  0  0  0
   -0.4850    3.9172    1.9023 H   0  0  0  0  0  0  0  0  0  0  0  0
  5  6  2  0  0  0  0
  5  7  1  0  0  0  0
  2  3  1  0  0  0  0
  2  4  1  0  0  0  0
  2  5  1  0  0  0  0
  1  2  1  0  0  0  0
 27 28  2  0  0  0  0
 27 29  1  0  0  0  0
 23 24  1  0  0  0  0
 23 25  1  0  0  0  0
 23 26  1  0  0  0  0
 20 21  1  0  0  0  0
 20 22  1  0  0  0  0
 20 23  1  0  0  0  0
 17 18  1  0  0  0  0
 17 19  1  0  0  0  0
 17 20  1  0  0  0  0
 14 15  1  0  0  0  0
 14 16  1  0  0  0  0
 14 17  1  0  0  0  0
 11 12  1  0  0  0  0
 11 13  1  0  0  0  0
 11 14  1  0  0  0  0
  9 10  1  0  0  0  0
  9 11  1  0  0  0  0
  9 27  1  0  0  0  0
  7  8  1  0  0  0  0
  7  9  1  0  0  0  0
 31 32  1  0  0  0  0
 31 33  1  0  0  0  0
 31 34  1  0  0  0  0
 29 30  1  0  0  0  0
 29 31  1  0  0  0  0
M  CHG  1  23   1
M  END
$$$$
default_name
  -OEChem-02102213163D

 34 33  0     1  0  0  0  0  0999 V2000
   -3.8899   -3.6747    1.6490 H   0  0  0  0  0  0  0  0  0  0  0  0
   -3.9109   -2.6717    1.2250 C   0  0  0  0  0  0  0  0  0  0  0  0
   -4.6009   -2.0517    1.7950 H   0  0  0  0  0  0  0  0  0  0  0  0
   -4.2309   -2.7237    0.1860 H   0  0  0  0  0  0  0  0  0  0  0  0
   -2.5229   -2.0787    1.2980 C   0  0  0  0  0  0  0  0  0  0  0  0
   -1.5999   -2.7227    1.7810 O   0  0  0  0  0  0  0  0  0  0  0  0
   -2.3659   -0.8447    0.8120 N   0  0  0  0  0  0  0  0  0  0  0  0
   -3.1749   -0.3807    0.4220 H   0  0  0  0  0  0  0  0  0  0  0  0
   -1.0919   -0.1077    0.8170 C   0  0  1  0  0  0  0  0  0  0  0  0
   -0.4136   -0.6011    1.5155 H   0  0  0  0  0  0  0  0  0  0  0  0
   -0.4834   -0.1723   -0.5965 C   0  0  0  0  0  0  0  0  0  0  0  0
   -1.2698    0.0365   -1.3234 H   0  0  0  0  0  0  0  0  0  0  0  0
    0.2827    0.5996   -0.6929 H   0  0  0  0  0  0  0  0  0  0  0  0
    0.1318   -1.5401   -0.9301 C   0  0  0  0  0  0  0  0  0  0  0  0
    0.3060   -1.6123   -2.0045 H   0  0  0  0  0  0  0  0  0  0  0  0
    1.0844   -1.6430   -0.4068 H   0  0  0  0  0  0  0  0  0  0  0  0
   -0.8113   -2.6706   -0.4958 C   0  0  0  0  0  0  0  0  0  0  0  0
   -0.9957   -2.5865    0.5779 H   0  0  0  0  0  0  0  0  0  0  0  0
   -1.7587   -2.5684   -1.0287 H   0  0  0  0  0  0  0  0  0  0  0  0
   -0.1876   -4.0372   -0.8057 C   0  0  0  0  0  0  0  0  0  0  0  0
   -0.0037   -4.0984   -1.8833 H   0  0  0  0  0  0  0  0  0  0  0  0
    0.7789   -4.1017   -0.2966 H   0  0  0  0  0  0  0  0  0  0  0  0
   -1.0697   -5.1505   -0.3734 N   0  3  0  0  0  0  0  0  0  0  0  0
   -1.9620   -5.1022   -0.8490 H   0  0  0  0  0  0  0  0  0  0  0  0
   -0.6440   -6.0444   -0.5844 H   0  0  0  0  0  0  0  0  0  0  0  0
   -1.2358   -5.1034    0.6251 H   0  0  0  0  0  0  0  0  0  0  0  0
   -1.3103    1.3348    1.2791 C   0  0  0  0  0  0  0  0  0  0  0  0
   -2.2333    1.9891    0.8084 O   0  0  0  0  0  0  0  0  0  0  0  0
   -0.4429    1.8293    2.1683 N   0  0  0  0  0  0  0  0  0  0  0  0
    0.2668    1.2118    2.5263 H   0  0  0  0  0  0  0  0  0  0  0  0
   -0.5118    3.1863    2.7135 C   0  0  0  0  0  0  0  0  0  0  0  0
   -1.4470    3.3159    3.2625 H   0  0  0  0  0  0  0  0  0  0  0  0
    0.3243    3.3682    3.3896 H   0  0  0  0  0  0  0  0  0  0  0  0
   -0.4850    3.9172    1.9023 H   0  0  0  0  0  0  0  0  0  0  0  0
  5  6  2  0  0  0  0
  5  7  1  0  0  0  0
  2  3  1  0  0  0  0
  2  4  1  0  0  0  0
  2  5  1  0  0  0  0
  1  2  1  0  0  0  0
 27 28  2  0  0  0  0
 27 29  1  0  0  0  0
 23 24  1  0  0  0  0
 23 25  1  0  0  0  0
 23 26  1  0  0  0  0
 20 21  1  0  0  0  0
 20 22  1  0  0  0  0
 20 23  1  0  0  0  0
 17 18  1  0  0  0  0
 17 19  1  0  0  0  0
 17 20  1  0  0  0  0
 14 15  1  0  0  0  0
 14 16  1  0  0  0  0
 14 17  1  0  0  0  0
 11 12  1  0  0  0  0
 11 13  1  0  0  0  0
 11 14  1  0  0  0  0
  9 10  1  0  0  0  0
  9 11  1  0  0  0  0
  9 27  1  0  0  0  0
  7  8  1  0  0  0  0
  7  9  1  0  0  0  0
 31 32  1  0  0  0  0
 31 33  1  0  0  0  0
 31 34  1  0  0  0  0
 29 30  1  0  0  0  0
 29 31  1  0  0  0  0
M  CHG  1  23   1
M  END
$$$$
default_name
  -OEChem-02102213163D

 34 33  0     1  0  0  0  0  0999 V2000
   -3.8899   -3.6747    1.6490 H   0  0  0  0  0  0  0  0  0  0  0  0
   -3.9109   -2.6717    1.2250 C   0  0  0  0  0  0  0  0  0  0  0  0
   -4.6009   -2.0517    1.7950 H   0  0  0  0  0  0  0  0  0  0  0  0
   -4.2309   -2.7237    0.1860 H   0  0  0  0  0  0  0  0  0  0  0  0
   -2.5229   -2.0787    1.2980 C   0  0  0  0  0  0  0  0  0  0  0  0
   -1.5999   -2.7227    1.7810 O   0  0  0  0  0  0  0  0  0  0  0  0
   -2.3659   -0.8447    0.8120 N   0  0  0  0  0  0  0  0  0  0  0  0
   -3.1749   -0.3807    0.4220 H   0  0  0  0  0  0  0  0  0  0  0  0
   -1.0919   -0.1077    0.8170 C   0  0  1  0  0  0  0  0  0  0  0  0
   -0.4136   -0.6011    1.5155 H   0  0  0  0  0  0  0  0  0  0  0  0
   -0.4834   -0.1723   -0.5965 C   0  0  0  0  0  0  0  0  0  0  0  0
   -1.2698    0.0365   -1.3234 H   0  0  0  0  0  0  0  0  0  0  0  0
    0.2827    0.5996   -0.6929 H   0  0  0  0  0  0  0  0  0  0  0  0
    0.1318   -1.5401   -0.9301 C   0  0  0  0  0  0  0  0  0  0  0  0
    0.5486   -1.5195   -1.9379 H   0  0  0  0  0  0  0  0  0  0  0  0
    0.9304   -1.7582   -0.2184 H   0  0  0  0  0  0  0  0  0  0  0  0
   -0.9355   -2.6403   -0.8490 C   0  0  0  0  0  0  0  0  0  0  0  0
   -1.3615   -2.6484    0.1571 H   0  0  0  0  0  0  0  0  0  0  0  0
   -1.7269   -2.4224   -1.5689 H   0  0  0  0  0  0  0  0  0  0  0  0
   -0.3175   -4.0098   -1.1576 C   0  0  0  0  0  0  0  0  0  0  0  0
    0.1099   -3.9786   -2.1651 H   0  0  0  0  0  0  0  0  0  0  0  0
    0.4997   -4.1893   -0.4524 H   0  0  0  0  0  0  0  0  0  0  0  0
   -1.3243   -5.0969   -1.0627 N   0  3  0  0  0  0  0  0  0  0  0  0
   -2.0780   -4.9418   -1.7205 H   0  0  0  0  0  0  0  0  0  0  0  0
   -0.9009   -5.9931   -1.2686 H   0  0  0  0  0  0  0  0  0  0  0  0
   -1.7166   -5.1356   -0.1292 H   0  0  0  0  0  0  0  0  0  0  0  0
   -1.3103    1.3348    1.2791 C   0  0  0  0  0  0  0  0  0  0  0  0
   -2.2333    1.9891    0.8084 O   0  0  0  0  0  0  0  0  0  0  0  0
   -0.4429    1.8293    2.1683 N   0  0  0  0  0  0  0  0  0  0  0  0
    0.2668    1.2118    2.5263 H   0  0  0  0  0  0  0  0  0  0  0  0
   -0.5118    3.1863    2.7135 C   0  0  0  0  0  0  0  0  0  0  0  0
   -1.4470    3.3159    3.2625 H   0  0  0  0  0  0  0  0  0  0  0  0
    0.3243    3.3682    3.3896 H   0  0  0  0  0  0  0  0  0  0  0  0
   -0.4850    3.9172    1.9023 H   0  0  0  0  0  0  0  0  0  0  0  0
  5  6  2  0  0  0  0
  5  7  1  0  0  0  0
  2  3  1  0  0  0  0
  2  4  1  0  0  0  0
  2  5  1  0  0  0  0
  1  2  1  0  0  0  0
 27 28  2  0  0  0  0
 27 29  1  0  0  0  0
 23 24  1  0  0  0  0
 23 25  1  0  0  0  0
 23 26  1  0  0  0  0
 20 21  1  0  0  0  0
 20 22  1  0  0  0  0
 20 23  1  0  0  0  0
 17 18  1  0  0  0  0
 17 19  1  0  0  0  0
 17 20  1  0  0  0  0
 14 15  1  0  0  0  0
 14 16  1  0  0  0  0
 14 17  1  0  0  0  0
 11 12  1  0  0  0  0
 11 13  1  0  0  0  0
 11 14  1  0  0  0  0
  9 10  1  0  0  0  0
  9 11  1  0  0  0  0
  9 27  1  0  0  0  0
  7  8  1  0  0  0  0
  7  9  1  0  0  0  0
 31 32  1  0  0  0  0
 31 33  1  0  0  0  0
 31 34  1  0  0  0  0
 29 30  1  0  0  0  0
 29 31  1  0  0  0  0
M  CHG  1  23   1
M  END
$$$$
default_name
  -OEChem-02102213163D

 34 33  0     1  0  0  0  0  0999 V2000
   -3.8899   -3.6747    1.6490 H   0  0  0  0  0  0  0  0  0  0  0  0
   -3.9109   -2.6717    1.2250 C   0  0  0  0  0  0  0  0  0  0  0  0
   -4.6009   -2.0517    1.7950 H   0  0  0  0  0  0  0  0  0  0  0  0
   -4.2309   -2.7237    0.1860 H   0  0  0  0  0  0  0  0  0  0  0  0
   -2.5229   -2.0787    1.2980 C   0  0  0  0  0  0  0  0  0  0  0  0
   -1.5999   -2.7227    1.7810 O   0  0  0  0  0  0  0  0  0  0  0  0
   -2.3659   -0.8447    0.8120 N   0  0  0  0  0  0  0  0  0  0  0  0
   -3.1749   -0.3807    0.4220 H   0  0  0  0  0  0  0  0  0  0  0  0
   -1.0919   -0.1077    0.8170 C   0  0  1  0  0  0  0  0  0  0  0  0
   -0.4136   -0.6011    1.5155 H   0  0  0  0  0  0  0  0  0  0  0  0
   -0.4834   -0.1723   -0.5965 C   0  0  0  0  0  0  0  0  0  0  0  0
   -1.2698    0.0365   -1.3234 H   0  0  0  0  0  0  0  0  0  0  0  0
    0.2827    0.5996   -0.6929 H   0  0  0  0  0  0  0  0  0  0  0  0
    0.1318   -1.5401   -0.9301 C   0  0  0  0  0  0  0  0  0  0  0  0
    0.7728   -1.4503   -1.8081 H   0  0  0  0  0  0  0  0  0  0  0  0
    0.7319   -1.8803   -0.0839 H   0  0  0  0  0  0  0  0  0  0  0  0
   -0.9723   -2.5674   -1.2157 C   0  0  0  0  0  0  0  0  0  0  0  0
   -1.6213   -2.6440   -0.3400 H   0  0  0  0  0  0  0  0  0  0  0  0
   -1.5635   -2.2271   -2.0681 H   0  0  0  0  0  0  0  0  0  0  0  0
   -0.3603   -3.9395   -1.5246 C   0  0  0  0  0  0  0  0  0  0  0  0
    0.2913   -3.8400   -2.3987 H   0  0  0  0  0  0  0  0  0  0  0  0
    0.2609   -4.2420   -0.6762 H   0  0  0  0  0  0  0  0  0  0  0  0
   -1.4084   -4.9593   -1.7816 N   0  3  0  0  0  0  0  0  0  0  0  0
   -1.9802   -4.6900   -2.5724 H   0  0  0  0  0  0  0  0  0  0  0  0
   -0.9886   -5.8582   -1.9832 H   0  0  0  0  0  0  0  0  0  0  0  0
   -2.0091   -5.0616   -0.9719 H   0  0  0  0  0  0  0  0  0  0  0  0
   -1.3103    1.3348    1.2791 C   0  0  0  0  0  0  0  0  0  0  0  0
   -2.2333    1.9891    0.8084 O   0  0  0  0  0  0  0  0  0  0  0  0
   -0.4429    1.8293    2.1683 N   0  0  0  0  0  0  0  0  0  0  0  0
    0.2668    1.2118    2.5263 H   0  0  0  0  0  0  0  0  0  0  0  0
   -0.5118    3.1863    2.7135 C   0  0  0  0  0  0  0  0  0  0  0  0
   -1.4470    3.3159    3.2625 H   0  0  0  0  0  0  0  0  0  0  0  0
    0.3243    3.3682    3.3896 H   0  0  0  0  0  0  0  0  0  0  0  0
   -0.4850    3.9172    1.9023 H   0  0  0  0  0  0  0  0  0  0  0  0
  5  6  2  0  0  0  0
  5  7  1  0  0  0  0
  2  3  1  0  0  0  0
  2  4  1  0  0  0  0
  2  5  1  0  0  0  0
  1  2  1  0  0  0  0
 27 28  2  0  0  0  0
 27 29  1  0  0  0  0
 23 24  1  0  0  0  0
 23 25  1  0  0  0  0
 23 26  1  0  0  0  0
 20 21  1  0  0  0  0
 20 22  1  0  0  0  0
 20 23  1  0  0  0  0
 17 18  1  0  0  0  0
 17 19  1  0  0  0  0
 17 20  1  0  0  0  0
 14 15  1  0  0  0  0
 14 16  1  0  0  0  0
 14 17  1  0  0  0  0
 11 12  1  0  0  0  0
 11 13  1  0  0  0  0
 11 14  1  0  0  0  0
  9 10  1  0  0  0  0
  9 11  1  0  0  0  0
  9 27  1  0  0  0  0
  7  8  1  0  0  0  0
  7  9  1  0  0  0  0
 31 32  1  0  0  0  0
 31 33  1  0  0  0  0
 31 34  1  0  0  0  0
 29 30  1  0  0  0  0
 29 31  1  0  0  0  0
M  CHG  1  23   1
M  END
$$$$
default_name
  -OEChem-02102213163D

 34 33  0     1  0  0  0  0  0999 V2000
   -3.8899   -3.6747    1.6490 H   0  0  0  0  0  0  0  0  0  0  0  0
   -3.9109   -2.6717    1.2250 C   0  0  0  0  0  0  0  0  0  0  0  0
   -4.6009   -2.0517    1.7950 H   0  0  0  0  0  0  0  0  0  0  0  0
   -4.2309   -2.7237    0.1860 H   0  0  0  0  0  0  0  0  0  0  0  0
   -2.5229   -2.0787    1.2980 C   0  0  0  0  0  0  0  0  0  0  0  0
   -1.5999   -2.7227    1.7810 O   0  0  0  0  0  0  0  0  0  0  0  0
   -2.3659   -0.8447    0.8120 N   0  0  0  0  0  0  0  0  0  0  0  0
   -3.1749   -0.3807    0.4220 H   0  0  0  0  0  0  0  0  0  0  0  0
   -1.0919   -0.1077    0.8170 C   0  0  1  0  0  0  0  0  0  0  0  0
   -0.4136   -0.6011    1.5155 H   0  0  0  0  0  0  0  0  0  0  0  0
   -0.4834   -0.1723   -0.5965 C   0  0  0  0  0  0  0  0  0  0  0  0
   -1.2698    0.0365   -1.3234 H   0  0  0  0  0  0  0  0  0  0  0  0
    0.2827    0.5996   -0.6929 H   0  0  0  0  0  0  0  0  0  0  0  0
    0.1318   -1.5401   -0.9301 C   0  0  0  0  0  0  0  0  0  0  0  0
    0.9633   -1.4095   -1.6240 H   0  0  0  0  0  0  0  0  0  0  0  0
    0.5023   -2.0010   -0.0124 H   0  0  0  0  0  0  0  0  0  0  0  0
   -0.9193   -2.4570   -1.5707 C   0  0  0  0  0  0  0  0  0  0  0  0
   -1.7575   -2.5736   -0.8795 H   0  0  0  0  0  0  0  0  0  0  0  0
   -1.2797   -1.9960   -2.4925 H   0  0  0  0  0  0  0  0  0  0  0  0
   -0.3132   -3.8312   -1.8816 C   0  0  0  0  0  0  0  0  0  0  0  0
    0.5282   -3.6921   -2.5683 H   0  0  0  0  0  0  0  0  0  0  0  0
    0.0789   -4.2564   -0.9528 H   0  0  0  0  0  0  0  0  0  0  0  0
   -1.3163   -4.7473   -2.4811 N   0  3  0  0  0  0  0  0  0  0  0  0
   -1.6752   -4.3640   -3.3466 H   0  0  0  0  0  0  0  0  0  0  0  0
   -0.9010   -5.6489   -2.6798 H   0  0  0  0  0  0  0  0  0  0  0  0
   -2.0932   -4.8863   -1.8456 H   0  0  0  0  0  0  0  0  0  0  0  0
   -1.3103    1.3348    1.2791 C   0  0  0  0  0  0  0  0  0  0  0  0
   -2.2333    1.9891    0.8084 O   0  0  0  0  0  0  0  0  0  0  0  0
   -0.4429    1.8293    2.1683 N   0  0  0  0  0  0  0  0  0  0  0  0
    0.2668    1.2118    2.5263 H   0  0  0  0  0  0  0  0  0  0  0  0
   -0.5118    3.1863    2.7135 C   0  0  0  0  0  0  0  0  0  0  0  0
   -1.4470    3.3159    3.2625 H   0  0  0  0  0  0  0  0  0  0  0  0
    0.3243    3.3682    3.3896 H   0  0  0  0  0  0  0  0  0  0  0  0
   -0.4850    3.9172    1.9023 H   0  0  0  0  0  0  0  0  0  0  0  0
  5  6  2  0  0  0  0
  5  7  1  0  0  0  0
  2  3  1  0  0  0  0
  2  4  1  0  0  0  0
  2  5  1  0  0  0  0
  1  2  1  0  0  0  0
 27 28  2  0  0  0  0
 27 29  1  0  0  0  0
 23 24  1  0  0  0  0
 23 25  1  0  0  0  0
 23 26  1  0  0  0  0
 20 21  1  0  0  0  0
 20 22  1  0  0  0  0
 20 23  1  0  0  0  0
 17 18  1  0  0  0  0
 17 19  1  0  0  0  0
 17 20  1  0  0  0  0
 14 15  1  0  0  0  0
 14 16  1  0  0  0  0
 14 17  1  0  0  0  0
 11 12  1  0  0  0  0
 11 13  1  0  0  0  0
 11 14  1  0  0  0  0
  9 10  1  0  0  0  0
  9 11  1  0  0  0  0
  9 27  1  0  0  0  0
  7  8  1  0  0  0  0
  7  9  1  0  0  0  0
 31 32  1  0  0  0  0
 31 33  1  0  0  0  0
 31 34  1  0  0  0  0
 29 30  1  0  0  0  0
 29 31  1  0  0  0  0
M  CHG  1  23   1
M  END
$$$$
default_name
  -OEChem-02102213163D

 34 33  0     1  0  0  0  0  0999 V2000
   -3.8899   -3.6747    1.6490 H   0  0  0  0  0  0  0  0  0  0  0  0
   -3.9109   -2.6717    1.2250 C   0  0  0  0  0  0  0  0  0  0  0  0
   -4.6009   -2.0517    1.7950 H   0  0  0  0  0  0  0  0  0  0  0  0
   -4.2309   -2.7237    0.1860 H   0  0  0  0  0  0  0  0  0  0  0  0
   -2.5229   -2.0787    1.2980 C   0  0  0  0  0  0  0  0  0  0  0  0
   -1.5999   -2.7227    1.7810 O   0  0  0  0  0  0  0  0  0  0  0  0
   -2.3659   -0.8447    0.8120 N   0  0  0  0  0  0  0  0  0  0  0  0
   -3.1749   -0.3807    0.4220 H   0  0  0  0  0  0  0  0  0  0  0  0
   -1.0919   -0.1077    0.8170 C   0  0  1  0  0  0  0  0  0  0  0  0
   -0.4136   -0.6011    1.5155 H   0  0  0  0  0  0  0  0  0  0  0  0
   -0.4834   -0.1723   -0.5965 C   0  0  0  0  0  0  0  0  0  0  0  0
   -1.2698    0.0365   -1.3234 H   0  0  0  0  0  0  0  0  0  0  0  0
    0.2827    0.5996   -0.6929 H   0  0  0  0  0  0  0  0  0  0  0  0
    0.1318   -1.5401   -0.9301 C   0  0  0  0  0  0  0  0  0  0  0  0
    1.1072   -1.4000   -1.3979 H   0  0  0  0  0  0  0  0  0  0  0  0
    0.2572   -2.1121   -0.0087 H   0  0  0  0  0  0  0  0  0  0  0  0
   -0.7802   -2.3165   -1.8901 C   0  0  0  0  0  0  0  0  0  0  0  0
   -1.7608   -2.4421   -1.4248 H   0  0  0  0  0  0  0  0  0  0  0  0
   -0.8948   -1.7446   -2.8131 H   0  0  0  0  0  0  0  0  0  0  0  0
   -0.1794   -3.6923   -2.2045 C   0  0  0  0  0  0  0  0  0  0  0  0
    0.8043   -3.5450   -2.6621 H   0  0  0  0  0  0  0  0  0  0  0  0
   -0.0339   -4.2314   -1.2635 H   0  0  0  0  0  0  0  0  0  0  0  0
   -1.0542   -4.4751   -3.1136 N   0  3  0  0  0  0  0  0  0  0  0  0
   -1.1840   -3.9861   -3.9904 H   0  0  0  0  0  0  0  0  0  0  0  0
   -0.6441   -5.3795   -3.3107 H   0  0  0  0  0  0  0  0  0  0  0  0
   -1.9633   -4.6218   -2.6907 H   0  0  0  0  0  0  0  0  0  0  0  0
   -1.3103    1.3348    1.2791 C   0  0  0  0  0  0  0  0  0  0  0  0
   -2.2333    1.9891    0.8084 O   0  0  0  0  0  0  0  0  0  0  0  0
   -0.4429    1.8293    2.1683 N   0  0  0  0  0  0  0  0  0  0  0  0
    0.2668    1.2118    2.5263 H   0  0  0  0  0  0  0  0  0  0  0  0
   -0.5118    3.1863    2.7135 C   0  0  0  0  0  0  0  0  0  0  0  0
   -1.4470    3.3159    3.2625 H   0  0  0  0  0  0  0  0  0  0  0  0
    0.3243    3.3682    3.3896 H   0  0  0  0  0  0  0  0  0  0  0  0
   -0.4850    3.9172    1.9023 H   0  0  0  0  0  0  0  0  0  0  0  0
  5  6  2  0  0  0  0
  5  7  1  0  0  0  0
  2  3  1  0  0  0  0
  2  4  1  0  0  0  0
  2  5  1  0  0  0  0
  1  2  1  0  0  0  0
 27 28  2  0  0  0  0
 27 29  1  0  0  0  0
 23 24  1  0  0  0  0
 23 25  1  0  0  0  0
 23 26  1  0  0  0  0
 20 21  1  0  0  0  0
 20 22  1  0  0  0  0
 20 23  1  0  0  0  0
 17 18  1  0  0  0  0
 17 19  1  0  0  0  0
 17 20  1  0  0  0  0
 14 15  1  0  0  0  0
 14 16  1  0  0  0  0
 14 17  1  0  0  0  0
 11 12  1  0  0  0  0
 11 13  1  0  0  0  0
 11 14  1  0  0  0  0
  9 10  1  0  0  0  0
  9 11  1  0  0  0  0
  9 27  1  0  0  0  0
  7  8  1  0  0  0  0
  7  9  1  0  0  0  0
 31 32  1  0  0  0  0
 31 33  1  0  0  0  0
 31 34  1  0  0  0  0
 29 30  1  0  0  0  0
 29 31  1  0  0  0  0
M  CHG  1  23   1
M  END
$$$$
default_name
  -OEChem-02102213163D

 34 33  0     1  0  0  0  0  0999 V2000
   -3.8899   -3.6747    1.6490 H   0  0  0  0  0  0  0  0  0  0  0  0
   -3.9109   -2.6717    1.2250 C   0  0  0  0  0  0  0  0  0  0  0  0
   -4.6009   -2.0517    1.7950 H   0  0  0  0  0  0  0  0  0  0  0  0
   -4.2309   -2.7237    0.1860 H   0  0  0  0  0  0  0  0  0  0  0  0
   -2.5229   -2.0787    1.2980 C   0  0  0  0  0  0  0  0  0  0  0  0
   -1.5999   -2.7227    1.7810 O   0  0  0  0  0  0  0  0  0  0  0  0
   -2.3659   -0.8447    0.8120 N   0  0  0  0  0  0  0  0  0  0  0  0
   -3.1749   -0.3807    0.4220 H   0  0  0  0  0  0  0  0  0  0  0  0
   -1.0919   -0.1077    0.8170 C   0  0  1  0  0  0  0  0  0  0  0  0
   -0.4136   -0.6011    1.5155 H   0  0  0  0  0  0  0  0  0  0  0  0
   -0.4834   -0.1723   -0.5965 C   0  0  0  0  0  0  0  0  0  0  0  0
   -1.2698    0.0365   -1.3234 H   0  0  0  0  0  0  0  0  0  0  0  0
    0.2827    0.5996   -0.6929 H   0  0  0  0  0  0  0  0  0  0  0  0
    0.1318   -1.5401   -0.9301 C   0  0  0  0  0  0  0  0  0  0  0  0
    1.1946   -1.4222   -1.1454 H   0  0  0  0  0  0  0  0  0  0  0  0
    0.0134   -2.2061   -0.0732 H   0  0  0  0  0  0  0  0  0  0  0  0
   -0.5642   -2.1555   -2.1519 C   0  0  0  0  0  0  0  0  0  0  0  0
   -1.6309   -2.2584   -1.9386 H   0  0  0  0  0  0  0  0  0  0  0  0
   -0.4350   -1.4903   -3.0080 H   0  0  0  0  0  0  0  0  0  0  0  0
    0.0321   -3.5321   -2.4711 C   0  0  0  0  0  0  0  0  0  0  0  0
    1.1010   -3.4087   -2.6739 H   0  0  0  0  0  0  0  0  0  0  0  0
   -0.0699   -4.1687   -1.5870 H   0  0  0  0  0  0  0  0  0  0  0  0
   -0.6400   -4.1614   -3.6359 N   0  3  0  0  0  0  0  0  0  0  0  0
   -0.5399   -3.5819   -4.4599 H   0  0  0  0  0  0  0  0  0  0  0  0
   -0.2355   -5.0683   -3.8331 H   0  0  0  0  0  0  0  0  0  0  0  0
   -1.6283   -4.2859   -3.4498 H   0  0  0  0  0  0  0  0  0  0  0  0
   -1.3103    1.3348    1.2791 C   0  0  0  0  0  0  0  0  0  0  0  0
   -2.2333    1.9891    0.8084 O   0  0  0  0  0  0  0  0  0  0  0  0
   -0.4429    1.8293    2.1683 N   0  0  0  0  0  0  0  0  0  0  0  0
    0.2668    1.2118    2.5263 H   0  0  0  0  0  0  0  0  0  0  0  0
   -0.5118    3.1863    2.7135 C   0  0  0  0  0  0  0  0  0  0  0  0
   -1.4470    3.3159    3.2625 H   0  0  0  0  0  0  0  0  0  0  0  0
    0.3243    3.3682    3.3896 H   0  0  0  0  0  0  0  0  0  0  0  0
   -0.4850    3.9172    1.9023 H   0  0  0  0  0  0  0  0  0  0  0  0
  5  6  2  0  0  0  0
  5  7  1  0  0  0  0
  2  3  1  0  0  0  0
  2  4  1  0  0  0  0
  2  5  1  0  0  0  0
  1  2  1  0  0  0  0
 27 28  2  0  0  0  0
 27 29  1  0  0  0  0
 23 24  1  0  0  0  0
 23 25  1  0  0  0  0
 23 26  1  0  0  0  0
 20 21  1  0  0  0  0
 20 22  1  0  0  0  0
 20 23  1  0  0  0  0
 17 18  1  0  0  0  0
 17 19  1  0  0  0  0
 17 20  1  0  0  0  0
 14 15  1  0  0  0  0
 14 16  1  0  0  0  0
 14 17  1  0  0  0  0
 11 12  1  0  0  0  0
 11 13  1  0  0  0  0
 11 14  1  0  0  0  0
  9 10  1  0  0  0  0
  9 11  1  0  0  0  0
  9 27  1  0  0  0  0
  7  8  1  0  0  0  0
  7  9  1  0  0  0  0
 31 32  1  0  0  0  0
 31 33  1  0  0  0  0
 31 34  1  0  0  0  0
 29 30  1  0  0  0  0
 29 31  1  0  0  0  0
M  CHG  1  23   1
M  END
$$$$
default_name
  -OEChem-02102213163D

 34 33  0     1  0  0  0  0  0999 V2000
   -3.8899   -3.6747    1.6490 H   0  0  0  0  0  0  0  0  0  0  0  0
   -3.9109   -2.6717    1.2250 C   0  0  0  0  0  0  0  0  0  0  0  0
   -4.6009   -2.0517    1.7950 H   0  0  0  0  0  0  0  0  0  0  0  0
   -4.2309   -2.7237    0.1860 H   0  0  0  0  0  0  0  0  0  0  0  0
   -2.5229   -2.0787    1.2980 C   0  0  0  0  0  0  0  0  0  0  0  0
   -1.5999   -2.7227    1.7810 O   0  0  0  0  0  0  0  0  0  0  0  0
   -2.3659   -0.8447    0.8120 N   0  0  0  0  0  0  0  0  0  0  0  0
   -3.1749   -0.3807    0.4220 H   0  0  0  0  0  0  0  0  0  0  0  0
   -1.0919   -0.1077    0.8170 C   0  0  1  0  0  0  0  0  0  0  0  0
   -0.4136   -0.6011    1.5155 H   0  0  0  0  0  0  0  0  0  0  0  0
   -0.4834   -0.1723   -0.5965 C   0  0  0  0  0  0  0  0  0  0  0  0
   -1.2698    0.0365   -1.3234 H   0  0  0  0  0  0  0  0  0  0  0  0
    0.2827    0.5996   -0.6929 H   0  0  0  0  0  0  0  0  0  0  0  0
    0.1318   -1.5401   -0.9301 C   0  0  0  0  0  0  0  0  0  0  0  0
    1.2197   -1.4748   -0.8837 H   0  0  0  0  0  0  0  0  0  0  0  0
   -0.2126   -2.2764   -0.2013 H   0  0  0  0  0  0  0  0  0  0  0  0
   -0.2863   -1.9850   -2.3384 C   0  0  0  0  0  0  0  0  0  0  0  0
   -1.3767   -2.0350   -2.3860 H   0  0  0  0  0  0  0  0  0  0  0  0
    0.0684   -1.2503   -3.0639 H   0  0  0  0  0  0  0  0  0  0  0  0
    0.3068   -3.3617   -2.6633 C   0  0  0  0  0  0  0  0  0  0  0  0
    1.3979   -3.2926   -2.6028 H   0  0  0  0  0  0  0  0  0  0  0  0
   -0.0267   -4.0726   -1.9012 H   0  0  0  0  0  0  0  0  0  0  0  0
   -0.1019   -3.8276   -4.0125 N   0  3  0  0  0  0  0  0  0  0  0  0
    0.2131   -3.1790   -4.7231 H   0  0  0  0  0  0  0  0  0  0  0  0
    0.2971   -4.7366   -4.2112 H   0  0  0  0  0  0  0  0  0  0  0  0
   -1.1108   -3.9017   -4.0709 H   0  0  0  0  0  0  0  0  0  0  0  0
   -1.3103    1.3348    1.2791 C   0  0  0  0  0  0  0  0  0  0  0  0
   -2.2333    1.9891    0.8084 O   0  0  0  0  0  0  0  0  0  0  0  0
   -0.4429    1.8293    2.1683 N   0  0  0  0  0  0  0  0  0  0  0  0
    0.2668    1.2118    2.5263 H   0  0  0  0  0  0  0  0  0  0  0  0
   -0.5118    3.1863    2.7135 C   0  0  0  0  0  0  0  0  0  0  0  0
   -1.4470    3.3159    3.2625 H   0  0  0  0  0  0  0  0  0  0  0  0
    0.3243    3.3682    3.3896 H   0  0  0  0  0  0  0  0  0  0  0  0
   -0.4850    3.9172    1.9023 H   0  0  0  0  0  0  0  0  0  0  0  0
  5  6  2  0  0  0  0
  5  7  1  0  0  0  0
  2  3  1  0  0  0  0
  2  4  1  0  0  0  0
  2  5  1  0  0  0  0
  1  2  1  0  0  0  0
 27 28  2  0  0  0  0
 27 29  1  0  0  0  0
 23 24  1  0  0  0  0
 23 25  1  0  0  0  0
 23 26  1  0  0  0  0
 20 21  1  0  0  0  0
 20 22  1  0  0  0  0
 20 23  1  0  0  0  0
 17 18  1  0  0  0  0
 17 19  1  0  0  0  0
 17 20  1  0  0  0  0
 14 15  1  0  0  0  0
 14 16  1  0  0  0  0
 14 17  1  0  0  0  0
 11 12  1  0  0  0  0
 11 13  1  0  0  0  0
 11 14  1  0  0  0  0
  9 10  1  0  0  0  0
  9 11  1  0  0  0  0
  9 27  1  0  0  0  0
  7  8  1  0  0  0  0
  7  9  1  0  0  0  0
 31 32  1  0  0  0  0
 31 33  1  0  0  0  0
 31 34  1  0  0  0  0
 29 30  1  0  0  0  0
 29 31  1  0  0  0  0
M  CHG  1  23   1
M  END
$$$$
default_name
  -OEChem-02102213163D

 34 33  0     1  0  0  0  0  0999 V2000
   -3.8899   -3.6747    1.6490 H   0  0  0  0  0  0  0  0  0  0  0  0
   -3.9109   -2.6717    1.2250 C   0  0  0  0  0  0  0  0  0  0  0  0
   -4.6009   -2.0517    1.7950 H   0  0  0  0  0  0  0  0  0  0  0  0
   -4.2309   -2.7237    0.1860 H   0  0  0  0  0  0  0  0  0  0  0  0
   -2.5229   -2.0787    1.2980 C   0  0  0  0  0  0  0  0  0  0  0  0
   -1.5999   -2.7227    1.7810 O   0  0  0  0  0  0  0  0  0  0  0  0
   -2.3659   -0.8447    0.8120 N   0  0  0  0  0  0  0  0  0  0  0  0
   -3.1749   -0.3807    0.4220 H   0  0  0  0  0  0  0  0  0  0  0  0
   -1.0919   -0.1077    0.8170 C   0  0  1  0  0  0  0  0  0  0  0  0
   -0.4136   -0.6011    1.5155 H   0  0  0  0  0  0  0  0  0  0  0  0
   -0.4834   -0.1723   -0.5965 C   0  0  0  0  0  0  0  0  0  0  0  0
   -1.2698    0.0365   -1.3234 H   0  0  0  0  0  0  0  0  0  0  0  0
    0.2827    0.5996   -0.6929 H   0  0  0  0  0  0  0  0  0  0  0  0
    0.1318   -1.5401   -0.9301 C   0  0  0  0  0  0  0  0  0  0  0  0
    1.1806   -1.5541   -0.6306 H   0  0  0  0  0  0  0  0  0  0  0  0
   -0.4052   -2.3184   -0.3845 H   0  0  0  0  0  0  0  0  0  0  0  0
    0.0347   -1.8167   -2.4368 C   0  0  0  0  0  0  0  0  0  0  0  0
   -1.0156   -1.7871   -2.7364 H   0  0  0  0  0  0  0  0  0  0  0  0
    0.5809   -1.0409   -2.9771 H   0  0  0  0  0  0  0  0  0  0  0  0
    0.6261   -3.1926   -2.7680 C   0  0  0  0  0  0  0  0  0  0  0  0
    1.6748   -3.2044   -2.4536 H   0  0  0  0  0  0  0  0  0  0  0  0
    0.0929   -3.9496   -2.1849 H   0  0  0  0  0  0  0  0  0  0  0  0
    0.5234   -3.4963   -4.2177 N   0  3  0  0  0  0  0  0  0  0  0  0
    1.0238   -2.8049   -4.7621 H   0  0  0  0  0  0  0  0  0  0  0  0
    0.9173   -4.4069   -4.4194 H   0  0  0  0  0  0  0  0  0  0  0  0
   -0.4463   -3.4953   -4.5118 H   0  0  0  0  0  0  0  0  0  0  0  0
   -1.3103    1.3348    1.2791 C   0  0  0  0  0  0  0  0  0  0  0  0
   -2.2333    1.9891    0.8084 O   0  0  0  0  0  0  0  0  0  0  0  0
   -0.4429    1.8293    2.1683 N   0  0  0  0  0  0  0  0  0  0  0  0
    0.2668    1.2118    2.5263 H   0  0  0  0  0  0  0  0  0  0  0  0
   -0.5118    3.1863    2.7135 C   0  0  0  0  0  0  0  0  0  0  0  0
   -1.4470    3.3159    3.2625 H   0  0  0  0  0  0  0  0  0  0  0  0
    0.3243    3.3682    3.3896 H   0  0  0  0  0  0  0  0  0  0  0  0
   -0.4850    3.9172    1.9023 H   0  0  0  0  0  0  0  0  0  0  0  0
  5  6  2  0  0  0  0
  5  7  1  0  0  0  0
  2  3  1  0  0  0  0
  2  4  1  0  0  0  0
  2  5  1  0  0  0  0
  1  2  1  0  0  0  0
 27 28  2  0  0  0  0
 27 29  1  0  0  0  0
 23 24  1  0  0  0  0
 23 25  1  0  0  0  0
 23 26  1  0  0  0  0
 20 21  1  0  0  0  0
 20 22  1  0  0  0  0
 20 23  1  0  0  0  0
 17 18  1  0  0  0  0
 17 19  1  0  0  0  0
 17 20  1  0  0  0  0
 14 15  1  0  0  0  0
 14 16  1  0  0  0  0
 14 17  1  0  0  0  0
 11 12  1  0  0  0  0
 11 13  1  0  0  0  0
 11 14  1  0  0  0  0
  9 10  1  0  0  0  0
  9 11  1  0  0  0  0
  9 27  1  0  0  0  0
  7  8  1  0  0  0  0
  7  9  1  0  0  0  0
 31 32  1  0  0  0  0
 31 33  1  0  0  0  0
 31 34  1  0  0  0  0
 29 30  1  0  0  0  0
 29 31  1  0  0  0  0
M  CHG  1  23   1
M  END
$$$$
default_name
  -OEChem-02102213163D

 34 33  0     1  0  0  0  0  0999 V2000
   -3.8899   -3.6747    1.6490 H   0  0  0  0  0  0  0  0  0  0  0  0
   -3.9109   -2.6717    1.2250 C   0  0  0  0  0  0  0  0  0  0  0  0
   -4.6009   -2.0517    1.7950 H   0  0  0  0  0  0  0  0  0  0  0  0
   -4.2309   -2.7237    0.1860 H   0  0  0  0  0  0  0  0  0  0  0  0
   -2.5229   -2.0787    1.2980 C   0  0  0  0  0  0  0  0  0  0  0  0
   -1.5999   -2.7227    1.7810 O   0  0  0  0  0  0  0  0  0  0  0  0
   -2.3659   -0.8447    0.8120 N   0  0  0  0  0  0  0  0  0  0  0  0
   -3.1749   -0.3807    0.4220 H   0  0  0  0  0  0  0  0  0  0  0  0
   -1.0919   -0.1077    0.8170 C   0  0  1  0  0  0  0  0  0  0  0  0
   -0.4136   -0.6011    1.5155 H   0  0  0  0  0  0  0  0  0  0  0  0
   -0.4834   -0.1723   -0.5965 C   0  0  0  0  0  0  0  0  0  0  0  0
   -1.2698    0.0365   -1.3234 H   0  0  0  0  0  0  0  0  0  0  0  0
    0.2827    0.5996   -0.6929 H   0  0  0  0  0  0  0  0  0  0  0  0
    0.1318   -1.5401   -0.9301 C   0  0  0  0  0  0  0  0  0  0  0  0
    1.0801   -1.6548   -0.4033 H   0  0  0  0  0  0  0  0  0  0  0  0
   -0.5515   -2.3292   -0.6101 H   0  0  0  0  0  0  0  0  0  0  0  0
    0.3769   -1.6619   -2.4404 C   0  0  0  0  0  0  0  0  0  0  0  0
   -0.5721   -1.5316   -2.9659 H   0  0  0  0  0  0  0  0  0  0  0  0
    1.0678   -0.8765   -2.7535 H   0  0  0  0  0  0  0  0  0  0  0  0
    0.9680   -3.0364   -2.7780 C   0  0  0  0  0  0  0  0  0  0  0  0
    1.9129   -3.1502   -2.2367 H   0  0  0  0  0  0  0  0  0  0  0  0
    0.2807   -3.8081   -2.4185 H   0  0  0  0  0  0  0  0  0  0  0  0
    1.1932   -3.1902   -4.2375 N   0  3  0  0  0  0  0  0  0  0  0  0
    1.8368   -2.4851   -4.5742 H   0  0  0  0  0  0  0  0  0  0  0  0
    1.5828   -4.1017   -4.4434 H   0  0  0  0  0  0  0  0  0  0  0  0
    0.3199   -3.0944   -4.7425 H   0  0  0  0  0  0  0  0  0  0  0  0
   -1.3103    1.3348    1.2791 C   0  0  0  0  0  0  0  0  0  0  0  0
   -2.2333    1.9891    0.8084 O   0  0  0  0  0  0  0  0  0  0  0  0
   -0.4429    1.8293    2.1683 N   0  0  0  0  0  0  0  0  0  0  0  0
    0.2668    1.2118    2.5263 H   0  0  0  0  0  0  0  0  0  0  0  0
   -0.5118    3.1863    2.7135 C   0  0  0  0  0  0  0  0  0  0  0  0
   -1.4470    3.3159    3.2625 H   0  0  0  0  0  0  0  0  0  0  0  0
    0.3243    3.3682    3.3896 H   0  0  0  0  0  0  0  0  0  0  0  0
   -0.4850    3.9172    1.9023 H   0  0  0  0  0  0  0  0  0  0  0  0
  5  6  2  0  0  0  0
  5  7  1  0  0  0  0
  2  3  1  0  0  0  0
  2  4  1  0  0  0  0
  2  5  1  0  0  0  0
  1  2  1  0  0  0  0
 27 28  2  0  0  0  0
 27 29  1  0  0  0  0
 23 24  1  0  0  0  0
 23 25  1  0  0  0  0
 23 26  1  0  0  0  0
 20 21  1  0  0  0  0
 20 22  1  0  0  0  0
 20 23  1  0  0  0  0
 17 18  1  0  0  0  0
 17 19  1  0  0  0  0
 17 20  1  0  0  0  0
 14 15  1  0  0  0  0
 14 16  1  0  0  0  0
 14 17  1  0  0  0  0
 11 12  1  0  0  0  0
 11 13  1  0  0  0  0
 11 14  1  0  0  0  0
  9 10  1  0  0  0  0
  9 11  1  0  0  0  0
  9 27  1  0  0  0  0
  7  8  1  0  0  0  0
  7  9  1  0  0  0  0
 31 32  1  0  0  0  0
 31 33  1  0  0  0  0
 31 34  1  0  0  0  0
 29 30  1  0  0  0  0
 29 31  1  0  0  0  0
M  CHG  1  23   1
M  END
$$$$
default_name
  -OEChem-02102213163D

 34 33  0     1  0  0  0  0  0999 V2000
   -3.8899   -3.6747    1.6490 H   0  0  0  0  0  0  0  0  0  0  0  0
   -3.9109   -2.6717    1.2250 C   0  0  0  0  0  0  0  0  0  0  0  0
   -4.6009   -2.0517    1.7950 H   0  0  0  0  0  0  0  0  0  0  0  0
   -4.2309   -2.7237    0.1860 H   0  0  0  0  0  0  0  0  0  0  0  0
   -2.5229   -2.0787    1.2980 C   0  0  0  0  0  0  0  0  0  0  0  0
   -1.5999   -2.7227    1.7810 O   0  0  0  0  0  0  0  0  0  0  0  0
   -2.3659   -0.8447    0.8120 N   0  0  0  0  0  0  0  0  0  0  0  0
   -3.1749   -0.3807    0.4220 H   0  0  0  0  0  0  0  0  0  0  0  0
   -1.0919   -0.1077    0.8170 C   0  0  1  0  0  0  0  0  0  0  0  0
   -0.4136   -0.6011    1.5155 H   0  0  0  0  0  0  0  0  0  0  0  0
   -0.4834   -0.1723   -0.5965 C   0  0  0  0  0  0  0  0  0  0  0  0
   -1.1808    0.2900   -1.2967 H   0  0  0  0  0  0  0  0  0  0  0  0
    0.4458    0.4007   -0.6136 H   0  0  0  0  0  0  0  0  0  0  0  0
   -0.2022   -1.6063   -1.0709 C   0  0  0  0  0  0  0  0  0  0  0  0
    0.4971   -2.0891   -0.3870 H   0  0  0  0  0  0  0  0  0  0  0  0
   -1.1367   -2.1708   -1.0824 H   0  0  0  0  0  0  0  0  0  0  0  0
    0.4012   -1.5938   -2.4822 C   0  0  0  0  0  0  0  0  0  0  0  0
   -0.2949   -1.0964   -3.1617 H   0  0  0  0  0  0  0  0  0  0  0  0
    1.3397   -1.0363   -2.4632 H   0  0  0  0  0  0  0  0  0  0  0  0
    0.6594   -3.0259   -2.9670 C   0  0  0  0  0  0  0  0  0  0  0  0
    1.3518   -3.5088   -2.2698 H   0  0  0  0  0  0  0  0  0  0  0  0
   -0.2847   -3.5782   -2.9381 H   0  0  0  0  0  0  0  0  0  0  0  0
    1.2217   -3.0440   -4.3410 N   0  3  0  0  0  0  0  0  0  0  0  0
    2.1010   -2.5433   -4.3719 H   0  0  0  0  0  0  0  0  0  0  0  0
    1.3859   -3.9953   -4.6460 H   0  0  0  0  0  0  0  0  0  0  0  0
    0.5805   -2.6059   -4.9919 H   0  0  0  0  0  0  0  0  0  0  0  0
   -1.3103    1.3348    1.2791 C   0  0  0  0  0  0  0  0  0  0  0  0
   -2.2333    1.9891    0.8084 O   0  0  0  0  0  0  0  0  0  0  0  0
   -0.4429    1.8293    2.1683 N   0  0  0  0  0  0  0  0  0  0  0  0
    0.2668    1.2118    2.5263 H   0  0  0  0  0  0  0  0  0  0  0  0
   -0.5118    3.1863    2.7135 C   0  0  0  0  0  0  0  0  0  0  0  0
   -1.4470    3.3159    3.2625 H   0  0  0  0  0  0  0  0  0  0  0  0
    0.3243    3.3682    3.3896 H   0  0  0  0  0  0  0  0  0  0  0  0
   -0.4850    3.9172    1.9023 H   0  0  0  0  0  0  0  0  0  0  0  0
  5  6  2  0  0  0  0
  5  7  1  0  0  0  0
  2  3  1  0  0  0  0
  2  4  1  0  0  0  0
  2  5  1  0  0  0  0
  1  2  1  0  0  0  0
 27 28  2  0  0  0  0
 27 29  1  0  0  0  0
 23 24  1  0  0  0  0
 23 25  1  0  0  0  0
 23 26  1  0  0  0  0
 20 21  1  0  0  0  0
 20 22  1  0  0  0  0
 20 23  1  0  0  0  0
 17 18  1  0  0  0  0
 17 19  1  0  0  0  0
 17 20  1  0  0  0  0
 14 15  1  0  0  0  0
 14 16  1  0  0  0  0
 14 17  1  0  0  0  0
 11 12  1  0  0  0  0
 11 13  1  0  0  0  0
 11 14  1  0  0  0  0
  9 10  1  0  0  0  0
  9 11  1  0  0  0  0
  9 27  1  0  0  0  0
  7  8  1  0  0  0  0
  7  9  1  0  0  0  0
 31 32  1  0  0  0  0
 31 33  1  0  0  0  0
 31 34  1  0  0  0  0
 29 30  1  0  0  0  0
 29 31  1  0  0  0  0
M  CHG  1  23   1
M  END
$$$$
default_name
  -OEChem-02102213163D

 34 33  0     1  0  0  0  0  0999 V2000
   -3.8899   -3.6747    1.6490 H   0  0  0  0  0  0  0  0  0  0  0  0
   -3.9109   -2.6717    1.2250 C   0  0  0  0  0  0  0  0  0  0  0  0
   -4.6009   -2.0517    1.7950 H   0  0  0  0  0  0  0  0  0  0  0  0
   -4.2309   -2.7237    0.1860 H   0  0  0  0  0  0  0  0  0  0  0  0
   -2.5229   -2.0787    1.2980 C   0  0  0  0  0  0  0  0  0  0  0  0
   -1.5999   -2.7227    1.7810 O   0  0  0  0  0  0  0  0  0  0  0  0
   -2.3659   -0.8447    0.8120 N   0  0  0  0  0  0  0  0  0  0  0  0
   -3.1749   -0.3807    0.4220 H   0  0  0  0  0  0  0  0  0  0  0  0
   -1.0919   -0.1077    0.8170 C   0  0  1  0  0  0  0  0  0  0  0  0
   -0.4136   -0.6011    1.5155 H   0  0  0  0  0  0  0  0  0  0  0  0
   -0.4834   -0.1723   -0.5965 C   0  0  0  0  0  0  0  0  0  0  0  0
   -1.1808    0.2900   -1.2967 H   0  0  0  0  0  0  0  0  0  0  0  0
    0.4458    0.4007   -0.6136 H   0  0  0  0  0  0  0  0  0  0  0  0
   -0.2022   -1.6063   -1.0709 C   0  0  0  0  0  0  0  0  0  0  0  0
    0.2718   -2.1726   -0.2681 H   0  0  0  0  0  0  0  0  0  0  0  0
   -1.1449   -2.0877   -1.3383 H   0  0  0  0  0  0  0  0  0  0  0  0
    0.7259   -1.5927   -2.2933 C   0  0  0  0  0  0  0  0  0  0  0  0
    0.2550   -1.0122   -3.0903 H   0  0  0  0  0  0  0  0  0  0  0  0
    1.6702   -1.1187   -2.0182 H   0  0  0  0  0  0  0  0  0  0  0  0
    0.9875   -3.0224   -2.7832 C   0  0  0  0  0  0  0  0  0  0  0  0
    1.4516   -3.5887   -1.9692 H   0  0  0  0  0  0  0  0  0  0  0  0
    0.0265   -3.4924   -3.0131 H   0  0  0  0  0  0  0  0  0  0  0  0
    1.8646   -3.0371   -3.9812 N   0  3  0  0  0  0  0  0  0  0  0  0
    2.7595   -2.6127   -3.7717 H   0  0  0  0  0  0  0  0  0  0  0  0
    2.0271   -3.9868   -4.2918 H   0  0  0  0  0  0  0  0  0  0  0  0
    1.4354   -2.5214   -4.7406 H   0  0  0  0  0  0  0  0  0  0  0  0
   -1.3103    1.3348    1.2791 C   0  0  0  0  0  0  0  0  0  0  0  0
   -2.2333    1.9891    0.8084 O   0  0  0  0  0  0  0  0  0  0  0  0
   -0.4429    1.8293    2.1683 N   0  0  0  0  0  0  0  0  0  0  0  0
    0.2668    1.2118    2.5263 H   0  0  0  0  0  0  0  0  0  0  0  0
   -0.5118    3.1863    2.7135 C   0  0  0  0  0  0  0  0  0  0  0  0
   -1.4470    3.3159    3.2625 H   0  0  0  0  0  0  0  0  0  0  0  0
    0.3243    3.3682    3.3896 H   0  0  0  0  0  0  0  0  0  0  0  0
   -0.4850    3.9172    1.9023 H   0  0  0  0  0  0  0  0  0  0  0  0
  5  6  2  0  0  0  0
  5  7  1  0  0  0  0
  2  3  1  0  0  0  0
  2  4  1  0  0  0  0
  2  5  1  0  0  0  0
  1  2  1  0  0  0  0
 27 28  2  0  0  0  0
 27 29  1  0  0  0  0
 23 24  1  0  0  0  0
 23 25  1  0  0  0  0
 23 26  1  0  0  0  0
 20 21  1  0  0  0  0
 20 22  1  0  0  0  0
 20 23  1  0  0  0  0
 17 18  1  0  0  0  0
 17 19  1  0  0  0  0
 17 20  1  0  0  0  0
 14 15  1  0  0  0  0
 14 16  1  0  0  0  0
 14 17  1  0  0  0  0
 11 12  1  0  0  0  0
 11 13  1  0  0  0  0
 11 14  1  0  0  0  0
  9 10  1  0  0  0  0
  9 11  1  0  0  0  0
  9 27  1  0  0  0  0
  7  8  1  0  0  0  0
  7  9  1  0  0  0  0
 31 32  1  0  0  0  0
 31 33  1  0  0  0  0
 31 34  1  0  0  0  0
 29 30  1  0  0  0  0
 29 31  1  0  0  0  0
M  CHG  1  23   1
M  END
$$$$
default_name
  -OEChem-02102213163D

 34 33  0     1  0  0  0  0  0999 V2000
   -3.8899   -3.6747    1.6490 H   0  0  0  0  0  0  0  0  0  0  0  0
   -3.9109   -2.6717    1.2250 C   0  0  0  0  0  0  0  0  0  0  0  0
   -4.6009   -2.0517    1.7950 H   0  0  0  0  0  0  0  0  0  0  0  0
   -4.2309   -2.7237    0.1860 H   0  0  0  0  0  0  0  0  0  0  0  0
   -2.5229   -2.0787    1.2980 C   0  0  0  0  0  0  0  0  0  0  0  0
   -1.5999   -2.7227    1.7810 O   0  0  0  0  0  0  0  0  0  0  0  0
   -2.3659   -0.8447    0.8120 N   0  0  0  0  0  0  0  0  0  0  0  0
   -3.1749   -0.3807    0.4220 H   0  0  0  0  0  0  0  0  0  0  0  0
   -1.0919   -0.1077    0.8170 C   0  0  1  0  0  0  0  0  0  0  0  0
   -0.4136   -0.6011    1.5155 H   0  0  0  0  0  0  0  0  0  0  0  0
   -0.4834   -0.1723   -0.5965 C   0  0  0  0  0  0  0  0  0  0  0  0
   -1.1808    0.2900   -1.2967 H   0  0  0  0  0  0  0  0  0  0  0  0
    0.4458    0.4007   -0.6136 H   0  0  0  0  0  0  0  0  0  0  0  0
   -0.2022   -1.6063   -1.0709 C   0  0  0  0  0  0  0  0  0  0  0  0
    0.0187   -2.2409   -0.2116 H   0  0  0  0  0  0  0  0  0  0  0  0
   -1.0844   -1.9948   -1.5835 H   0  0  0  0  0  0  0  0  0  0  0  0
    0.9940   -1.6264   -2.0324 C   0  0  0  0  0  0  0  0  0  0  0  0
    0.7757   -0.9782   -2.8845 H   0  0  0  0  0  0  0  0  0  0  0  0
    1.8754   -1.2458   -1.5124 H   0  0  0  0  0  0  0  0  0  0  0  0
    1.2603   -3.0539   -2.5263 C   0  0  0  0  0  0  0  0  0  0  0  0
    1.4690   -3.6881   -1.6585 H   0  0  0  0  0  0  0  0  0  0  0  0
    0.3521   -3.4308   -3.0062 H   0  0  0  0  0  0  0  0  0  0  0  0
    2.3991   -3.0987   -3.4779 N   0  3  0  0  0  0  0  0  0  0  0  0
    3.2450   -2.7609   -3.0362 H   0  0  0  0  0  0  0  0  0  0  0  0
    2.5615   -4.0466   -3.7943 H   0  0  0  0  0  0  0  0  0  0  0  0
    2.2072   -2.5201   -4.2874 H   0  0  0  0  0  0  0  0  0  0  0  0
   -1.3103    1.3348    1.2791 C   0  0  0  0  0  0  0  0  0  0  0  0
   -2.2333    1.9891    0.8084 O   0  0  0  0  0  0  0  0  0  0  0  0
   -0.4429    1.8293    2.1683 N   0  0  0  0  0  0  0  0  0  0  0  0
    0.2668    1.2118    2.5263 H   0  0  0  0  0  0  0  0  0  0  0  0
   -0.5118    3.1863    2.7135 C   0  0  0  0  0  0  0  0  0  0  0  0
   -1.4470    3.3159    3.2625 H   0  0  0  0  0  0  0  0  0  0  0  0
    0.3243    3.3682    3.3896 H   0  0  0  0  0  0  0  0  0  0  0  0
   -0.4850    3.9172    1.9023 H   0  0  0  0  0  0  0  0  0  0  0  0
  5  6  2  0  0  0  0
  5  7  1  0  0  0  0
  2  3  1  0  0  0  0
  2  4  1  0  0  0  0
  2  5  1  0  0  0  0
  1  2  1  0  0  0  0
 27 28  2  0  0  0  0
 27 29  1  0  0  0  0
 23 24  1  0  0  0  0
 23 25  1  0  0  0  0
 23 26  1  0  0  0  0
 20 21  1  0  0  0  0
 20 22  1  0  0  0  0
 20 23  1  0  0  0  0
 17 18  1  0  0  0  0
 17 19  1  0  0  0  0
 17 20  1  0  0  0  0
 14 15  1  0  0  0  0
 14 16  1  0  0  0  0
 14 17  1  0  0  0  0
 11 12  1  0  0  0  0
 11 13  1  0  0  0  0
 11 14  1  0  0  0  0
  9 10  1  0  0  0  0
  9 11  1  0  0  0  0
  9 27  1  0  0  0  0
  7  8  1  0  0  0  0
  7  9  1  0  0  0  0
 31 32  1  0  0  0  0
 31 33  1  0  0  0  0
 31 34  1  0  0  0  0
 29 30  1  0  0  0  0
 29 31  1  0  0  0  0
M  CHG  1  23   1
M  END
$$$$
default_name
  -OEChem-02102213163D

 34 33  0     1  0  0  0  0  0999 V2000
   -3.8899   -3.6747    1.6490 H   0  0  0  0  0  0  0  0  0  0  0  0
   -3.9109   -2.6717    1.2250 C   0  0  0  0  0  0  0  0  0  0  0  0
   -4.6009   -2.0517    1.7950 H   0  0  0  0  0  0  0  0  0  0  0  0
   -4.2309   -2.7237    0.1860 H   0  0  0  0  0  0  0  0  0  0  0  0
   -2.5229   -2.0787    1.2980 C   0  0  0  0  0  0  0  0  0  0  0  0
   -1.5999   -2.7227    1.7810 O   0  0  0  0  0  0  0  0  0  0  0  0
   -2.3659   -0.8447    0.8120 N   0  0  0  0  0  0  0  0  0  0  0  0
   -3.1749   -0.3807    0.4220 H   0  0  0  0  0  0  0  0  0  0  0  0
   -1.0919   -0.1077    0.8170 C   0  0  1  0  0  0  0  0  0  0  0  0
   -0.4136   -0.6011    1.5155 H   0  0  0  0  0  0  0  0  0  0  0  0
   -0.4834   -0.1723   -0.5965 C   0  0  0  0  0  0  0  0  0  0  0  0
   -1.1808    0.2900   -1.2967 H   0  0  0  0  0  0  0  0  0  0  0  0
    0.4458    0.4007   -0.6136 H   0  0  0  0  0  0  0  0  0  0  0  0
   -0.2022   -1.6063   -1.0709 C   0  0  0  0  0  0  0  0  0  0  0  0
   -0.2448   -2.2893   -0.2214 H   0  0  0  0  0  0  0  0  0  0  0  0
   -0.9594   -1.8982   -1.8013 H   0  0  0  0  0  0  0  0  0  0  0  0
    1.1873   -1.6928   -1.7173 C   0  0  0  0  0  0  0  0  0  0  0  0
    1.2317   -0.9968   -2.5583 H   0  0  0  0  0  0  0  0  0  0  0  0
    1.9411   -1.4090   -0.9802 H   0  0  0  0  0  0  0  0  0  0  0  0
    1.4593   -3.1183   -2.2137 C   0  0  0  0  0  0  0  0  0  0  0  0
    1.4028   -3.8002   -1.3589 H   0  0  0  0  0  0  0  0  0  0  0  0
    0.6699   -3.3977   -2.9180 H   0  0  0  0  0  0  0  0  0  0  0  0
    2.7890   -3.2249   -2.8657 N   0  3  0  0  0  0  0  0  0  0  0  0
    3.5245   -2.9776   -2.2155 H   0  0  0  0  0  0  0  0  0  0  0  0
    2.9528   -4.1706   -3.1876 H   0  0  0  0  0  0  0  0  0  0  0  0
    2.8433   -2.6019   -3.6631 H   0  0  0  0  0  0  0  0  0  0  0  0
   -1.3103    1.3348    1.2791 C   0  0  0  0  0  0  0  0  0  0  0  0
   -2.2333    1.9891    0.8084 O   0  0  0  0  0  0  0  0  0  0  0  0
   -0.4429    1.8293    2.1683 N   0  0  0  0  0  0  0  0  0  0  0  0
    0.2668    1.2118    2.5263 H   0  0  0  0  0  0  0  0  0  0  0  0
   -0.5118    3.1863    2.7135 C   0  0  0  0  0  0  0  0  0  0  0  0
   -1.4470    3.3159    3.2625 H   0  0  0  0  0  0  0  0  0  0  0  0
    0.3243    3.3682    3.3896 H   0  0  0  0  0  0  0  0  0  0  0  0
   -0.4850    3.9172    1.9023 H   0  0  0  0  0  0  0  0  0  0  0  0
  5  6  2  0  0  0  0
  5  7  1  0  0  0  0
  2  3  1  0  0  0  0
  2  4  1  0  0  0  0
  2  5  1  0  0  0  0
  1  2  1  0  0  0  0
 27 28  2  0  0  0  0
 27 29  1  0  0  0  0
 23 24  1  0  0  0  0
 23 25  1  0  0  0  0
 23 26  1  0  0  0  0
 20 21  1  0  0  0  0
 20 22  1  0  0  0  0
 20 23  1  0  0  0  0
 17 18  1  0  0  0  0
 17 19  1  0  0  0  0
 17 20  1  0  0  0  0
 14 15  1  0  0  0  0
 14 16  1  0  0  0  0
 14 17  1  0  0  0  0
 11 12  1  0  0  0  0
 11 13  1  0  0  0  0
 11 14  1  0  0  0  0
  9 10  1  0  0  0  0
  9 11  1  0  0  0  0
  9 27  1  0  0  0  0
  7  8  1  0  0  0  0
  7  9  1  0  0  0  0
 31 32  1  0  0  0  0
 31 33  1  0  0  0  0
 31 34  1  0  0  0  0
 29 30  1  0  0  0  0
 29 31  1  0  0  0  0
M  CHG  1  23   1
M  END
$$$$
default_name
  -OEChem-02102213163D

 34 33  0     1  0  0  0  0  0999 V2000
   -3.8899   -3.6747    1.6490 H   0  0  0  0  0  0  0  0  0  0  0  0
   -3.9109   -2.6717    1.2250 C   0  0  0  0  0  0  0  0  0  0  0  0
   -4.6009   -2.0517    1.7950 H   0  0  0  0  0  0  0  0  0  0  0  0
   -4.2309   -2.7237    0.1860 H   0  0  0  0  0  0  0  0  0  0  0  0
   -2.5229   -2.0787    1.2980 C   0  0  0  0  0  0  0  0  0  0  0  0
   -1.5999   -2.7227    1.7810 O   0  0  0  0  0  0  0  0  0  0  0  0
   -2.3659   -0.8447    0.8120 N   0  0  0  0  0  0  0  0  0  0  0  0
   -3.1749   -0.3807    0.4220 H   0  0  0  0  0  0  0  0  0  0  0  0
   -1.0919   -0.1077    0.8170 C   0  0  1  0  0  0  0  0  0  0  0  0
   -0.4136   -0.6011    1.5155 H   0  0  0  0  0  0  0  0  0  0  0  0
   -0.4834   -0.1723   -0.5965 C   0  0  0  0  0  0  0  0  0  0  0  0
   -1.1808    0.2900   -1.2967 H   0  0  0  0  0  0  0  0  0  0  0  0
    0.4458    0.4007   -0.6136 H   0  0  0  0  0  0  0  0  0  0  0  0
   -0.2022   -1.6063   -1.0709 C   0  0  0  0  0  0  0  0  0  0  0  0
   -0.5009   -2.3145   -0.2969 H   0  0  0  0  0  0  0  0  0  0  0  0
   -0.7782   -1.8046   -1.9769 H   0  0  0  0  0  0  0  0  0  0  0  0
    1.2925   -1.7873   -1.3693 C   0  0  0  0  0  0  0  0  0  0  0  0
    1.5918   -1.0665   -2.1340 H   0  0  0  0  0  0  0  0  0  0  0  0
    1.8631   -1.5970   -0.4581 H   0  0  0  0  0  0  0  0  0  0  0  0
    1.5708   -3.2112   -1.8667 C   0  0  0  0  0  0  0  0  0  0  0  0
    1.2575   -3.9173   -1.0909 H   0  0  0  0  0  0  0  0  0  0  0  0
    0.9583   -3.3953   -2.7545 H   0  0  0  0  0  0  0  0  0  0  0  0
    3.0076   -3.4069   -2.1860 N   0  3  0  0  0  0  0  0  0  0  0  0
    3.5789   -3.2482   -1.3655 H   0  0  0  0  0  0  0  0  0  0  0  0
    3.1743   -4.3504   -2.5129 H   0  0  0  0  0  0  0  0  0  0  0  0
    3.3005   -2.7614   -2.9102 H   0  0  0  0  0  0  0  0  0  0  0  0
   -1.3103    1.3348    1.2791 C   0  0  0  0  0  0  0  0  0  0  0  0
   -2.2333    1.9891    0.8084 O   0  0  0  0  0  0  0  0  0  0  0  0
   -0.4429    1.8293    2.1683 N   0  0  0  0  0  0  0  0  0  0  0  0
    0.2668    1.2118    2.5263 H   0  0  0  0  0  0  0  0  0  0  0  0
   -0.5118    3.1863    2.7135 C   0  0  0  0  0  0  0  0  0  0  0  0
   -1.4470    3.3159    3.2625 H   0  0  0  0  0  0  0  0  0  0  0  0
    0.3243    3.3682    3.3896 H   0  0  0  0  0  0  0  0  0  0  0  0
   -0.4850    3.9172    1.9023 H   0  0  0  0  0  0  0  0  0  0  0  0
  5  6  2  0  0  0  0
  5  7  1  0  0  0  0
  2  3  1  0  0  0  0
  2  4  1  0  0  0  0
  2  5  1  0  0  0  0
  1  2  1  0  0  0  0
 27 28  2  0  0  0  0
 27 29  1  0  0  0  0
 23 24  1  0  0  0  0
 23 25  1  0  0  0  0
 23 26  1  0  0  0  0
 20 21  1  0  0  0  0
 20 22  1  0  0  0  0
 20 23  1  0  0  0  0
 17 18  1  0  0  0  0
 17 19  1  0  0  0  0
 17 20  1  0  0  0  0
 14 15  1  0  0  0  0
 14 16  1  0  0  0  0
 14 17  1  0  0  0  0
 11 12  1  0  0  0  0
 11 13  1  0  0  0  0
 11 14  1  0  0  0  0
  9 10  1  0  0  0  0
  9 11  1  0  0  0  0
  9 27  1  0  0  0  0
  7  8  1  0  0  0  0
  7  9  1  0  0  0  0
 31 32  1  0  0  0  0
 31 33  1  0  0  0  0
 31 34  1  0  0  0  0
 29 30  1  0  0  0  0
 29 31  1  0  0  0  0
M  CHG  1  23   1
M  END
$$$$
default_name
  -OEChem-02102213163D

 34 33  0     1  0  0  0  0  0999 V2000
   -3.8899   -3.6747    1.6490 H   0  0  0  0  0  0  0  0  0  0  0  0
   -3.9109   -2.6717    1.2250 C   0  0  0  0  0  0  0  0  0  0  0  0
   -4.6009   -2.0517    1.7950 H   0  0  0  0  0  0  0  0  0  0  0  0
   -4.2309   -2.7237    0.1860 H   0  0  0  0  0  0  0  0  0  0  0  0
   -2.5229   -2.0787    1.2980 C   0  0  0  0  0  0  0  0  0  0  0  0
   -1.5999   -2.7227    1.7810 O   0  0  0  0  0  0  0  0  0  0  0  0
   -2.3659   -0.8447    0.8120 N   0  0  0  0  0  0  0  0  0  0  0  0
   -3.1749   -0.3807    0.4220 H   0  0  0  0  0  0  0  0  0  0  0  0
   -1.0919   -0.1077    0.8170 C   0  0  1  0  0  0  0  0  0  0  0  0
   -0.4136   -0.6011    1.5155 H   0  0  0  0  0  0  0  0  0  0  0  0
   -0.4834   -0.1723   -0.5965 C   0  0  0  0  0  0  0  0  0  0  0  0
   -1.1808    0.2900   -1.2967 H   0  0  0  0  0  0  0  0  0  0  0  0
    0.4458    0.4007   -0.6136 H   0  0  0  0  0  0  0  0  0  0  0  0
   -0.2022   -1.6063   -1.0709 C   0  0  0  0  0  0  0  0  0  0  0  0
   -0.7320   -2.3149   -0.4328 H   0  0  0  0  0  0  0  0  0  0  0  0
   -0.5533   -1.7203   -2.0983 H   0  0  0  0  0  0  0  0  0  0  0  0
    1.3025   -1.9035   -1.0122 C   0  0  0  0  0  0  0  0  0  0  0  0
    1.8316   -1.1828   -1.6404 H   0  0  0  0  0  0  0  0  0  0  0  0
    1.6466   -1.7971    0.0185 H   0  0  0  0  0  0  0  0  0  0  0  0
    1.5873   -3.3263   -1.5091 C   0  0  0  0  0  0  0  0  0  0  0  0
    1.0430   -4.0316   -0.8726 H   0  0  0  0  0  0  0  0  0  0  0  0
    1.1974   -3.4237   -2.5268 H   0  0  0  0  0  0  0  0  0  0  0  0
    3.0400   -3.6323   -1.4854 N   0  3  0  0  0  0  0  0  0  0  0  0
    3.4044   -3.5541   -0.5442 H   0  0  0  0  0  0  0  0  0  0  0  0
    3.2109   -4.5738   -1.8161 H   0  0  0  0  0  0  0  0  0  0  0  0
    3.5474   -2.9876   -2.0801 H   0  0  0  0  0  0  0  0  0  0  0  0
   -1.3103    1.3348    1.2791 C   0  0  0  0  0  0  0  0  0  0  0  0
   -2.2333    1.9891    0.8084 O   0  0  0  0  0  0  0  0  0  0  0  0
   -0.4429    1.8293    2.1683 N   0  0  0  0  0  0  0  0  0  0  0  0
    0.2668    1.2118    2.5263 H   0  0  0  0  0  0  0  0  0  0  0  0
   -0.5118    3.1863    2.7135 C   0  0  0  0  0  0  0  0  0  0  0  0
   -1.4470    3.3159    3.2625 H   0  0  0  0  0  0  0  0  0  0  0  0
    0.3243    3.3682    3.3896 H   0  0  0  0  0  0  0  0  0  0  0  0
   -0.4850    3.9172    1.9023 H   0  0  0  0  0  0  0  0  0  0  0  0
  5  6  2  0  0  0  0
  5  7  1  0  0  0  0
  2  3  1  0  0  0  0
  2  4  1  0  0  0  0
  2  5  1  0  0  0  0
  1  2  1  0  0  0  0
 27 28  2  0  0  0  0
 27 29  1  0  0  0  0
 23 24  1  0  0  0  0
 23 25  1  0  0  0  0
 23 26  1  0  0  0  0
 20 21  1  0  0  0  0
 20 22  1  0  0  0  0
 20 23  1  0  0  0  0
 17 18  1  0  0  0  0
 17 19  1  0  0  0  0
 17 20  1  0  0  0  0
 14 15  1  0  0  0  0
 14 16  1  0  0  0  0
 14 17  1  0  0  0  0
 11 12  1  0  0  0  0
 11 13  1  0  0  0  0
 11 14  1  0  0  0  0
  9 10  1  0  0  0  0
  9 11  1  0  0  0  0
  9 27  1  0  0  0  0
  7  8  1  0  0  0  0
  7  9  1  0  0  0  0
 31 32  1  0  0  0  0
 31 33  1  0  0  0  0
 31 34  1  0  0  0  0
 29 30  1  0  0  0  0
 29 31  1  0  0  0  0
M  CHG  1  23   1
M  END
$$$$
default_name
  -OEChem-02102213163D

 34 33  0     1  0  0  0  0  0999 V2000
   -3.8899   -3.6747    1.6490 H   0  0  0  0  0  0  0  0  0  0  0  0
   -3.9109   -2.6717    1.2250 C   0  0  0  0  0  0  0  0  0  0  0  0
   -4.6009   -2.0517    1.7950 H   0  0  0  0  0  0  0  0  0  0  0  0
   -4.2309   -2.7237    0.1860 H   0  0  0  0  0  0  0  0  0  0  0  0
   -2.5229   -2.0787    1.2980 C   0  0  0  0  0  0  0  0  0  0  0  0
   -1.5999   -2.7227    1.7810 O   0  0  0  0  0  0  0  0  0  0  0  0
   -2.3659   -0.8447    0.8120 N   0  0  0  0  0  0  0  0  0  0  0  0
   -3.1749   -0.3807    0.4220 H   0  0  0  0  0  0  0  0  0  0  0  0
   -1.0919   -0.1077    0.8170 C   0  0  1  0  0  0  0  0  0  0  0  0
   -0.4136   -0.6011    1.5155 H   0  0  0  0  0  0  0  0  0  0  0  0
   -0.4834   -0.1723   -0.5965 C   0  0  0  0  0  0  0  0  0  0  0  0
   -1.1808    0.2900   -1.2967 H   0  0  0  0  0  0  0  0  0  0  0  0
    0.4458    0.4007   -0.6136 H   0  0  0  0  0  0  0  0  0  0  0  0
   -0.2022   -1.6063   -1.0709 C   0  0  0  0  0  0  0  0  0  0  0  0
   -0.9224   -2.2903   -0.6199 H   0  0  0  0  0  0  0  0  0  0  0  0
   -0.3000   -1.6511   -2.1573 H   0  0  0  0  0  0  0  0  0  0  0  0
    1.2167   -2.0334   -0.6704 C   0  0  0  0  0  0  0  0  0  0  0  0
    1.9347   -1.3377   -1.1113 H   0  0  0  0  0  0  0  0  0  0  0  0
    1.3063   -1.9957    0.4171 H   0  0  0  0  0  0  0  0  0  0  0  0
    1.5076   -3.4558   -1.1650 C   0  0  0  0  0  0  0  0  0  0  0  0
    0.7740   -4.1352   -0.7189 H   0  0  0  0  0  0  0  0  0  0  0  0
    1.3712   -3.4811   -2.2504 H   0  0  0  0  0  0  0  0  0  0  0  0
    2.8840   -3.8858   -0.8115 N   0  3  0  0  0  0  0  0  0  0  0  0
    3.0131   -3.8745    0.1926 H   0  0  0  0  0  0  0  0  0  0  0  0
    3.0601   -4.8254   -1.1449 H   0  0  0  0  0  0  0  0  0  0  0  0
    3.5673   -3.2651   -1.2294 H   0  0  0  0  0  0  0  0  0  0  0  0
   -1.3103    1.3348    1.2791 C   0  0  0  0  0  0  0  0  0  0  0  0
   -2.2333    1.9891    0.8084 O   0  0  0  0  0  0  0  0  0  0  0  0
   -0.4429    1.8293    2.1683 N   0  0  0  0  0  0  0  0  0  0  0  0
    0.2668    1.2118    2.5263 H   0  0  0  0  0  0  0  0  0  0  0  0
   -0.5118    3.1863    2.7135 C   0  0  0  0  0  0  0  0  0  0  0  0
   -1.4470    3.3159    3.2625 H   0  0  0  0  0  0  0  0  0  0  0  0
    0.3243    3.3682    3.3896 H   0  0  0  0  0  0  0  0  0  0  0  0
   -0.4850    3.9172    1.9023 H   0  0  0  0  0  0  0  0  0  0  0  0
  5  6  2  0  0  0  0
  5  7  1  0  0  0  0
  2  3  1  0  0  0  0
  2  4  1  0  0  0  0
  2  5  1  0  0  0  0
  1  2  1  0  0  0  0
 27 28  2  0  0  0  0
 27 29  1  0  0  0  0
 23 24  1  0  0  0  0
 23 25  1  0  0  0  0
 23 26  1  0  0  0  0
 20 21  1  0  0  0  0
 20 22  1  0  0  0  0
 20 23  1  0  0  0  0
 17 18  1  0  0  0  0
 17 19  1  0  0  0  0
 17 20  1  0  0  0  0
 14 15  1  0  0  0  0
 14 16  1  0  0  0  0
 14 17  1  0  0  0  0
 11 12  1  0  0  0  0
 11 13  1  0  0  0  0
 11 14  1  0  0  0  0
  9 10  1  0  0  0  0
  9 11  1  0  0  0  0
  9 27  1  0  0  0  0
  7  8  1  0  0  0  0
  7  9  1  0  0  0  0
 31 32  1  0  0  0  0
 31 33  1  0  0  0  0
 31 34  1  0  0  0  0
 29 30  1  0  0  0  0
 29 31  1  0  0  0  0
M  CHG  1  23   1
M  END
$$$$
default_name
  -OEChem-02102213163D

 34 33  0     1  0  0  0  0  0999 V2000
   -3.8899   -3.6747    1.6490 H   0  0  0  0  0  0  0  0  0  0  0  0
   -3.9109   -2.6717    1.2250 C   0  0  0  0  0  0  0  0  0  0  0  0
   -4.6009   -2.0517    1.7950 H   0  0  0  0  0  0  0  0  0  0  0  0
   -4.2309   -2.7237    0.1860 H   0  0  0  0  0  0  0  0  0  0  0  0
   -2.5229   -2.0787    1.2980 C   0  0  0  0  0  0  0  0  0  0  0  0
   -1.5999   -2.7227    1.7810 O   0  0  0  0  0  0  0  0  0  0  0  0
   -2.3659   -0.8447    0.8120 N   0  0  0  0  0  0  0  0  0  0  0  0
   -3.1749   -0.3807    0.4220 H   0  0  0  0  0  0  0  0  0  0  0  0
   -1.0919   -0.1077    0.8170 C   0  0  1  0  0  0  0  0  0  0  0  0
   -0.4136   -0.6011    1.5155 H   0  0  0  0  0  0  0  0  0  0  0  0
   -0.4834   -0.1723   -0.5965 C   0  0  0  0  0  0  0  0  0  0  0  0
   -1.1808    0.2900   -1.2967 H   0  0  0  0  0  0  0  0  0  0  0  0
    0.4458    0.4007   -0.6136 H   0  0  0  0  0  0  0  0  0  0  0  0
   -0.2022   -1.6063   -1.0709 C   0  0  0  0  0  0  0  0  0  0  0  0
   -1.0592   -2.2425   -0.8455 H   0  0  0  0  0  0  0  0  0  0  0  0
   -0.0356   -1.6018   -2.1498 H   0  0  0  0  0  0  0  0  0  0  0  0
    1.0408   -2.1682   -0.3671 C   0  0  0  0  0  0  0  0  0  0  0  0
    1.8940   -1.5206   -0.5826 H   0  0  0  0  0  0  0  0  0  0  0  0
    0.8654   -2.1792    0.7105 H   0  0  0  0  0  0  0  0  0  0  0  0
    1.3372   -3.5907   -0.8581 C   0  0  0  0  0  0  0  0  0  0  0  0
    0.4688   -4.2210   -0.6404 H   0  0  0  0  0  0  0  0  0  0  0  0
    1.4676   -3.5635   -1.9442 H   0  0  0  0  0  0  0  0  0  0  0  0
    2.5503   -4.1502   -0.2102 N   0  3  0  0  0  0  0  0  0  0  0  0
    2.4315   -4.1877    0.7945 H   0  0  0  0  0  0  0  0  0  0  0  0
    2.7321   -5.0882   -0.5448 H   0  0  0  0  0  0  0  0  0  0  0  0
    3.3588   -3.5751   -0.4160 H   0  0  0  0  0  0  0  0  0  0  0  0
   -1.3103    1.3348    1.2791 C   0  0  0  0  0  0  0  0  0  0  0  0
   -2.2333    1.9891    0.8084 O   0  0  0  0  0  0  0  0  0  0  0  0
   -0.4429    1.8293    2.1683 N   0  0  0  0  0  0  0  0  0  0  0  0
    0.2668    1.2118    2.5263 H   0  0  0  0  0  0  0  0  0  0  0  0
   -0.5118    3.1863    2.7135 C   0  0  0  0  0  0  0  0  0  0  0  0
   -1.4470    3.3159    3.2625 H   0  0  0  0  0  0  0  0  0  0  0  0
    0.3243    3.3682    3.3896 H   0  0  0  0  0  0  0  0  0  0  0  0
   -0.4850    3.9172    1.9023 H   0  0  0  0  0  0  0  0  0  0  0  0
  5  6  2  0  0  0  0
  5  7  1  0  0  0  0
  2  3  1  0  0  0  0
  2  4  1  0  0  0  0
  2  5  1  0  0  0  0
  1  2  1  0  0  0  0
 27 28  2  0  0  0  0
 27 29  1  0  0  0  0
 23 24  1  0  0  0  0
 23 25  1  0  0  0  0
 23 26  1  0  0  0  0
 20 21  1  0  0  0  0
 20 22  1  0  0  0  0
 20 23  1  0  0  0  0
 17 18  1  0  0  0  0
 17 19  1  0  0  0  0
 17 20  1  0  0  0  0
 14 15  1  0  0  0  0
 14 16  1  0  0  0  0
 14 17  1  0  0  0  0
 11 12  1  0  0  0  0
 11 13  1  0  0  0  0
 11 14  1  0  0  0  0
  9 10  1  0  0  0  0
  9 11  1  0  0  0  0
  9 27  1  0  0  0  0
  7  8  1  0  0  0  0
  7  9  1  0  0  0  0
 31 32  1  0  0  0  0
 31 33  1  0  0  0  0
 31 34  1  0  0  0  0
 29 30  1  0  0  0  0
 29 31  1  0  0  0  0
M  CHG  1  23   1
M  END
$$$$
default_name
  -OEChem-02102213163D

 34 33  0     1  0  0  0  0  0999 V2000
   -3.8899   -3.6747    1.6490 H   0  0  0  0  0  0  0  0  0  0  0  0
   -3.9109   -2.6717    1.2250 C   0  0  0  0  0  0  0  0  0  0  0  0
   -4.6009   -2.0517    1.7950 H   0  0  0  0  0  0  0  0  0  0  0  0
   -4.2309   -2.7237    0.1860 H   0  0  0  0  0  0  0  0  0  0  0  0
   -2.5229   -2.0787    1.2980 C   0  0  0  0  0  0  0  0  0  0  0  0
   -1.5999   -2.7227    1.7810 O   0  0  0  0  0  0  0  0  0  0  0  0
   -2.3659   -0.8447    0.8120 N   0  0  0  0  0  0  0  0  0  0  0  0
   -3.1749   -0.3807    0.4220 H   0  0  0  0  0  0  0  0  0  0  0  0
   -1.0919   -0.1077    0.8170 C   0  0  1  0  0  0  0  0  0  0  0  0
   -0.4136   -0.6011    1.5155 H   0  0  0  0  0  0  0  0  0  0  0  0
   -0.4834   -0.1723   -0.5965 C   0  0  0  0  0  0  0  0  0  0  0  0
   -1.1808    0.2900   -1.2967 H   0  0  0  0  0  0  0  0  0  0  0  0
    0.4458    0.4007   -0.6136 H   0  0  0  0  0  0  0  0  0  0  0  0
   -0.2022   -1.6063   -1.0709 C   0  0  0  0  0  0  0  0  0  0  0  0
   -1.1330   -2.1747   -1.0942 H   0  0  0  0  0  0  0  0  0  0  0  0
    0.2220   -1.5756   -2.0764 H   0  0  0  0  0  0  0  0  0  0  0  0
    0.7868   -2.2987   -0.1231 C   0  0  0  0  0  0  0  0  0  0  0  0
    1.7124   -1.7190   -0.0903 H   0  0  0  0  0  0  0  0  0  0  0  0
    0.3541   -2.3351    0.8787 H   0  0  0  0  0  0  0  0  0  0  0  0
    1.0876   -3.7220   -0.6092 C   0  0  0  0  0  0  0  0  0  0  0  0
    0.1481   -4.2832   -0.6424 H   0  0  0  0  0  0  0  0  0  0  0  0
    1.4802   -3.6653   -1.6290 H   0  0  0  0  0  0  0  0  0  0  0  0
    2.0615   -4.4073    0.2775 N   0  3  0  0  0  0  0  0  0  0  0  0
    1.6992   -4.4722    1.2205 H   0  0  0  0  0  0  0  0  0  0  0  0
    2.2494   -5.3443   -0.0569 H   0  0  0  0  0  0  0  0  0  0  0  0
    2.9362   -3.8963    0.3046 H   0  0  0  0  0  0  0  0  0  0  0  0
   -1.3103    1.3348    1.2791 C   0  0  0  0  0  0  0  0  0  0  0  0
   -2.2333    1.9891    0.8084 O   0  0  0  0  0  0  0  0  0  0  0  0
   -0.4429    1.8293    2.1683 N   0  0  0  0  0  0  0  0  0  0  0  0
    0.2668    1.2118    2.5263 H   0  0  0  0  0  0  0  0  0  0  0  0
   -0.5118    3.1863    2.7135 C   0  0  0  0  0  0  0  0  0  0  0  0
   -1.4470    3.3159    3.2625 H   0  0  0  0  0  0  0  0  0  0  0  0
    0.3243    3.3682    3.3896 H   0  0  0  0  0  0  0  0  0  0  0  0
   -0.4850    3.9172    1.9023 H   0  0  0  0  0  0  0  0  0  0  0  0
  5  6  2  0  0  0  0
  5  7  1  0  0  0  0
  2  3  1  0  0  0  0
  2  4  1  0  0  0  0
  2  5  1  0  0  0  0
  1  2  1  0  0  0  0
 27 28  2  0  0  0  0
 27 29  1  0  0  0  0
 23 24  1  0  0  0  0
 23 25  1  0  0  0  0
 23 26  1  0  0  0  0
 20 21  1  0  0  0  0
 20 22  1  0  0  0  0
 20 23  1  0  0  0  0
 17 18  1  0  0  0  0
 17 19  1  0  0  0  0
 17 20  1  0  0  0  0
 14 15  1  0  0  0  0
 14 16  1  0  0  0  0
 14 17  1  0  0  0  0
 11 12  1  0  0  0  0
 11 13  1  0  0  0  0
 11 14  1  0  0  0  0
  9 10  1  0  0  0  0
  9 11  1  0  0  0  0
  9 27  1  0  0  0  0
  7  8  1  0  0  0  0
  7  9  1  0  0  0  0
 31 32  1  0  0  0  0
 31 33  1  0  0  0  0
 31 34  1  0  0  0  0
 29 30  1  0  0  0  0
 29 31  1  0  0  0  0
M  CHG  1  23   1
M  END
$$$$
default_name
  -OEChem-02102213163D

 34 33  0     1  0  0  0  0  0999 V2000
   -3.8899   -3.6747    1.6490 H   0  0  0  0  0  0  0  0  0  0  0  0
   -3.9109   -2.6717    1.2250 C   0  0  0  0  0  0  0  0  0  0  0  0
   -4.6009   -2.0517    1.7950 H   0  0  0  0  0  0  0  0  0  0  0  0
   -4.2309   -2.7237    0.1860 H   0  0  0  0  0  0  0  0  0  0  0  0
   -2.5229   -2.0787    1.2980 C   0  0  0  0  0  0  0  0  0  0  0  0
   -1.5999   -2.7227    1.7810 O   0  0  0  0  0  0  0  0  0  0  0  0
   -2.3659   -0.8447    0.8120 N   0  0  0  0  0  0  0  0  0  0  0  0
   -3.1749   -0.3807    0.4220 H   0  0  0  0  0  0  0  0  0  0  0  0
   -1.0919   -0.1077    0.8170 C   0  0  1  0  0  0  0  0  0  0  0  0
   -0.4136   -0.6011    1.5155 H   0  0  0  0  0  0  0  0  0  0  0  0
   -0.4834   -0.1723   -0.5965 C   0  0  0  0  0  0  0  0  0  0  0  0
   -1.1808    0.2900   -1.2967 H   0  0  0  0  0  0  0  0  0  0  0  0
    0.4458    0.4007   -0.6136 H   0  0  0  0  0  0  0  0  0  0  0  0
   -0.2022   -1.6063   -1.0709 C   0  0  0  0  0  0  0  0  0  0  0  0
   -1.1388   -2.0915   -1.3491 H   0  0  0  0  0  0  0  0  0  0  0  0
    0.4551   -1.5744   -1.9419 H   0  0  0  0  0  0  0  0  0  0  0  0
    0.4722   -2.4160    0.0452 C   0  0  0  0  0  0  0  0  0  0  0  0
    1.4023   -1.9195    0.3318 H   0  0  0  0  0  0  0  0  0  0  0  0
   -0.1930   -2.4527    0.9102 H   0  0  0  0  0  0  0  0  0  0  0  0
    0.7759   -3.8406   -0.4353 C   0  0  0  0  0  0  0  0  0  0  0  0
   -0.1662   -4.3176   -0.7247 H   0  0  0  0  0  0  0  0  0  0  0  0
    1.4082   -3.7796   -1.3263 H   0  0  0  0  0  0  0  0  0  0  0  0
    1.4511   -4.6397    0.6183 N   0  3  0  0  0  0  0  0  0  0  0  0
    0.8663   -4.7086    1.4417 H   0  0  0  0  0  0  0  0  0  0  0  0
    1.6447   -5.5761    0.2856 H   0  0  0  0  0  0  0  0  0  0  0  0
    2.3282   -4.2070    0.8834 H   0  0  0  0  0  0  0  0  0  0  0  0
   -1.3103    1.3348    1.2791 C   0  0  0  0  0  0  0  0  0  0  0  0
   -2.2333    1.9891    0.8084 O   0  0  0  0  0  0  0  0  0  0  0  0
   -0.4429    1.8293    2.1683 N   0  0  0  0  0  0  0  0  0  0  0  0
    0.2668    1.2118    2.5263 H   0  0  0  0  0  0  0  0  0  0  0  0
   -0.5118    3.1863    2.7135 C   0  0  0  0  0  0  0  0  0  0  0  0
   -1.4470    3.3159    3.2625 H   0  0  0  0  0  0  0  0  0  0  0  0
    0.3243    3.3682    3.3896 H   0  0  0  0  0  0  0  0  0  0  0  0
   -0.4850    3.9172    1.9023 H   0  0  0  0  0  0  0  0  0  0  0  0
  5  6  2  0  0  0  0
  5  7  1  0  0  0  0
  2  3  1  0  0  0  0
  2  4  1  0  0  0  0
  2  5  1  0  0  0  0
  1  2  1  0  0  0  0
 27 28  2  0  0  0  0
 27 29  1  0  0  0  0
 23 24  1  0  0  0  0
 23 25  1  0  0  0  0
 23 26  1  0  0  0  0
 20 21  1  0  0  0  0
 20 22  1  0  0  0  0
 20 23  1  0  0  0  0
 17 18  1  0  0  0  0
 17 19  1  0  0  0  0
 17 20  1  0  0  0  0
 14 15  1  0  0  0  0
 14 16  1  0  0  0  0
 14 17  1  0  0  0  0
 11 12  1  0  0  0  0
 11 13  1  0  0  0  0
 11 14  1  0  0  0  0
  9 10  1  0  0  0  0
  9 11  1  0  0  0  0
  9 27  1  0  0  0  0
  7  8  1  0  0  0  0
  7  9  1  0  0  0  0
 31 32  1  0  0  0  0
 31 33  1  0  0  0  0
 31 34  1  0  0  0  0
 29 30  1  0  0  0  0
 29 31  1  0  0  0  0
M  CHG  1  23   1
M  END
$$$$
default_name
  -OEChem-02102213163D

 34 33  0     1  0  0  0  0  0999 V2000
   -3.8899   -3.6747    1.6490 H   0  0  0  0  0  0  0  0  0  0  0  0
   -3.9109   -2.6717    1.2250 C   0  0  0  0  0  0  0  0  0  0  0  0
   -4.6009   -2.0517    1.7950 H   0  0  0  0  0  0  0  0  0  0  0  0
   -4.2309   -2.7237    0.1860 H   0  0  0  0  0  0  0  0  0  0  0  0
   -2.5229   -2.0787    1.2980 C   0  0  0  0  0  0  0  0  0  0  0  0
   -1.5999   -2.7227    1.7810 O   0  0  0  0  0  0  0  0  0  0  0  0
   -2.3659   -0.8447    0.8120 N   0  0  0  0  0  0  0  0  0  0  0  0
   -3.1749   -0.3807    0.4220 H   0  0  0  0  0  0  0  0  0  0  0  0
   -1.0919   -0.1077    0.8170 C   0  0  1  0  0  0  0  0  0  0  0  0
   -0.4136   -0.6011    1.5155 H   0  0  0  0  0  0  0  0  0  0  0  0
   -0.4834   -0.1723   -0.5965 C   0  0  0  0  0  0  0  0  0  0  0  0
   -1.1808    0.2900   -1.2967 H   0  0  0  0  0  0  0  0  0  0  0  0
    0.4458    0.4007   -0.6136 H   0  0  0  0  0  0  0  0  0  0  0  0
   -0.2022   -1.6063   -1.0709 C   0  0  0  0  0  0  0  0  0  0  0  0
   -1.0762   -1.9986   -1.5927 H   0  0  0  0  0  0  0  0  0  0  0  0
    0.6479   -1.5982   -1.7557 H   0  0  0  0  0  0  0  0  0  0  0  0
    0.1182   -2.5122    0.1261 C   0  0  0  0  0  0  0  0  0  0  0  0
    0.9847   -2.1083    0.6552 H   0  0  0  0  0  0  0  0  0  0  0  0
   -0.7384   -2.5242    0.8030 H   0  0  0  0  0  0  0  0  0  0  0  0
    0.4234   -3.9385   -0.3482 C   0  0  0  0  0  0  0  0  0  0  0  0
   -0.4526   -4.3218   -0.8817 H   0  0  0  0  0  0  0  0  0  0  0  0
    1.2563   -3.8985   -1.0567 H   0  0  0  0  0  0  0  0  0  0  0  0
    0.7606   -4.8316    0.7890 N   0  3  0  0  0  0  0  0  0  0  0  0
   -0.0106   -4.8809    1.4430 H   0  0  0  0  0  0  0  0  0  0  0  0
    0.9594   -5.7680    0.4594 H   0  0  0  0  0  0  0  0  0  0  0  0
    1.5763   -4.4859    1.2809 H   0  0  0  0  0  0  0  0  0  0  0  0
   -1.3103    1.3348    1.2791 C   0  0  0  0  0  0  0  0  0  0  0  0
   -2.2333    1.9891    0.8084 O   0  0  0  0  0  0  0  0  0  0  0  0
   -0.4429    1.8293    2.1683 N   0  0  0  0  0  0  0  0  0  0  0  0
    0.2668    1.2118    2.5263 H   0  0  0  0  0  0  0  0  0  0  0  0
   -0.5118    3.1863    2.7135 C   0  0  0  0  0  0  0  0  0  0  0  0
   -1.4470    3.3159    3.2625 H   0  0  0  0  0  0  0  0  0  0  0  0
    0.3243    3.3682    3.3896 H   0  0  0  0  0  0  0  0  0  0  0  0
   -0.4850    3.9172    1.9023 H   0  0  0  0  0  0  0  0  0  0  0  0
  5  6  2  0  0  0  0
  5  7  1  0  0  0  0
  2  3  1  0  0  0  0
  2  4  1  0  0  0  0
  2  5  1  0  0  0  0
  1  2  1  0  0  0  0
 27 28  2  0  0  0  0
 27 29  1  0  0  0  0
 23 24  1  0  0  0  0
 23 25  1  0  0  0  0
 23 26  1  0  0  0  0
 20 21  1  0  0  0  0
 20 22  1  0  0  0  0
 20 23  1  0  0  0  0
 17 18  1  0  0  0  0
 17 19  1  0  0  0  0
 17 20  1  0  0  0  0
 14 15  1  0  0  0  0
 14 16  1  0  0  0  0
 14 17  1  0  0  0  0
 11 12  1  0  0  0  0
 11 13  1  0  0  0  0
 11 14  1  0  0  0  0
  9 10  1  0  0  0  0
  9 11  1  0  0  0  0
  9 27  1  0  0  0  0
  7  8  1  0  0  0  0
  7  9  1  0  0  0  0
 31 32  1  0  0  0  0
 31 33  1  0  0  0  0
 31 34  1  0  0  0  0
 29 30  1  0  0  0  0
 29 31  1  0  0  0  0
M  CHG  1  23   1
M  END
$$$$
default_name
  -OEChem-02102213163D

 34 33  0     1  0  0  0  0  0999 V2000
   -3.8899   -3.6747    1.6490 H   0  0  0  0  0  0  0  0  0  0  0  0
   -3.9109   -2.6717    1.2250 C   0  0  0  0  0  0  0  0  0  0  0  0
   -4.6009   -2.0517    1.7950 H   0  0  0  0  0  0  0  0  0  0  0  0
   -4.2309   -2.7237    0.1860 H   0  0  0  0  0  0  0  0  0  0  0  0
   -2.5229   -2.0787    1.2980 C   0  0  0  0  0  0  0  0  0  0  0  0
   -1.5999   -2.7227    1.7810 O   0  0  0  0  0  0  0  0  0  0  0  0
   -2.3659   -0.8447    0.8120 N   0  0  0  0  0  0  0  0  0  0  0  0
   -3.1749   -0.3807    0.4220 H   0  0  0  0  0  0  0  0  0  0  0  0
   -1.0919   -0.1077    0.8170 C   0  0  1  0  0  0  0  0  0  0  0  0
   -0.4136   -0.6011    1.5155 H   0  0  0  0  0  0  0  0  0  0  0  0
   -0.4834   -0.1723   -0.5965 C   0  0  0  0  0  0  0  0  0  0  0  0
   -1.1808    0.2900   -1.2967 H   0  0  0  0  0  0  0  0  0  0  0  0
    0.4458    0.4007   -0.6136 H   0  0  0  0  0  0  0  0  0  0  0  0
   -0.2022   -1.6063   -1.0709 C   0  0  0  0  0  0  0  0  0  0  0  0
   -0.9494   -1.9024   -1.8084 H   0  0  0  0  0  0  0  0  0  0  0  0
    0.7873   -1.6454   -1.5304 H   0  0  0  0  0  0  0  0  0  0  0  0
   -0.2509   -2.5806    0.1142 C   0  0  0  0  0  0  0  0  0  0  0  0
    0.4881   -2.2727    0.8577 H   0  0  0  0  0  0  0  0  0  0  0  0
   -1.2450   -2.5445    0.5642 H   0  0  0  0  0  0  0  0  0  0  0  0
    0.0540   -4.0091   -0.3539 C   0  0  0  0  0  0  0  0  0  0  0  0
   -0.6916   -4.2955   -1.1028 H   0  0  0  0  0  0  0  0  0  0  0  0
    1.0349   -4.0141   -0.8387 H   0  0  0  0  0  0  0  0  0  0  0  0
    0.0370   -4.9698    0.7780 N   0  3  0  0  0  0  0  0  0  0  0  0
   -0.8717   -4.9774    1.2242 H   0  0  0  0  0  0  0  0  0  0  0  0
    0.2402   -5.9067    0.4527 H   0  0  0  0  0  0  0  0  0  0  0  0
    0.7317   -4.7140    1.4700 H   0  0  0  0  0  0  0  0  0  0  0  0
   -1.3103    1.3348    1.2791 C   0  0  0  0  0  0  0  0  0  0  0  0
   -2.2333    1.9891    0.8084 O   0  0  0  0  0  0  0  0  0  0  0  0
   -0.4429    1.8293    2.1683 N   0  0  0  0  0  0  0  0  0  0  0  0
    0.2668    1.2118    2.5263 H   0  0  0  0  0  0  0  0  0  0  0  0
   -0.5118    3.1863    2.7135 C   0  0  0  0  0  0  0  0  0  0  0  0
   -1.4470    3.3159    3.2625 H   0  0  0  0  0  0  0  0  0  0  0  0
    0.3243    3.3682    3.3896 H   0  0  0  0  0  0  0  0  0  0  0  0
   -0.4850    3.9172    1.9023 H   0  0  0  0  0  0  0  0  0  0  0  0
  5  6  2  0  0  0  0
  5  7  1  0  0  0  0
  2  3  1  0  0  0  0
  2  4  1  0  0  0  0
  2  5  1  0  0  0  0
  1  2  1  0  0  0  0
 27 28  2  0  0  0  0
 27 29  1  0  0  0  0
 23 24  1  0  0  0  0
 23 25  1  0  0  0  0
 23 26  1  0  0  0  0
 20 21  1  0  0  0  0
 20 22  1  0  0  0  0
 20 23  1  0  0  0  0
 17 18  1  0  0  0  0
 17 19  1  0  0  0  0
 17 20  1  0  0  0  0
 14 15  1  0  0  0  0
 14 16  1  0  0  0  0
 14 17  1  0  0  0  0
 11 12  1  0  0  0  0
 11 13  1  0  0  0  0
 11 14  1  0  0  0  0
  9 10  1  0  0  0  0
  9 11  1  0  0  0  0
  9 27  1  0  0  0  0
  7  8  1  0  0  0  0
  7  9  1  0  0  0  0
 31 32  1  0  0  0  0
 31 33  1  0  0  0  0
 31 34  1  0  0  0  0
 29 30  1  0  0  0  0
 29 31  1  0  0  0  0
M  CHG  1  23   1
M  END
$$$$
default_name
  -OEChem-02102213163D

 34 33  0     1  0  0  0  0  0999 V2000
   -3.8899   -3.6747    1.6490 H   0  0  0  0  0  0  0  0  0  0  0  0
   -3.9109   -2.6717    1.2250 C   0  0  0  0  0  0  0  0  0  0  0  0
   -4.6009   -2.0517    1.7950 H   0  0  0  0  0  0  0  0  0  0  0  0
   -4.2309   -2.7237    0.1860 H   0  0  0  0  0  0  0  0  0  0  0  0
   -2.5229   -2.0787    1.2980 C   0  0  0  0  0  0  0  0  0  0  0  0
   -1.5999   -2.7227    1.7810 O   0  0  0  0  0  0  0  0  0  0  0  0
   -2.3659   -0.8447    0.8120 N   0  0  0  0  0  0  0  0  0  0  0  0
   -3.1749   -0.3807    0.4220 H   0  0  0  0  0  0  0  0  0  0  0  0
   -1.0919   -0.1077    0.8170 C   0  0  1  0  0  0  0  0  0  0  0  0
   -0.4136   -0.6011    1.5155 H   0  0  0  0  0  0  0  0  0  0  0  0
   -0.4834   -0.1723   -0.5965 C   0  0  0  0  0  0  0  0  0  0  0  0
   -1.1808    0.2900   -1.2967 H   0  0  0  0  0  0  0  0  0  0  0  0
    0.4458    0.4007   -0.6136 H   0  0  0  0  0  0  0  0  0  0  0  0
   -0.2022   -1.6063   -1.0709 C   0  0  0  0  0  0  0  0  0  0  0  0
   -0.7671   -1.8094   -1.9817 H   0  0  0  0  0  0  0  0  0  0  0  0
    0.8637   -1.7128   -1.2813 H   0  0  0  0  0  0  0  0  0  0  0  0
   -0.6101   -2.6167    0.0103 C   0  0  0  0  0  0  0  0  0  0  0  0
   -0.0537   -2.4013    0.9256 H   0  0  0  0  0  0  0  0  0  0  0  0
   -1.6784   -2.5124    0.2103 H   0  0  0  0  0  0  0  0  0  0  0  0
   -0.3070   -4.0474   -0.4520 C   0  0  0  0  0  0  0  0  0  0  0  0
   -0.8670   -4.2405   -1.3728 H   0  0  0  0  0  0  0  0  0  0  0  0
    0.7592   -4.1183   -0.6871 H   0  0  0  0  0  0  0  0  0  0  0  0
   -0.6703   -5.0449    0.5860 N   0  3  0  0  0  0  0  0  0  0  0  0
   -1.6583   -4.9913    0.8003 H   0  0  0  0  0  0  0  0  0  0  0  0
   -0.4641   -5.9830    0.2659 H   0  0  0  0  0  0  0  0  0  0  0  0
   -0.1481   -4.8758    1.4378 H   0  0  0  0  0  0  0  0  0  0  0  0
   -1.3103    1.3348    1.2791 C   0  0  0  0  0  0  0  0  0  0  0  0
   -2.2333    1.9891    0.8084 O   0  0  0  0  0  0  0  0  0  0  0  0
   -0.4429    1.8293    2.1683 N   0  0  0  0  0  0  0  0  0  0  0  0
    0.2668    1.2118    2.5263 H   0  0  0  0  0  0  0  0  0  0  0  0
   -0.5118    3.1863    2.7135 C   0  0  0  0  0  0  0  0  0  0  0  0
   -1.4470    3.3159    3.2625 H   0  0  0  0  0  0  0  0  0  0  0  0
    0.3243    3.3682    3.3896 H   0  0  0  0  0  0  0  0  0  0  0  0
   -0.4850    3.9172    1.9023 H   0  0  0  0  0  0  0  0  0  0  0  0
  5  6  2  0  0  0  0
  5  7  1  0  0  0  0
  2  3  1  0  0  0  0
  2  4  1  0  0  0  0
  2  5  1  0  0  0  0
  1  2  1  0  0  0  0
 27 28  2  0  0  0  0
 27 29  1  0  0  0  0
 23 24  1  0  0  0  0
 23 25  1  0  0  0  0
 23 26  1  0  0  0  0
 20 21  1  0  0  0  0
 20 22  1  0  0  0  0
 20 23  1  0  0  0  0
 17 18  1  0  0  0  0
 17 19  1  0  0  0  0
 17 20  1  0  0  0  0
 14 15  1  0  0  0  0
 14 16  1  0  0  0  0
 14 17  1  0  0  0  0
 11 12  1  0  0  0  0
 11 13  1  0  0  0  0
 11 14  1  0  0  0  0
  9 10  1  0  0  0  0
  9 11  1  0  0  0  0
  9 27  1  0  0  0  0
  7  8  1  0  0  0  0
  7  9  1  0  0  0  0
 31 32  1  0  0  0  0
 31 33  1  0  0  0  0
 31 34  1  0  0  0  0
 29 30  1  0  0  0  0
 29 31  1  0  0  0  0
M  CHG  1  23   1
M  END
$$$$
default_name
  -OEChem-02102213163D

 34 33  0     1  0  0  0  0  0999 V2000
   -3.8899   -3.6747    1.6490 H   0  0  0  0  0  0  0  0  0  0  0  0
   -3.9109   -2.6717    1.2250 C   0  0  0  0  0  0  0  0  0  0  0  0
   -4.6009   -2.0517    1.7950 H   0  0  0  0  0  0  0  0  0  0  0  0
   -4.2309   -2.7237    0.1860 H   0  0  0  0  0  0  0  0  0  0  0  0
   -2.5229   -2.0787    1.2980 C   0  0  0  0  0  0  0  0  0  0  0  0
   -1.5999   -2.7227    1.7810 O   0  0  0  0  0  0  0  0  0  0  0  0
   -2.3659   -0.8447    0.8120 N   0  0  0  0  0  0  0  0  0  0  0  0
   -3.1749   -0.3807    0.4220 H   0  0  0  0  0  0  0  0  0  0  0  0
   -1.0919   -0.1077    0.8170 C   0  0  1  0  0  0  0  0  0  0  0  0
   -0.4136   -0.6011    1.5155 H   0  0  0  0  0  0  0  0  0  0  0  0
   -0.4834   -0.1723   -0.5965 C   0  0  0  0  0  0  0  0  0  0  0  0
   -1.1808    0.2900   -1.2967 H   0  0  0  0  0  0  0  0  0  0  0  0
    0.4458    0.4007   -0.6136 H   0  0  0  0  0  0  0  0  0  0  0  0
   -0.2022   -1.6063   -1.0709 C   0  0  0  0  0  0  0  0  0  0  0  0
   -0.5418   -1.7258   -2.1006 H   0  0  0  0  0  0  0  0  0  0  0  0
    0.8720   -1.7958   -1.0255 H   0  0  0  0  0  0  0  0  0  0  0  0
   -0.9348   -2.6178   -0.1786 C   0  0  0  0  0  0  0  0  0  0  0  0
   -0.6036   -2.4855    0.8542 H   0  0  0  0  0  0  0  0  0  0  0  0
   -2.0089   -2.4299   -0.2348 H   0  0  0  0  0  0  0  0  0  0  0  0
   -0.6352   -4.0509   -0.6358 C   0  0  0  0  0  0  0  0  0  0  0  0
   -0.9668   -4.1606   -1.6734 H   0  0  0  0  0  0  0  0  0  0  0  0
    0.4480   -4.2041   -0.6121 H   0  0  0  0  0  0  0  0  0  0  0  0
   -1.3132   -5.0519    0.2262 N   0  3  0  0  0  0  0  0  0  0  0  0
   -2.3168   -4.9218    0.2001 H   0  0  0  0  0  0  0  0  0  0  0  0
   -1.1053   -5.9915   -0.0883 H   0  0  0  0  0  0  0  0  0  0  0  0
   -1.0030   -4.9603    1.1865 H   0  0  0  0  0  0  0  0  0  0  0  0
   -1.3103    1.3348    1.2791 C   0  0  0  0  0  0  0  0  0  0  0  0
   -2.2333    1.9891    0.8084 O   0  0  0  0  0  0  0  0  0  0  0  0
   -0.4429    1.8293    2.1683 N   0  0  0  0  0  0  0  0  0  0  0  0
    0.2668    1.2118    2.5263 H   0  0  0  0  0  0  0  0  0  0  0  0
   -0.5118    3.1863    2.7135 C   0  0  0  0  0  0  0  0  0  0  0  0
   -1.4470    3.3159    3.2625 H   0  0  0  0  0  0  0  0  0  0  0  0
    0.3243    3.3682    3.3896 H   0  0  0  0  0  0  0  0  0  0  0  0
   -0.4850    3.9172    1.9023 H   0  0  0  0  0  0  0  0  0  0  0  0
  5  6  2  0  0  0  0
  5  7  1  0  0  0  0
  2  3  1  0  0  0  0
  2  4  1  0  0  0  0
  2  5  1  0  0  0  0
  1  2  1  0  0  0  0
 27 28  2  0  0  0  0
 27 29  1  0  0  0  0
 23 24  1  0  0  0  0
 23 25  1  0  0  0  0
 23 26  1  0  0  0  0
 20 21  1  0  0  0  0
 20 22  1  0  0  0  0
 20 23  1  0  0  0  0
 17 18  1  0  0  0  0
 17 19  1  0  0  0  0
 17 20  1  0  0  0  0
 14 15  1  0  0  0  0
 14 16  1  0  0  0  0
 14 17  1  0  0  0  0
 11 12  1  0  0  0  0
 11 13  1  0  0  0  0
 11 14  1  0  0  0  0
  9 10  1  0  0  0  0
  9 11  1  0  0  0  0
  9 27  1  0  0  0  0
  7  8  1  0  0  0  0
  7  9  1  0  0  0  0
 31 32  1  0  0  0  0
 31 33  1  0  0  0  0
 31 34  1  0  0  0  0
 29 30  1  0  0  0  0
 29 31  1  0  0  0  0
M  CHG  1  23   1
M  END
$$$$
default_name
  -OEChem-02102213163D

 34 33  0     1  0  0  0  0  0999 V2000
   -3.8899   -3.6747    1.6490 H   0  0  0  0  0  0  0  0  0  0  0  0
   -3.9109   -2.6717    1.2250 C   0  0  0  0  0  0  0  0  0  0  0  0
   -4.6009   -2.0517    1.7950 H   0  0  0  0  0  0  0  0  0  0  0  0
   -4.2309   -2.7237    0.1860 H   0  0  0  0  0  0  0  0  0  0  0  0
   -2.5229   -2.0787    1.2980 C   0  0  0  0  0  0  0  0  0  0  0  0
   -1.5999   -2.7227    1.7810 O   0  0  0  0  0  0  0  0  0  0  0  0
   -2.3659   -0.8447    0.8120 N   0  0  0  0  0  0  0  0  0  0  0  0
   -3.1749   -0.3807    0.4220 H   0  0  0  0  0  0  0  0  0  0  0  0
   -1.0919   -0.1077    0.8170 C   0  0  1  0  0  0  0  0  0  0  0  0
   -0.4136   -0.6011    1.5155 H   0  0  0  0  0  0  0  0  0  0  0  0
   -0.4834   -0.1723   -0.5965 C   0  0  0  0  0  0  0  0  0  0  0  0
   -1.1808    0.2900   -1.2967 H   0  0  0  0  0  0  0  0  0  0  0  0
    0.4458    0.4007   -0.6136 H   0  0  0  0  0  0  0  0  0  0  0  0
   -0.2022   -1.6063   -1.0709 C   0  0  0  0  0  0  0  0  0  0  0  0
   -0.2887   -1.6576   -2.1571 H   0  0  0  0  0  0  0  0  0  0  0  0
    0.8115   -1.8888   -0.7803 H   0  0  0  0  0  0  0  0  0  0  0  0
   -1.2029   -2.5841   -0.4395 C   0  0  0  0  0  0  0  0  0  0  0  0
   -1.1243   -2.5195    0.6484 H   0  0  0  0  0  0  0  0  0  0  0  0
   -2.2140   -2.3028   -0.7406 H   0  0  0  0  0  0  0  0  0  0  0  0
   -0.9080   -4.0194   -0.8927 C   0  0  0  0  0  0  0  0  0  0  0  0
   -0.9841   -4.0612   -1.9841 H   0  0  0  0  0  0  0  0  0  0  0  0
    0.1224   -4.2657   -0.6189 H   0  0  0  0  0  0  0  0  0  0  0  0
   -1.8477   -4.9902   -0.2771 N   0  3  0  0  0  0  0  0  0  0  0  0
   -2.8023   -4.7737   -0.5354 H   0  0  0  0  0  0  0  0  0  0  0  0
   -1.6397   -5.9317   -0.5857 H   0  0  0  0  0  0  0  0  0  0  0  0
   -1.7748   -4.9617    0.7333 H   0  0  0  0  0  0  0  0  0  0  0  0
   -1.3103    1.3348    1.2791 C   0  0  0  0  0  0  0  0  0  0  0  0
   -2.2333    1.9891    0.8084 O   0  0  0  0  0  0  0  0  0  0  0  0
   -0.4429    1.8293    2.1683 N   0  0  0  0  0  0  0  0  0  0  0  0
    0.2668    1.2118    2.5263 H   0  0  0  0  0  0  0  0  0  0  0  0
   -0.5118    3.1863    2.7135 C   0  0  0  0  0  0  0  0  0  0  0  0
   -1.4470    3.3159    3.2625 H   0  0  0  0  0  0  0  0  0  0  0  0
    0.3243    3.3682    3.3896 H   0  0  0  0  0  0  0  0  0  0  0  0
   -0.4850    3.9172    1.9023 H   0  0  0  0  0  0  0  0  0  0  0  0
  5  6  2  0  0  0  0
  5  7  1  0  0  0  0
  2  3  1  0  0  0  0
  2  4  1  0  0  0  0
  2  5  1  0  0  0  0
  1  2  1  0  0  0  0
 27 28  2  0  0  0  0
 27 29  1  0  0  0  0
 23 24  1  0  0  0  0
 23 25  1  0  0  0  0
 23 26  1  0  0  0  0
 20 21  1  0  0  0  0
 20 22  1  0  0  0  0
 20 23  1  0  0  0  0
 17 18  1  0  0  0  0
 17 19  1  0  0  0  0
 17 20  1  0  0  0  0
 14 15  1  0  0  0  0
 14 16  1  0  0  0  0
 14 17  1  0  0  0  0
 11 12  1  0  0  0  0
 11 13  1  0  0  0  0
 11 14  1  0  0  0  0
  9 10  1  0  0  0  0
  9 11  1  0  0  0  0
  9 27  1  0  0  0  0
  7  8  1  0  0  0  0
  7  9  1  0  0  0  0
 31 32  1  0  0  0  0
 31 33  1  0  0  0  0
 31 34  1  0  0  0  0
 29 30  1  0  0  0  0
 29 31  1  0  0  0  0
M  CHG  1  23   1
M  END
$$$$
default_name
  -OEChem-02102213163D

 34 33  0     1  0  0  0  0  0999 V2000
   -3.8899   -3.6747    1.6490 H   0  0  0  0  0  0  0  0  0  0  0  0
   -3.9109   -2.6717    1.2250 C   0  0  0  0  0  0  0  0  0  0  0  0
   -4.6009   -2.0517    1.7950 H   0  0  0  0  0  0  0  0  0  0  0  0
   -4.2309   -2.7237    0.1860 H   0  0  0  0  0  0  0  0  0  0  0  0
   -2.5229   -2.0787    1.2980 C   0  0  0  0  0  0  0  0  0  0  0  0
   -1.5999   -2.7227    1.7810 O   0  0  0  0  0  0  0  0  0  0  0  0
   -2.3659   -0.8447    0.8120 N   0  0  0  0  0  0  0  0  0  0  0  0
   -3.1749   -0.3807    0.4220 H   0  0  0  0  0  0  0  0  0  0  0  0
   -1.0919   -0.1077    0.8170 C   0  0  1  0  0  0  0  0  0  0  0  0
   -0.4136   -0.6011    1.5155 H   0  0  0  0  0  0  0  0  0  0  0  0
   -0.4834   -0.1723   -0.5965 C   0  0  0  0  0  0  0  0  0  0  0  0
   -1.1808    0.2900   -1.2967 H   0  0  0  0  0  0  0  0  0  0  0  0
    0.4458    0.4007   -0.6136 H   0  0  0  0  0  0  0  0  0  0  0  0
   -0.2022   -1.6063   -1.0709 C   0  0  0  0  0  0  0  0  0  0  0  0
   -0.0252   -1.6091   -2.1472 H   0  0  0  0  0  0  0  0  0  0  0  0
    0.6864   -1.9854   -0.5625 H   0  0  0  0  0  0  0  0  0  0  0  0
   -1.3961   -2.5177   -0.7546 C   0  0  0  0  0  0  0  0  0  0  0  0
   -1.5803   -2.5010    0.3222 H   0  0  0  0  0  0  0  0  0  0  0  0
   -2.2798   -2.1397   -1.2727 H   0  0  0  0  0  0  0  0  0  0  0  0
   -1.1070   -3.9550   -1.2053 C   0  0  0  0  0  0  0  0  0  0  0  0
   -0.9179   -3.9492   -2.2837 H   0  0  0  0  0  0  0  0  0  0  0  0
   -0.1954   -4.2988   -0.7071 H   0  0  0  0  0  0  0  0  0  0  0  0
   -2.2376   -4.8641   -0.8893 N   0  3  0  0  0  0  0  0  0  0  0  0
   -3.0818   -4.5570   -1.3561 H   0  0  0  0  0  0  0  0  0  0  0  0
   -2.0310   -5.8077   -1.1925 H   0  0  0  0  0  0  0  0  0  0  0  0
   -2.4109   -4.8798    0.1089 H   0  0  0  0  0  0  0  0  0  0  0  0
   -1.3103    1.3348    1.2791 C   0  0  0  0  0  0  0  0  0  0  0  0
   -2.2333    1.9891    0.8084 O   0  0  0  0  0  0  0  0  0  0  0  0
   -0.4429    1.8293    2.1683 N   0  0  0  0  0  0  0  0  0  0  0  0
    0.2668    1.2118    2.5263 H   0  0  0  0  0  0  0  0  0  0  0  0
   -0.5118    3.1863    2.7135 C   0  0  0  0  0  0  0  0  0  0  0  0
   -1.4470    3.3159    3.2625 H   0  0  0  0  0  0  0  0  0  0  0  0
    0.3243    3.3682    3.3896 H   0  0  0  0  0  0  0  0  0  0  0  0
   -0.4850    3.9172    1.9023 H   0  0  0  0  0  0  0  0  0  0  0  0
  5  6  2  0  0  0  0
  5  7  1  0  0  0  0
  2  3  1  0  0  0  0
  2  4  1  0  0  0  0
  2  5  1  0  0  0  0
  1  2  1  0  0  0  0
 27 28  2  0  0  0  0
 27 29  1  0  0  0  0
 23 24  1  0  0  0  0
 23 25  1  0  0  0  0
 23 26  1  0  0  0  0
 20 21  1  0  0  0  0
 20 22  1  0  0  0  0
 20 23  1  0  0  0  0
 17 18  1  0  0  0  0
 17 19  1  0  0  0  0
 17 20  1  0  0  0  0
 14 15  1  0  0  0  0
 14 16  1  0  0  0  0
 14 17  1  0  0  0  0
 11 12  1  0  0  0  0
 11 13  1  0  0  0  0
 11 14  1  0  0  0  0
  9 10  1  0  0  0  0
  9 11  1  0  0  0  0
  9 27  1  0  0  0  0
  7  8  1  0  0  0  0
  7  9  1  0  0  0  0
 31 32  1  0  0  0  0
 31 33  1  0  0  0  0
 31 34  1  0  0  0  0
 29 30  1  0  0  0  0
 29 31  1  0  0  0  0
M  CHG  1  23   1
M  END
$$$$
default_name
  -OEChem-02102213163D

 34 33  0     1  0  0  0  0  0999 V2000
   -3.8899   -3.6747    1.6490 H   0  0  0  0  0  0  0  0  0  0  0  0
   -3.9109   -2.6717    1.2250 C   0  0  0  0  0  0  0  0  0  0  0  0
   -4.6009   -2.0517    1.7950 H   0  0  0  0  0  0  0  0  0  0  0  0
   -4.2309   -2.7237    0.1860 H   0  0  0  0  0  0  0  0  0  0  0  0
   -2.5229   -2.0787    1.2980 C   0  0  0  0  0  0  0  0  0  0  0  0
   -1.5999   -2.7227    1.7810 O   0  0  0  0  0  0  0  0  0  0  0  0
   -2.3659   -0.8447    0.8120 N   0  0  0  0  0  0  0  0  0  0  0  0
   -3.1749   -0.3807    0.4220 H   0  0  0  0  0  0  0  0  0  0  0  0
   -1.0919   -0.1077    0.8170 C   0  0  1  0  0  0  0  0  0  0  0  0
   -0.4136   -0.6011    1.5155 H   0  0  0  0  0  0  0  0  0  0  0  0
   -0.4834   -0.1723   -0.5965 C   0  0  0  0  0  0  0  0  0  0  0  0
   -1.1808    0.2900   -1.2967 H   0  0  0  0  0  0  0  0  0  0  0  0
    0.4458    0.4007   -0.6136 H   0  0  0  0  0  0  0  0  0  0  0  0
   -0.2022   -1.6063   -1.0709 C   0  0  0  0  0  0  0  0  0  0  0  0
    0.2308   -1.5839   -2.0718 H   0  0  0  0  0  0  0  0  0  0  0  0
    0.5052   -2.0790   -0.3868 H   0  0  0  0  0  0  0  0  0  0  0  0
   -1.5014   -2.4232   -1.1026 C   0  0  0  0  0  0  0  0  0  0  0  0
   -1.9404   -2.4312   -0.1021 H   0  0  0  0  0  0  0  0  0  0  0  0
   -2.2017   -1.9516   -1.7948 H   0  0  0  0  0  0  0  0  0  0  0  0
   -1.2185   -3.8621   -1.5523 C   0  0  0  0  0  0  0  0  0  0  0  0
   -0.7726   -3.8320   -2.5518 H   0  0  0  0  0  0  0  0  0  0  0  0
   -0.4838   -4.3012   -0.8707 H   0  0  0  0  0  0  0  0  0  0  0  0
   -2.4561   -4.6821   -1.5690 N   0  3  0  0  0  0  0  0  0  0  0  0
   -3.1361   -4.2864   -2.2061 H   0  0  0  0  0  0  0  0  0  0  0  0
   -2.2525   -5.6279   -1.8672 H   0  0  0  0  0  0  0  0  0  0  0  0
   -2.8681   -4.7204   -0.6439 H   0  0  0  0  0  0  0  0  0  0  0  0
   -1.3103    1.3348    1.2791 C   0  0  0  0  0  0  0  0  0  0  0  0
   -2.2333    1.9891    0.8084 O   0  0  0  0  0  0  0  0  0  0  0  0
   -0.4429    1.8293    2.1683 N   0  0  0  0  0  0  0  0  0  0  0  0
    0.2668    1.2118    2.5263 H   0  0  0  0  0  0  0  0  0  0  0  0
   -0.5118    3.1863    2.7135 C   0  0  0  0  0  0  0  0  0  0  0  0
   -1.4470    3.3159    3.2625 H   0  0  0  0  0  0  0  0  0  0  0  0
    0.3243    3.3682    3.3896 H   0  0  0  0  0  0  0  0  0  0  0  0
   -0.4850    3.9172    1.9023 H   0  0  0  0  0  0  0  0  0  0  0  0
  5  6  2  0  0  0  0
  5  7  1  0  0  0  0
  2  3  1  0  0  0  0
  2  4  1  0  0  0  0
  2  5  1  0  0  0  0
  1  2  1  0  0  0  0
 27 28  2  0  0  0  0
 27 29  1  0  0  0  0
 23 24  1  0  0  0  0
 23 25  1  0  0  0  0
 23 26  1  0  0  0  0
 20 21  1  0  0  0  0
 20 22  1  0  0  0  0
 20 23  1  0  0  0  0
 17 18  1  0  0  0  0
 17 19  1  0  0  0  0
 17 20  1  0  0  0  0
 14 15  1  0  0  0  0
 14 16  1  0  0  0  0
 14 17  1  0  0  0  0
 11 12  1  0  0  0  0
 11 13  1  0  0  0  0
 11 14  1  0  0  0  0
  9 10  1  0  0  0  0
  9 11  1  0  0  0  0
  9 27  1  0  0  0  0
  7  8  1  0  0  0  0
  7  9  1  0  0  0  0
 31 32  1  0  0  0  0
 31 33  1  0  0  0  0
 31 34  1  0  0  0  0
 29 30  1  0  0  0  0
 29 31  1  0  0  0  0
M  CHG  1  23   1
M  END
$$$$
default_name
  -OEChem-02102213163D

 34 33  0     1  0  0  0  0  0999 V2000
   -3.8899   -3.6747    1.6490 H   0  0  0  0  0  0  0  0  0  0  0  0
   -3.9109   -2.6717    1.2250 C   0  0  0  0  0  0  0  0  0  0  0  0
   -4.6009   -2.0517    1.7950 H   0  0  0  0  0  0  0  0  0  0  0  0
   -4.2309   -2.7237    0.1860 H   0  0  0  0  0  0  0  0  0  0  0  0
   -2.5229   -2.0787    1.2980 C   0  0  0  0  0  0  0  0  0  0  0  0
   -1.5999   -2.7227    1.7810 O   0  0  0  0  0  0  0  0  0  0  0  0
   -2.3659   -0.8447    0.8120 N   0  0  0  0  0  0  0  0  0  0  0  0
   -3.1749   -0.3807    0.4220 H   0  0  0  0  0  0  0  0  0  0  0  0
   -1.0919   -0.1077    0.8170 C   0  0  1  0  0  0  0  0  0  0  0  0
   -0.4136   -0.6011    1.5155 H   0  0  0  0  0  0  0  0  0  0  0  0
   -0.4834   -0.1723   -0.5965 C   0  0  0  0  0  0  0  0  0  0  0  0
   -1.1808    0.2900   -1.2967 H   0  0  0  0  0  0  0  0  0  0  0  0
    0.4458    0.4007   -0.6136 H   0  0  0  0  0  0  0  0  0  0  0  0
   -0.2022   -1.6063   -1.0709 C   0  0  0  0  0  0  0  0  0  0  0  0
    0.4620   -1.5836   -1.9359 H   0  0  0  0  0  0  0  0  0  0  0  0
    0.2803   -2.1633   -0.2654 H   0  0  0  0  0  0  0  0  0  0  0  0
   -1.5114   -2.3070   -1.4597 C   0  0  0  0  0  0  0  0  0  0  0  0
   -2.1802   -2.3149   -0.5957 H   0  0  0  0  0  0  0  0  0  0  0  0
   -1.9852   -1.7515   -2.2714 H   0  0  0  0  0  0  0  0  0  0  0  0
   -1.2350   -3.7470   -1.9099 C   0  0  0  0  0  0  0  0  0  0  0  0
   -0.5582   -3.7177   -2.7701 H   0  0  0  0  0  0  0  0  0  0  0  0
   -0.7229   -4.2728   -1.0984 H   0  0  0  0  0  0  0  0  0  0  0  0
   -2.4886   -4.4566   -2.2696 N   0  3  0  0  0  0  0  0  0  0  0  0
   -2.9617   -3.9805   -3.0274 H   0  0  0  0  0  0  0  0  0  0  0  0
   -2.2891   -5.4045   -2.5639 H   0  0  0  0  0  0  0  0  0  0  0  0
   -3.1150   -4.4942   -1.4740 H   0  0  0  0  0  0  0  0  0  0  0  0
   -1.3103    1.3348    1.2791 C   0  0  0  0  0  0  0  0  0  0  0  0
   -2.2333    1.9891    0.8084 O   0  0  0  0  0  0  0  0  0  0  0  0
   -0.4429    1.8293    2.1683 N   0  0  0  0  0  0  0  0  0  0  0  0
    0.2668    1.2118    2.5263 H   0  0  0  0  0  0  0  0  0  0  0  0
   -0.5118    3.1863    2.7135 C   0  0  0  0  0  0  0  0  0  0  0  0
   -1.4470    3.3159    3.2625 H   0  0  0  0  0  0  0  0  0  0  0  0
    0.3243    3.3682    3.3896 H   0  0  0  0  0  0  0  0  0  0  0  0
   -0.4850    3.9172    1.9023 H   0  0  0  0  0  0  0  0  0  0  0  0
  5  6  2  0  0  0  0
  5  7  1  0  0  0  0
  2  3  1  0  0  0  0
  2  4  1  0  0  0  0
  2  5  1  0  0  0  0
  1  2  1  0  0  0  0
 27 28  2  0  0  0  0
 27 29  1  0  0  0  0
 23 24  1  0  0  0  0
 23 25  1  0  0  0  0
 23 26  1  0  0  0  0
 20 21  1  0  0  0  0
 20 22  1  0  0  0  0
 20 23  1  0  0  0  0
 17 18  1  0  0  0  0
 17 19  1  0  0  0  0
 17 20  1  0  0  0  0
 14 15  1  0  0  0  0
 14 16  1  0  0  0  0
 14 17  1  0  0  0  0
 11 12  1  0  0  0  0
 11 13  1  0  0  0  0
 11 14  1  0  0  0  0
  9 10  1  0  0  0  0
  9 11  1  0  0  0  0
  9 27  1  0  0  0  0
  7  8  1  0  0  0  0
  7  9  1  0  0  0  0
 31 32  1  0  0  0  0
 31 33  1  0  0  0  0
 31 34  1  0  0  0  0
 29 30  1  0  0  0  0
 29 31  1  0  0  0  0
M  CHG  1  23   1
M  END
$$$$
default_name
  -OEChem-02102213163D

 34 33  0     1  0  0  0  0  0999 V2000
   -3.8899   -3.6747    1.6490 H   0  0  0  0  0  0  0  0  0  0  0  0
   -3.9109   -2.6717    1.2250 C   0  0  0  0  0  0  0  0  0  0  0  0
   -4.6009   -2.0517    1.7950 H   0  0  0  0  0  0  0  0  0  0  0  0
   -4.2309   -2.7237    0.1860 H   0  0  0  0  0  0  0  0  0  0  0  0
   -2.5229   -2.0787    1.2980 C   0  0  0  0  0  0  0  0  0  0  0  0
   -1.5999   -2.7227    1.7810 O   0  0  0  0  0  0  0  0  0  0  0  0
   -2.3659   -0.8447    0.8120 N   0  0  0  0  0  0  0  0  0  0  0  0
   -3.1749   -0.3807    0.4220 H   0  0  0  0  0  0  0  0  0  0  0  0
   -1.0919   -0.1077    0.8170 C   0  0  1  0  0  0  0  0  0  0  0  0
   -0.4136   -0.6011    1.5155 H   0  0  0  0  0  0  0  0  0  0  0  0
   -0.4834   -0.1723   -0.5965 C   0  0  0  0  0  0  0  0  0  0  0  0
   -1.1808    0.2900   -1.2967 H   0  0  0  0  0  0  0  0  0  0  0  0
    0.4458    0.4007   -0.6136 H   0  0  0  0  0  0  0  0  0  0  0  0
   -0.2022   -1.6063   -1.0709 C   0  0  0  0  0  0  0  0  0  0  0  0
    0.6524   -1.6081   -1.7487 H   0  0  0  0  0  0  0  0  0  0  0  0
    0.0271   -2.2324   -0.2064 H   0  0  0  0  0  0  0  0  0  0  0  0
   -1.4255   -2.1771   -1.8015 C   0  0  0  0  0  0  0  0  0  0  0  0
   -2.2833   -2.1601   -1.1248 H   0  0  0  0  0  0  0  0  0  0  0  0
   -1.6449   -1.5529   -2.6700 H   0  0  0  0  0  0  0  0  0  0  0  0
   -1.1553   -3.6175   -2.2540 C   0  0  0  0  0  0  0  0  0  0  0  0
   -0.2892   -3.6142   -2.9237 H   0  0  0  0  0  0  0  0  0  0  0  0
   -0.8967   -4.2154   -1.3748 H   0  0  0  0  0  0  0  0  0  0  0  0
   -2.3326   -4.2031   -2.9435 N   0  3  0  0  0  0  0  0  0  0  0  0
   -2.5703   -3.6601   -3.7642 H   0  0  0  0  0  0  0  0  0  0  0  0
   -2.1383   -5.1529   -3.2352 H   0  0  0  0  0  0  0  0  0  0  0  0
   -3.1349   -4.2166   -2.3247 H   0  0  0  0  0  0  0  0  0  0  0  0
   -1.3103    1.3348    1.2791 C   0  0  0  0  0  0  0  0  0  0  0  0
   -2.2333    1.9891    0.8084 O   0  0  0  0  0  0  0  0  0  0  0  0
   -0.4429    1.8293    2.1683 N   0  0  0  0  0  0  0  0  0  0  0  0
    0.2668    1.2118    2.5263 H   0  0  0  0  0  0  0  0  0  0  0  0
   -0.5118    3.1863    2.7135 C   0  0  0  0  0  0  0  0  0  0  0  0
   -1.4470    3.3159    3.2625 H   0  0  0  0  0  0  0  0  0  0  0  0
    0.3243    3.3682    3.3896 H   0  0  0  0  0  0  0  0  0  0  0  0
   -0.4850    3.9172    1.9023 H   0  0  0  0  0  0  0  0  0  0  0  0
  5  6  2  0  0  0  0
  5  7  1  0  0  0  0
  2  3  1  0  0  0  0
  2  4  1  0  0  0  0
  2  5  1  0  0  0  0
  1  2  1  0  0  0  0
 27 28  2  0  0  0  0
 27 29  1  0  0  0  0
 23 24  1  0  0  0  0
 23 25  1  0  0  0  0
 23 26  1  0  0  0  0
 20 21  1  0  0  0  0
 20 22  1  0  0  0  0
 20 23  1  0  0  0  0
 17 18  1  0  0  0  0
 17 19  1  0  0  0  0
 17 20  1  0  0  0  0
 14 15  1  0  0  0  0
 14 16  1  0  0  0  0
 14 17  1  0  0  0  0
 11 12  1  0  0  0  0
 11 13  1  0  0  0  0
 11 14  1  0  0  0  0
  9 10  1  0  0  0  0
  9 11  1  0  0  0  0
  9 27  1  0  0  0  0
  7  8  1  0  0  0  0
  7  9  1  0  0  0  0
 31 32  1  0  0  0  0
 31 33  1  0  0  0  0
 31 34  1  0  0  0  0
 29 30  1  0  0  0  0
 29 31  1  0  0  0  0
M  CHG  1  23   1
M  END
$$$$
default_name
  -OEChem-02102213163D

 34 33  0     1  0  0  0  0  0999 V2000
   -3.8899   -3.6747    1.6490 H   0  0  0  0  0  0  0  0  0  0  0  0
   -3.9109   -2.6717    1.2250 C   0  0  0  0  0  0  0  0  0  0  0  0
   -4.6009   -2.0517    1.7950 H   0  0  0  0  0  0  0  0  0  0  0  0
   -4.2309   -2.7237    0.1860 H   0  0  0  0  0  0  0  0  0  0  0  0
   -2.5229   -2.0787    1.2980 C   0  0  0  0  0  0  0  0  0  0  0  0
   -1.5999   -2.7227    1.7810 O   0  0  0  0  0  0  0  0  0  0  0  0
   -2.3659   -0.8447    0.8120 N   0  0  0  0  0  0  0  0  0  0  0  0
   -3.1749   -0.3807    0.4220 H   0  0  0  0  0  0  0  0  0  0  0  0
   -1.0919   -0.1077    0.8170 C   0  0  1  0  0  0  0  0  0  0  0  0
   -0.4136   -0.6011    1.5155 H   0  0  0  0  0  0  0  0  0  0  0  0
   -0.4834   -0.1723   -0.5965 C   0  0  0  0  0  0  0  0  0  0  0  0
   -1.1808    0.2900   -1.2967 H   0  0  0  0  0  0  0  0  0  0  0  0
    0.4458    0.4007   -0.6136 H   0  0  0  0  0  0  0  0  0  0  0  0
   -0.2022   -1.6063   -1.0709 C   0  0  0  0  0  0  0  0  0  0  0  0
    0.7892   -1.6560   -1.5231 H   0  0  0  0  0  0  0  0  0  0  0  0
   -0.2374   -2.2818   -0.2139 H   0  0  0  0  0  0  0  0  0  0  0  0
   -1.2496   -2.0423   -2.1048 C   0  0  0  0  0  0  0  0  0  0  0  0
   -2.2426   -1.9772   -1.6535 H   0  0  0  0  0  0  0  0  0  0  0  0
   -1.2041   -1.3694   -2.9634 H   0  0  0  0  0  0  0  0  0  0  0  0
   -0.9848   -3.4826   -2.5609 C   0  0  0  0  0  0  0  0  0  0  0  0
    0.0161   -3.5283   -3.0023 H   0  0  0  0  0  0  0  0  0  0  0  0
   -0.9931   -4.1330   -1.6810 H   0  0  0  0  0  0  0  0  0  0  0  0
   -1.9989   -3.9388   -3.5448 N   0  3  0  0  0  0  0  0  0  0  0  0
   -1.9887   -3.3469   -4.3661 H   0  0  0  0  0  0  0  0  0  0  0  0
   -1.8103   -4.8901   -3.8352 H   0  0  0  0  0  0  0  0  0  0  0  0
   -2.9264   -3.9067   -3.1381 H   0  0  0  0  0  0  0  0  0  0  0  0
   -1.3103    1.3348    1.2791 C   0  0  0  0  0  0  0  0  0  0  0  0
   -2.2333    1.9891    0.8084 O   0  0  0  0  0  0  0  0  0  0  0  0
   -0.4429    1.8293    2.1683 N   0  0  0  0  0  0  0  0  0  0  0  0
    0.2668    1.2118    2.5263 H   0  0  0  0  0  0  0  0  0  0  0  0
   -0.5118    3.1863    2.7135 C   0  0  0  0  0  0  0  0  0  0  0  0
   -1.4470    3.3159    3.2625 H   0  0  0  0  0  0  0  0  0  0  0  0
    0.3243    3.3682    3.3896 H   0  0  0  0  0  0  0  0  0  0  0  0
   -0.4850    3.9172    1.9023 H   0  0  0  0  0  0  0  0  0  0  0  0
  5  6  2  0  0  0  0
  5  7  1  0  0  0  0
  2  3  1  0  0  0  0
  2  4  1  0  0  0  0
  2  5  1  0  0  0  0
  1  2  1  0  0  0  0
 27 28  2  0  0  0  0
 27 29  1  0  0  0  0
 23 24  1  0  0  0  0
 23 25  1  0  0  0  0
 23 26  1  0  0  0  0
 20 21  1  0  0  0  0
 20 22  1  0  0  0  0
 20 23  1  0  0  0  0
 17 18  1  0  0  0  0
 17 19  1  0  0  0  0
 17 20  1  0  0  0  0
 14 15  1  0  0  0  0
 14 16  1  0  0  0  0
 14 17  1  0  0  0  0
 11 12  1  0  0  0  0
 11 13  1  0  0  0  0
 11 14  1  0  0  0  0
  9 10  1  0  0  0  0
  9 11  1  0  0  0  0
  9 27  1  0  0  0  0
  7  8  1  0  0  0  0
  7  9  1  0  0  0  0
 31 32  1  0  0  0  0
 31 33  1  0  0  0  0
 31 34  1  0  0  0  0
 29 30  1  0  0  0  0
 29 31  1  0  0  0  0
M  CHG  1  23   1
M  END
$$$$
default_name
  -OEChem-02102213163D

 34 33  0     1  0  0  0  0  0999 V2000
   -3.8899   -3.6747    1.6490 H   0  0  0  0  0  0  0  0  0  0  0  0
   -3.9109   -2.6717    1.2250 C   0  0  0  0  0  0  0  0  0  0  0  0
   -4.6009   -2.0517    1.7950 H   0  0  0  0  0  0  0  0  0  0  0  0
   -4.2309   -2.7237    0.1860 H   0  0  0  0  0  0  0  0  0  0  0  0
   -2.5229   -2.0787    1.2980 C   0  0  0  0  0  0  0  0  0  0  0  0
   -1.5999   -2.7227    1.7810 O   0  0  0  0  0  0  0  0  0  0  0  0
   -2.3659   -0.8447    0.8120 N   0  0  0  0  0  0  0  0  0  0  0  0
   -3.1749   -0.3807    0.4220 H   0  0  0  0  0  0  0  0  0  0  0  0
   -1.0919   -0.1077    0.8170 C   0  0  1  0  0  0  0  0  0  0  0  0
   -0.4136   -0.6011    1.5155 H   0  0  0  0  0  0  0  0  0  0  0  0
   -0.4834   -0.1723   -0.5965 C   0  0  0  0  0  0  0  0  0  0  0  0
   -1.1808    0.2900   -1.2967 H   0  0  0  0  0  0  0  0  0  0  0  0
    0.4458    0.4007   -0.6136 H   0  0  0  0  0  0  0  0  0  0  0  0
   -0.2022   -1.6063   -1.0709 C   0  0  0  0  0  0  0  0  0  0  0  0
    0.8630   -1.7238   -1.2744 H   0  0  0  0  0  0  0  0  0  0  0  0
   -0.4950   -2.3080   -0.2874 H   0  0  0  0  0  0  0  0  0  0  0  0
   -0.9957   -1.9118   -2.3488 C   0  0  0  0  0  0  0  0  0  0  0  0
   -2.0610   -1.7787   -2.1458 H   0  0  0  0  0  0  0  0  0  0  0  0
   -0.6927   -1.2136   -3.1316 H   0  0  0  0  0  0  0  0  0  0  0  0
   -0.7353   -3.3513   -2.8098 C   0  0  0  0  0  0  0  0  0  0  0  0
    0.3368   -3.4661   -3.0003 H   0  0  0  0  0  0  0  0  0  0  0  0
   -1.0058   -4.0312   -1.9962 H   0  0  0  0  0  0  0  0  0  0  0  0
   -1.5101   -3.6816   -4.0325 N   0  3  0  0  0  0  0  0  0  0  0  0
   -1.2565   -3.0624   -4.7921 H   0  0  0  0  0  0  0  0  0  0  0  0
   -1.3276   -4.6341   -4.3231 H   0  0  0  0  0  0  0  0  0  0  0  0
   -2.5038   -3.5854   -3.8588 H   0  0  0  0  0  0  0  0  0  0  0  0
   -1.3103    1.3348    1.2791 C   0  0  0  0  0  0  0  0  0  0  0  0
   -2.2333    1.9891    0.8084 O   0  0  0  0  0  0  0  0  0  0  0  0
   -0.4429    1.8293    2.1683 N   0  0  0  0  0  0  0  0  0  0  0  0
    0.2668    1.2118    2.5263 H   0  0  0  0  0  0  0  0  0  0  0  0
   -0.5118    3.1863    2.7135 C   0  0  0  0  0  0  0  0  0  0  0  0
   -1.4470    3.3159    3.2625 H   0  0  0  0  0  0  0  0  0  0  0  0
    0.3243    3.3682    3.3896 H   0  0  0  0  0  0  0  0  0  0  0  0
   -0.4850    3.9172    1.9023 H   0  0  0  0  0  0  0  0  0  0  0  0
  5  6  2  0  0  0  0
  5  7  1  0  0  0  0
  2  3  1  0  0  0  0
  2  4  1  0  0  0  0
  2  5  1  0  0  0  0
  1  2  1  0  0  0  0
 27 28  2  0  0  0  0
 27 29  1  0  0  0  0
 23 24  1  0  0  0  0
 23 25  1  0  0  0  0
 23 26  1  0  0  0  0
 20 21  1  0  0  0  0
 20 22  1  0  0  0  0
 20 23  1  0  0  0  0
 17 18  1  0  0  0  0
 17 19  1  0  0  0  0
 17 20  1  0  0  0  0
 14 15  1  0  0  0  0
 14 16  1  0  0  0  0
 14 17  1  0  0  0  0
 11 12  1  0  0  0  0
 11 13  1  0  0  0  0
 11 14  1  0  0  0  0
  9 10  1  0  0  0  0
  9 11  1  0  0  0  0
  9 27  1  0  0  0  0
  7  8  1  0  0  0  0
  7  9  1  0  0  0  0
 31 32  1  0  0  0  0
 31 33  1  0  0  0  0
 31 34  1  0  0  0  0
 29 30  1  0  0  0  0
 29 31  1  0  0  0  0
M  CHG  1  23   1
M  END
$$$$
default_name
  -OEChem-02102213163D

 34 33  0     1  0  0  0  0  0999 V2000
   -3.8899   -3.6747    1.6490 H   0  0  0  0  0  0  0  0  0  0  0  0
   -3.9109   -2.6717    1.2250 C   0  0  0  0  0  0  0  0  0  0  0  0
   -4.6009   -2.0517    1.7950 H   0  0  0  0  0  0  0  0  0  0  0  0
   -4.2309   -2.7237    0.1860 H   0  0  0  0  0  0  0  0  0  0  0  0
   -2.5229   -2.0787    1.2980 C   0  0  0  0  0  0  0  0  0  0  0  0
   -1.5999   -2.7227    1.7810 O   0  0  0  0  0  0  0  0  0  0  0  0
   -2.3659   -0.8447    0.8120 N   0  0  0  0  0  0  0  0  0  0  0  0
   -3.1749   -0.3807    0.4220 H   0  0  0  0  0  0  0  0  0  0  0  0
   -1.0919   -0.1077    0.8170 C   0  0  1  0  0  0  0  0  0  0  0  0
   -0.4136   -0.6011    1.5155 H   0  0  0  0  0  0  0  0  0  0  0  0
   -0.4834   -0.1723   -0.5965 C   0  0  0  0  0  0  0  0  0  0  0  0
   -1.1808    0.2900   -1.2967 H   0  0  0  0  0  0  0  0  0  0  0  0
    0.4458    0.4007   -0.6136 H   0  0  0  0  0  0  0  0  0  0  0  0
   -0.2022   -1.6063   -1.0709 C   0  0  0  0  0  0  0  0  0  0  0  0
    0.8687   -1.8070   -1.0196 H   0  0  0  0  0  0  0  0  0  0  0  0
   -0.7281   -2.3092   -0.4218 H   0  0  0  0  0  0  0  0  0  0  0  0
   -0.6810   -1.7945   -2.5171 C   0  0  0  0  0  0  0  0  0  0  0  0
   -1.7509   -1.5783   -2.5679 H   0  0  0  0  0  0  0  0  0  0  0  0
   -0.1457   -1.0959   -3.1631 H   0  0  0  0  0  0  0  0  0  0  0  0
   -0.4236   -3.2327   -2.9837 C   0  0  0  0  0  0  0  0  0  0  0  0
    0.6510   -3.4318   -2.9180 H   0  0  0  0  0  0  0  0  0  0  0  0
   -0.9337   -3.9169   -2.2989 H   0  0  0  0  0  0  0  0  0  0  0  0
   -0.8997   -3.4492   -4.3733 N   0  3  0  0  0  0  0  0  0  0  0  0
   -0.4235   -2.8260   -5.0133 H   0  0  0  0  0  0  0  0  0  0  0  0
   -0.7229   -4.4022   -4.6657 H   0  0  0  0  0  0  0  0  0  0  0  0
   -1.8958   -3.2747   -4.4375 H   0  0  0  0  0  0  0  0  0  0  0  0
   -1.3103    1.3348    1.2791 C   0  0  0  0  0  0  0  0  0  0  0  0
   -2.2333    1.9891    0.8084 O   0  0  0  0  0  0  0  0  0  0  0  0
   -0.4429    1.8293    2.1683 N   0  0  0  0  0  0  0  0  0  0  0  0
    0.2668    1.2118    2.5263 H   0  0  0  0  0  0  0  0  0  0  0  0
   -0.5118    3.1863    2.7135 C   0  0  0  0  0  0  0  0  0  0  0  0
   -1.4470    3.3159    3.2625 H   0  0  0  0  0  0  0  0  0  0  0  0
    0.3243    3.3682    3.3896 H   0  0  0  0  0  0  0  0  0  0  0  0
   -0.4850    3.9172    1.9023 H   0  0  0  0  0  0  0  0  0  0  0  0
  5  6  2  0  0  0  0
  5  7  1  0  0  0  0
  2  3  1  0  0  0  0
  2  4  1  0  0  0  0
  2  5  1  0  0  0  0
  1  2  1  0  0  0  0
 27 28  2  0  0  0  0
 27 29  1  0  0  0  0
 23 24  1  0  0  0  0
 23 25  1  0  0  0  0
 23 26  1  0  0  0  0
 20 21  1  0  0  0  0
 20 22  1  0  0  0  0
 20 23  1  0  0  0  0
 17 18  1  0  0  0  0
 17 19  1  0  0  0  0
 17 20  1  0  0  0  0
 14 15  1  0  0  0  0
 14 16  1  0  0  0  0
 14 17  1  0  0  0  0
 11 12  1  0  0  0  0
 11 13  1  0  0  0  0
 11 14  1  0  0  0  0
  9 10  1  0  0  0  0
  9 11  1  0  0  0  0
  9 27  1  0  0  0  0
  7  8  1  0  0  0  0
  7  9  1  0  0  0  0
 31 32  1  0  0  0  0
 31 33  1  0  0  0  0
 31 34  1  0  0  0  0
 29 30  1  0  0  0  0
 29 31  1  0  0  0  0
M  CHG  1  23   1
M  END
$$$$
default_name
  -OEChem-02102213163D

 34 33  0     1  0  0  0  0  0999 V2000
   -3.8899   -3.6747    1.6490 H   0  0  0  0  0  0  0  0  0  0  0  0
   -3.9109   -2.6717    1.2250 C   0  0  0  0  0  0  0  0  0  0  0  0
   -4.6009   -2.0517    1.7950 H   0  0  0  0  0  0  0  0  0  0  0  0
   -4.2309   -2.7237    0.1860 H   0  0  0  0  0  0  0  0  0  0  0  0
   -2.5229   -2.0787    1.2980 C   0  0  0  0  0  0  0  0  0  0  0  0
   -1.5999   -2.7227    1.7810 O   0  0  0  0  0  0  0  0  0  0  0  0
   -2.3659   -0.8447    0.8120 N   0  0  0  0  0  0  0  0  0  0  0  0
   -3.1749   -0.3807    0.4220 H   0  0  0  0  0  0  0  0  0  0  0  0
   -1.0919   -0.1077    0.8170 C   0  0  1  0  0  0  0  0  0  0  0  0
   -0.4136   -0.6011    1.5155 H   0  0  0  0  0  0  0  0  0  0  0  0
   -0.4834   -0.1723   -0.5965 C   0  0  0  0  0  0  0  0  0  0  0  0
   -1.1808    0.2900   -1.2967 H   0  0  0  0  0  0  0  0  0  0  0  0
    0.4458    0.4007   -0.6136 H   0  0  0  0  0  0  0  0  0  0  0  0
   -0.2022   -1.6063   -1.0709 C   0  0  0  0  0  0  0  0  0  0  0  0
    0.8061   -1.8998   -0.7760 H   0  0  0  0  0  0  0  0  0  0  0  0
   -0.9209   -2.2854   -0.6080 H   0  0  0  0  0  0  0  0  0  0  0  0
   -0.3271   -1.6983   -2.5980 C   0  0  0  0  0  0  0  0  0  0  0  0
   -1.3333   -1.3894   -2.8913 H   0  0  0  0  0  0  0  0  0  0  0  0
    0.3998   -1.0244   -3.0559 H   0  0  0  0  0  0  0  0  0  0  0  0
   -0.0711   -3.1348   -3.0708 C   0  0  0  0  0  0  0  0  0  0  0  0
    0.9374   -3.4276   -2.7609 H   0  0  0  0  0  0  0  0  0  0  0  0
   -0.7818   -3.7980   -2.5684 H   0  0  0  0  0  0  0  0  0  0  0  0
   -0.2091   -3.2574   -4.5440 N   0  3  0  0  0  0  0  0  0  0  0  0
    0.4533   -2.6536   -5.0146 H   0  0  0  0  0  0  0  0  0  0  0  0
   -0.0376   -4.2104   -4.8395 H   0  0  0  0  0  0  0  0  0  0  0  0
   -1.1439   -2.9958   -4.8350 H   0  0  0  0  0  0  0  0  0  0  0  0
   -1.3103    1.3348    1.2791 C   0  0  0  0  0  0  0  0  0  0  0  0
   -2.2333    1.9891    0.8084 O   0  0  0  0  0  0  0  0  0  0  0  0
   -0.4429    1.8293    2.1683 N   0  0  0  0  0  0  0  0  0  0  0  0
    0.2668    1.2118    2.5263 H   0  0  0  0  0  0  0  0  0  0  0  0
   -0.5118    3.1863    2.7135 C   0  0  0  0  0  0  0  0  0  0  0  0
   -1.4470    3.3159    3.2625 H   0  0  0  0  0  0  0  0  0  0  0  0
    0.3243    3.3682    3.3896 H   0  0  0  0  0  0  0  0  0  0  0  0
   -0.4850    3.9172    1.9023 H   0  0  0  0  0  0  0  0  0  0  0  0
  5  6  2  0  0  0  0
  5  7  1  0  0  0  0
  2  3  1  0  0  0  0
  2  4  1  0  0  0  0
  2  5  1  0  0  0  0
  1  2  1  0  0  0  0
 27 28  2  0  0  0  0
 27 29  1  0  0  0  0
 23 24  1  0  0  0  0
 23 25  1  0  0  0  0
 23 26  1  0  0  0  0
 20 21  1  0  0  0  0
 20 22  1  0  0  0  0
 20 23  1  0  0  0  0
 17 18  1  0  0  0  0
 17 19  1  0  0  0  0
 17 20  1  0  0  0  0
 14 15  1  0  0  0  0
 14 16  1  0  0  0  0
 14 17  1  0  0  0  0
 11 12  1  0  0  0  0
 11 13  1  0  0  0  0
 11 14  1  0  0  0  0
  9 10  1  0  0  0  0
  9 11  1  0  0  0  0
  9 27  1  0  0  0  0
  7  8  1  0  0  0  0
  7  9  1  0  0  0  0
 31 32  1  0  0  0  0
 31 33  1  0  0  0  0
 31 34  1  0  0  0  0
 29 30  1  0  0  0  0
 29 31  1  0  0  0  0
M  CHG  1  23   1
M  END
$$$$
default_name
  -OEChem-02102213163D

 34 33  0     1  0  0  0  0  0999 V2000
   -3.8899   -3.6747    1.6490 H   0  0  0  0  0  0  0  0  0  0  0  0
   -3.9109   -2.6717    1.2250 C   0  0  0  0  0  0  0  0  0  0  0  0
   -4.6009   -2.0517    1.7950 H   0  0  0  0  0  0  0  0  0  0  0  0
   -4.2309   -2.7237    0.1860 H   0  0  0  0  0  0  0  0  0  0  0  0
   -2.5229   -2.0787    1.2980 C   0  0  0  0  0  0  0  0  0  0  0  0
   -1.5999   -2.7227    1.7810 O   0  0  0  0  0  0  0  0  0  0  0  0
   -2.3659   -0.8447    0.8120 N   0  0  0  0  0  0  0  0  0  0  0  0
   -3.1749   -0.3807    0.4220 H   0  0  0  0  0  0  0  0  0  0  0  0
   -1.0919   -0.1077    0.8170 C   0  0  1  0  0  0  0  0  0  0  0  0
   -0.4136   -0.6011    1.5155 H   0  0  0  0  0  0  0  0  0  0  0  0
   -0.4834   -0.1723   -0.5965 C   0  0  0  0  0  0  0  0  0  0  0  0
   -1.1808    0.2900   -1.2967 H   0  0  0  0  0  0  0  0  0  0  0  0
    0.4458    0.4007   -0.6136 H   0  0  0  0  0  0  0  0  0  0  0  0
   -0.2022   -1.6063   -1.0709 C   0  0  0  0  0  0  0  0  0  0  0  0
    0.6794   -1.9961   -0.5602 H   0  0  0  0  0  0  0  0  0  0  0  0
   -1.0603   -2.2382   -0.8333 H   0  0  0  0  0  0  0  0  0  0  0  0
    0.0421   -1.6299   -2.5861 C   0  0  0  0  0  0  0  0  0  0  0  0
   -0.8367   -1.2251   -3.0938 H   0  0  0  0  0  0  0  0  0  0  0  0
    0.9064   -1.0041   -2.8172 H   0  0  0  0  0  0  0  0  0  0  0  0
    0.2983   -3.0643   -3.0651 C   0  0  0  0  0  0  0  0  0  0  0  0
    1.1764   -3.4538   -2.5399 H   0  0  0  0  0  0  0  0  0  0  0  0
   -0.5604   -3.6824   -2.7865 H   0  0  0  0  0  0  0  0  0  0  0  0
    0.5144   -3.1192   -4.5330 N   0  3  0  0  0  0  0  0  0  0  0  0
    1.3144   -2.5572   -4.7958 H   0  0  0  0  0  0  0  0  0  0  0  0
    0.6816   -4.0716   -4.8328 H   0  0  0  0  0  0  0  0  0  0  0  0
   -0.2993   -2.7677   -5.0241 H   0  0  0  0  0  0  0  0  0  0  0  0
   -1.3103    1.3348    1.2791 C   0  0  0  0  0  0  0  0  0  0  0  0
   -2.2333    1.9891    0.8084 O   0  0  0  0  0  0  0  0  0  0  0  0
   -0.4429    1.8293    2.1683 N   0  0  0  0  0  0  0  0  0  0  0  0
    0.2668    1.2118    2.5263 H   0  0  0  0  0  0  0  0  0  0  0  0
   -0.5118    3.1863    2.7135 C   0  0  0  0  0  0  0  0  0  0  0  0
   -1.4470    3.3159    3.2625 H   0  0  0  0  0  0  0  0  0  0  0  0
    0.3243    3.3682    3.3896 H   0  0  0  0  0  0  0  0  0  0  0  0
   -0.4850    3.9172    1.9023 H   0  0  0  0  0  0  0  0  0  0  0  0
  5  6  2  0  0  0  0
  5  7  1  0  0  0  0
  2  3  1  0  0  0  0
  2  4  1  0  0  0  0
  2  5  1  0  0  0  0
  1  2  1  0  0  0  0
 27 28  2  0  0  0  0
 27 29  1  0  0  0  0
 23 24  1  0  0  0  0
 23 25  1  0  0  0  0
 23 26  1  0  0  0  0
 20 21  1  0  0  0  0
 20 22  1  0  0  0  0
 20 23  1  0  0  0  0
 17 18  1  0  0  0  0
 17 19  1  0  0  0  0
 17 20  1  0  0  0  0
 14 15  1  0  0  0  0
 14 16  1  0  0  0  0
 14 17  1  0  0  0  0
 11 12  1  0  0  0  0
 11 13  1  0  0  0  0
 11 14  1  0  0  0  0
  9 10  1  0  0  0  0
  9 11  1  0  0  0  0
  9 27  1  0  0  0  0
  7  8  1  0  0  0  0
  7  9  1  0  0  0  0
 31 32  1  0  0  0  0
 31 33  1  0  0  0  0
 31 34  1  0  0  0  0
 29 30  1  0  0  0  0
 29 31  1  0  0  0  0
M  CHG  1  23   1
M  END
$$$$
default_name
  -OEChem-02102213163D

 34 33  0     1  0  0  0  0  0999 V2000
   -3.8899   -3.6747    1.6490 H   0  0  0  0  0  0  0  0  0  0  0  0
   -3.9109   -2.6717    1.2250 C   0  0  0  0  0  0  0  0  0  0  0  0
   -4.6009   -2.0517    1.7950 H   0  0  0  0  0  0  0  0  0  0  0  0
   -4.2309   -2.7237    0.1860 H   0  0  0  0  0  0  0  0  0  0  0  0
   -2.5229   -2.0787    1.2980 C   0  0  0  0  0  0  0  0  0  0  0  0
   -1.5999   -2.7227    1.7810 O   0  0  0  0  0  0  0  0  0  0  0  0
   -2.3659   -0.8447    0.8120 N   0  0  0  0  0  0  0  0  0  0  0  0
   -3.1749   -0.3807    0.4220 H   0  0  0  0  0  0  0  0  0  0  0  0
   -1.0919   -0.1077    0.8170 C   0  0  1  0  0  0  0  0  0  0  0  0
   -0.4136   -0.6011    1.5155 H   0  0  0  0  0  0  0  0  0  0  0  0
   -0.4834   -0.1723   -0.5965 C   0  0  0  0  0  0  0  0  0  0  0  0
   -1.0350    0.5111   -1.2440 H   0  0  0  0  0  0  0  0  0  0  0  0
    0.5552    0.1618   -0.5555 H   0  0  0  0  0  0  0  0  0  0  0  0
   -0.5391   -1.5766   -1.2173 C   0  0  0  0  0  0  0  0  0  0  0  0
    0.0099   -2.2785   -0.5881 H   0  0  0  0  0  0  0  0  0  0  0  0
   -1.5801   -1.8982   -1.2858 H   0  0  0  0  0  0  0  0  0  0  0  0
    0.0827   -1.5657   -2.6206 C   0  0  0  0  0  0  0  0  0  0  0  0
   -0.4598   -0.8509   -3.2439 H   0  0  0  0  0  0  0  0  0  0  0  0
    1.1259   -1.2524   -2.5454 H   0  0  0  0  0  0  0  0  0  0  0  0
    0.0054   -2.9616   -3.2515 C   0  0  0  0  0  0  0  0  0  0  0  0
    0.5473   -3.6633   -2.6091 H   0  0  0  0  0  0  0  0  0  0  0  0
   -1.0431   -3.2733   -3.2786 H   0  0  0  0  0  0  0  0  0  0  0  0
    0.5792   -2.9743   -4.6209 N   0  3  0  0  0  0  0  0  0  0  0  0
    1.5526   -2.6968   -4.6010 H   0  0  0  0  0  0  0  0  0  0  0  0
    0.5203   -3.9015   -5.0230 H   0  0  0  0  0  0  0  0  0  0  0  0
    0.0753   -2.3327   -5.2219 H   0  0  0  0  0  0  0  0  0  0  0  0
   -1.3103    1.3348    1.2791 C   0  0  0  0  0  0  0  0  0  0  0  0
   -2.2333    1.9891    0.8084 O   0  0  0  0  0  0  0  0  0  0  0  0
   -0.4429    1.8293    2.1683 N   0  0  0  0  0  0  0  0  0  0  0  0
    0.2668    1.2118    2.5263 H   0  0  0  0  0  0  0  0  0  0  0  0
   -0.5118    3.1863    2.7135 C   0  0  0  0  0  0  0  0  0  0  0  0
   -1.4470    3.3159    3.2625 H   0  0  0  0  0  0  0  0  0  0  0  0
    0.3243    3.3682    3.3896 H   0  0  0  0  0  0  0  0  0  0  0  0
   -0.4850    3.9172    1.9023 H   0  0  0  0  0  0  0  0  0  0  0  0
  5  6  2  0  0  0  0
  5  7  1  0  0  0  0
  2  3  1  0  0  0  0
  2  4  1  0  0  0  0
  2  5  1  0  0  0  0
  1  2  1  0  0  0  0
 27 28  2  0  0  0  0
 27 29  1  0  0  0  0
 23 24  1  0  0  0  0
 23 25  1  0  0  0  0
 23 26  1  0  0  0  0
 20 21  1  0  0  0  0
 20 22  1  0  0  0  0
 20 23  1  0  0  0  0
 17 18  1  0  0  0  0
 17 19  1  0  0  0  0
 17 20  1  0  0  0  0
 14 15  1  0  0  0  0
 14 16  1  0  0  0  0
 14 17  1  0  0  0  0
 11 12  1  0  0  0  0
 11 13  1  0  0  0  0
 11 14  1  0  0  0  0
  9 10  1  0  0  0  0
  9 11  1  0  0  0  0
  9 27  1  0  0  0  0
  7  8  1  0  0  0  0
  7  9  1  0  0  0  0
 31 32  1  0  0  0  0
 31 33  1  0  0  0  0
 31 34  1  0  0  0  0
 29 30  1  0  0  0  0
 29 31  1  0  0  0  0
M  CHG  1  23   1
M  END
$$$$
default_name
  -OEChem-02102213163D

 34 33  0     1  0  0  0  0  0999 V2000
   -3.8899   -3.6747    1.6490 H   0  0  0  0  0  0  0  0  0  0  0  0
   -3.9109   -2.6717    1.2250 C   0  0  0  0  0  0  0  0  0  0  0  0
   -4.6009   -2.0517    1.7950 H   0  0  0  0  0  0  0  0  0  0  0  0
   -4.2309   -2.7237    0.1860 H   0  0  0  0  0  0  0  0  0  0  0  0
   -2.5229   -2.0787    1.2980 C   0  0  0  0  0  0  0  0  0  0  0  0
   -1.5999   -2.7227    1.7810 O   0  0  0  0  0  0  0  0  0  0  0  0
   -2.3659   -0.8447    0.8120 N   0  0  0  0  0  0  0  0  0  0  0  0
   -3.1749   -0.3807    0.4220 H   0  0  0  0  0  0  0  0  0  0  0  0
   -1.0919   -0.1077    0.8170 C   0  0  1  0  0  0  0  0  0  0  0  0
   -0.4136   -0.6011    1.5155 H   0  0  0  0  0  0  0  0  0  0  0  0
   -0.4834   -0.1723   -0.5965 C   0  0  0  0  0  0  0  0  0  0  0  0
   -1.0350    0.5111   -1.2440 H   0  0  0  0  0  0  0  0  0  0  0  0
    0.5552    0.1618   -0.5555 H   0  0  0  0  0  0  0  0  0  0  0  0
   -0.5391   -1.5766   -1.2173 C   0  0  0  0  0  0  0  0  0  0  0  0
   -0.2315   -2.3175   -0.4781 H   0  0  0  0  0  0  0  0  0  0  0  0
   -1.5625   -1.7902   -1.5317 H   0  0  0  0  0  0  0  0  0  0  0  0
    0.3940   -1.6609   -2.4331 C   0  0  0  0  0  0  0  0  0  0  0  0
    0.0927   -0.9077   -3.1650 H   0  0  0  0  0  0  0  0  0  0  0  0
    1.4171   -1.4557   -2.1118 H   0  0  0  0  0  0  0  0  0  0  0  0
    0.3207   -3.0549   -3.0689 C   0  0  0  0  0  0  0  0  0  0  0  0
    0.6183   -3.7946   -2.3186 H   0  0  0  0  0  0  0  0  0  0  0  0
   -0.7187   -3.2569   -3.3447 H   0  0  0  0  0  0  0  0  0  0  0  0
    1.1969   -3.1569   -4.2632 N   0  3  0  0  0  0  0  0  0  0  0  0
    2.1617   -2.9812   -4.0123 H   0  0  0  0  0  0  0  0  0  0  0  0
    1.1368   -4.0817   -4.6707 H   0  0  0  0  0  0  0  0  0  0  0  0
    0.9198   -2.4800   -4.9645 H   0  0  0  0  0  0  0  0  0  0  0  0
   -1.3103    1.3348    1.2791 C   0  0  0  0  0  0  0  0  0  0  0  0
   -2.2333    1.9891    0.8084 O   0  0  0  0  0  0  0  0  0  0  0  0
   -0.4429    1.8293    2.1683 N   0  0  0  0  0  0  0  0  0  0  0  0
    0.2668    1.2118    2.5263 H   0  0  0  0  0  0  0  0  0  0  0  0
   -0.5118    3.1863    2.7135 C   0  0  0  0  0  0  0  0  0  0  0  0
   -1.4470    3.3159    3.2625 H   0  0  0  0  0  0  0  0  0  0  0  0
    0.3243    3.3682    3.3896 H   0  0  0  0  0  0  0  0  0  0  0  0
   -0.4850    3.9172    1.9023 H   0  0  0  0  0  0  0  0  0  0  0  0
  5  6  2  0  0  0  0
  5  7  1  0  0  0  0
  2  3  1  0  0  0  0
  2  4  1  0  0  0  0
  2  5  1  0  0  0  0
  1  2  1  0  0  0  0
 27 28  2  0  0  0  0
 27 29  1  0  0  0  0
 23 24  1  0  0  0  0
 23 25  1  0  0  0  0
 23 26  1  0  0  0  0
 20 21  1  0  0  0  0
 20 22  1  0  0  0  0
 20 23  1  0  0  0  0
 17 18  1  0  0  0  0
 17 19  1  0  0  0  0
 17 20  1  0  0  0  0
 14 15  1  0  0  0  0
 14 16  1  0  0  0  0
 14 17  1  0  0  0  0
 11 12  1  0  0  0  0
 11 13  1  0  0  0  0
 11 14  1  0  0  0  0
  9 10  1  0  0  0  0
  9 11  1  0  0  0  0
  9 27  1  0  0  0  0
  7  8  1  0  0  0  0
  7  9  1  0  0  0  0
 31 32  1  0  0  0  0
 31 33  1  0  0  0  0
 31 34  1  0  0  0  0
 29 30  1  0  0  0  0
 29 31  1  0  0  0  0
M  CHG  1  23   1
M  END
$$$$
default_name
  -OEChem-02102213163D

 34 33  0     1  0  0  0  0  0999 V2000
   -3.8899   -3.6747    1.6490 H   0  0  0  0  0  0  0  0  0  0  0  0
   -3.9109   -2.6717    1.2250 C   0  0  0  0  0  0  0  0  0  0  0  0
   -4.6009   -2.0517    1.7950 H   0  0  0  0  0  0  0  0  0  0  0  0
   -4.2309   -2.7237    0.1860 H   0  0  0  0  0  0  0  0  0  0  0  0
   -2.5229   -2.0787    1.2980 C   0  0  0  0  0  0  0  0  0  0  0  0
   -1.5999   -2.7227    1.7810 O   0  0  0  0  0  0  0  0  0  0  0  0
   -2.3659   -0.8447    0.8120 N   0  0  0  0  0  0  0  0  0  0  0  0
   -3.1749   -0.3807    0.4220 H   0  0  0  0  0  0  0  0  0  0  0  0
   -1.0919   -0.1077    0.8170 C   0  0  1  0  0  0  0  0  0  0  0  0
   -0.4136   -0.6011    1.5155 H   0  0  0  0  0  0  0  0  0  0  0  0
   -0.4834   -0.1723   -0.5965 C   0  0  0  0  0  0  0  0  0  0  0  0
   -1.0350    0.5111   -1.2440 H   0  0  0  0  0  0  0  0  0  0  0  0
    0.5552    0.1618   -0.5555 H   0  0  0  0  0  0  0  0  0  0  0  0
   -0.5391   -1.5766   -1.2173 C   0  0  0  0  0  0  0  0  0  0  0  0
   -0.4948   -2.3289   -0.4287 H   0  0  0  0  0  0  0  0  0  0  0  0
   -1.4761   -1.6900   -1.7660 H   0  0  0  0  0  0  0  0  0  0  0  0
    0.6403   -1.7837   -2.1775 C   0  0  0  0  0  0  0  0  0  0  0  0
    0.6017   -1.0196   -2.9576 H   0  0  0  0  0  0  0  0  0  0  0  0
    1.5744   -1.6784   -1.6222 H   0  0  0  0  0  0  0  0  0  0  0  0
    0.5722   -3.1762   -2.8170 C   0  0  0  0  0  0  0  0  0  0  0  0
    0.6045   -3.9261   -2.0199 H   0  0  0  0  0  0  0  0  0  0  0  0
   -0.3880   -3.2756   -3.3320 H   0  0  0  0  0  0  0  0  0  0  0  0
    1.6897   -3.3946   -3.7699 N   0  3  0  0  0  0  0  0  0  0  0  0
    2.5811   -3.3142   -3.2968 H   0  0  0  0  0  0  0  0  0  0  0  0
    1.6302   -4.3169   -4.1830 H   0  0  0  0  0  0  0  0  0  0  0  0
    1.6592   -2.7082   -4.5147 H   0  0  0  0  0  0  0  0  0  0  0  0
   -1.3103    1.3348    1.2791 C   0  0  0  0  0  0  0  0  0  0  0  0
   -2.2333    1.9891    0.8084 O   0  0  0  0  0  0  0  0  0  0  0  0
   -0.4429    1.8293    2.1683 N   0  0  0  0  0  0  0  0  0  0  0  0
    0.2668    1.2118    2.5263 H   0  0  0  0  0  0  0  0  0  0  0  0
   -0.5118    3.1863    2.7135 C   0  0  0  0  0  0  0  0  0  0  0  0
   -1.4470    3.3159    3.2625 H   0  0  0  0  0  0  0  0  0  0  0  0
    0.3243    3.3682    3.3896 H   0  0  0  0  0  0  0  0  0  0  0  0
   -0.4850    3.9172    1.9023 H   0  0  0  0  0  0  0  0  0  0  0  0
  5  6  2  0  0  0  0
  5  7  1  0  0  0  0
  2  3  1  0  0  0  0
  2  4  1  0  0  0  0
  2  5  1  0  0  0  0
  1  2  1  0  0  0  0
 27 28  2  0  0  0  0
 27 29  1  0  0  0  0
 23 24  1  0  0  0  0
 23 25  1  0  0  0  0
 23 26  1  0  0  0  0
 20 21  1  0  0  0  0
 20 22  1  0  0  0  0
 20 23  1  0  0  0  0
 17 18  1  0  0  0  0
 17 19  1  0  0  0  0
 17 20  1  0  0  0  0
 14 15  1  0  0  0  0
 14 16  1  0  0  0  0
 14 17  1  0  0  0  0
 11 12  1  0  0  0  0
 11 13  1  0  0  0  0
 11 14  1  0  0  0  0
  9 10  1  0  0  0  0
  9 11  1  0  0  0  0
  9 27  1  0  0  0  0
  7  8  1  0  0  0  0
  7  9  1  0  0  0  0
 31 32  1  0  0  0  0
 31 33  1  0  0  0  0
 31 34  1  0  0  0  0
 29 30  1  0  0  0  0
 29 31  1  0  0  0  0
M  CHG  1  23   1
M  END
$$$$
default_name
  -OEChem-02102213163D

 34 33  0     1  0  0  0  0  0999 V2000
   -3.8899   -3.6747    1.6490 H   0  0  0  0  0  0  0  0  0  0  0  0
   -3.9109   -2.6717    1.2250 C   0  0  0  0  0  0  0  0  0  0  0  0
   -4.6009   -2.0517    1.7950 H   0  0  0  0  0  0  0  0  0  0  0  0
   -4.2309   -2.7237    0.1860 H   0  0  0  0  0  0  0  0  0  0  0  0
   -2.5229   -2.0787    1.2980 C   0  0  0  0  0  0  0  0  0  0  0  0
   -1.5999   -2.7227    1.7810 O   0  0  0  0  0  0  0  0  0  0  0  0
   -2.3659   -0.8447    0.8120 N   0  0  0  0  0  0  0  0  0  0  0  0
   -3.1749   -0.3807    0.4220 H   0  0  0  0  0  0  0  0  0  0  0  0
   -1.0919   -0.1077    0.8170 C   0  0  1  0  0  0  0  0  0  0  0  0
   -0.4136   -0.6011    1.5155 H   0  0  0  0  0  0  0  0  0  0  0  0
   -0.4834   -0.1723   -0.5965 C   0  0  0  0  0  0  0  0  0  0  0  0
   -1.0350    0.5111   -1.2440 H   0  0  0  0  0  0  0  0  0  0  0  0
    0.5552    0.1618   -0.5555 H   0  0  0  0  0  0  0  0  0  0  0  0
   -0.5391   -1.5766   -1.2173 C   0  0  0  0  0  0  0  0  0  0  0  0
   -0.7620   -2.3120   -0.4431 H   0  0  0  0  0  0  0  0  0  0  0  0
   -1.3266   -1.6045   -1.9729 H   0  0  0  0  0  0  0  0  0  0  0  0
    0.8050   -1.9257   -1.8712 C   0  0  0  0  0  0  0  0  0  0  0  0
    1.0325   -1.1790   -2.6358 H   0  0  0  0  0  0  0  0  0  0  0  0
    1.5873   -1.9054   -1.1099 H   0  0  0  0  0  0  0  0  0  0  0  0
    0.7429   -3.3173   -2.5130 C   0  0  0  0  0  0  0  0  0  0  0  0
    0.5066   -4.0488   -1.7334 H   0  0  0  0  0  0  0  0  0  0  0  0
   -0.0736   -3.3282   -3.2413 H   0  0  0  0  0  0  0  0  0  0  0  0
    2.0243   -3.6710   -3.1745 N   0  3  0  0  0  0  0  0  0  0  0  0
    2.7822   -3.6729   -2.5034 H   0  0  0  0  0  0  0  0  0  0  0  0
    1.9668   -4.5911   -3.5929 H   0  0  0  0  0  0  0  0  0  0  0  0
    2.2432   -3.0017   -3.9032 H   0  0  0  0  0  0  0  0  0  0  0  0
   -1.3103    1.3348    1.2791 C   0  0  0  0  0  0  0  0  0  0  0  0
   -2.2333    1.9891    0.8084 O   0  0  0  0  0  0  0  0  0  0  0  0
   -0.4429    1.8293    2.1683 N   0  0  0  0  0  0  0  0  0  0  0  0
    0.2668    1.2118    2.5263 H   0  0  0  0  0  0  0  0  0  0  0  0
   -0.5118    3.1863    2.7135 C   0  0  0  0  0  0  0  0  0  0  0  0
   -1.4470    3.3159    3.2625 H   0  0  0  0  0  0  0  0  0  0  0  0
    0.3243    3.3682    3.3896 H   0  0  0  0  0  0  0  0  0  0  0  0
   -0.4850    3.9172    1.9023 H   0  0  0  0  0  0  0  0  0  0  0  0
  5  6  2  0  0  0  0
  5  7  1  0  0  0  0
  2  3  1  0  0  0  0
  2  4  1  0  0  0  0
  2  5  1  0  0  0  0
  1  2  1  0  0  0  0
 27 28  2  0  0  0  0
 27 29  1  0  0  0  0
 23 24  1  0  0  0  0
 23 25  1  0  0  0  0
 23 26  1  0  0  0  0
 20 21  1  0  0  0  0
 20 22  1  0  0  0  0
 20 23  1  0  0  0  0
 17 18  1  0  0  0  0
 17 19  1  0  0  0  0
 17 20  1  0  0  0  0
 14 15  1  0  0  0  0
 14 16  1  0  0  0  0
 14 17  1  0  0  0  0
 11 12  1  0  0  0  0
 11 13  1  0  0  0  0
 11 14  1  0  0  0  0
  9 10  1  0  0  0  0
  9 11  1  0  0  0  0
  9 27  1  0  0  0  0
  7  8  1  0  0  0  0
  7  9  1  0  0  0  0
 31 32  1  0  0  0  0
 31 33  1  0  0  0  0
 31 34  1  0  0  0  0
 29 30  1  0  0  0  0
 29 31  1  0  0  0  0
M  CHG  1  23   1
M  END
$$$$
default_name
  -OEChem-02102213163D

 34 33  0     1  0  0  0  0  0999 V2000
   -3.8899   -3.6747    1.6490 H   0  0  0  0  0  0  0  0  0  0  0  0
   -3.9109   -2.6717    1.2250 C   0  0  0  0  0  0  0  0  0  0  0  0
   -4.6009   -2.0517    1.7950 H   0  0  0  0  0  0  0  0  0  0  0  0
   -4.2309   -2.7237    0.1860 H   0  0  0  0  0  0  0  0  0  0  0  0
   -2.5229   -2.0787    1.2980 C   0  0  0  0  0  0  0  0  0  0  0  0
   -1.5999   -2.7227    1.7810 O   0  0  0  0  0  0  0  0  0  0  0  0
   -2.3659   -0.8447    0.8120 N   0  0  0  0  0  0  0  0  0  0  0  0
   -3.1749   -0.3807    0.4220 H   0  0  0  0  0  0  0  0  0  0  0  0
   -1.0919   -0.1077    0.8170 C   0  0  1  0  0  0  0  0  0  0  0  0
   -0.4136   -0.6011    1.5155 H   0  0  0  0  0  0  0  0  0  0  0  0
   -0.4834   -0.1723   -0.5965 C   0  0  0  0  0  0  0  0  0  0  0  0
   -1.0350    0.5111   -1.2440 H   0  0  0  0  0  0  0  0  0  0  0  0
    0.5552    0.1618   -0.5555 H   0  0  0  0  0  0  0  0  0  0  0  0
   -0.5391   -1.5766   -1.2173 C   0  0  0  0  0  0  0  0  0  0  0  0
   -1.0149   -2.2678   -0.5203 H   0  0  0  0  0  0  0  0  0  0  0  0
   -1.1244   -1.5395   -2.1381 H   0  0  0  0  0  0  0  0  0  0  0  0
    0.8767   -2.0771   -1.5351 C   0  0  0  0  0  0  0  0  0  0  0  0
    1.3559   -1.3750   -2.2215 H   0  0  0  0  0  0  0  0  0  0  0  0
    1.4549   -2.1212   -0.6099 H   0  0  0  0  0  0  0  0  0  0  0  0
    0.8212   -3.4687   -2.1777 C   0  0  0  0  0  0  0  0  0  0  0  0
    0.3315   -4.1545   -1.4787 H   0  0  0  0  0  0  0  0  0  0  0  0
    0.2032   -3.4110   -3.0789 H   0  0  0  0  0  0  0  0  0  0  0  0
    2.1777   -3.9675   -2.5177 N   0  3  0  0  0  0  0  0  0  0  0  0
    2.7511   -4.0330   -1.6861 H   0  0  0  0  0  0  0  0  0  0  0  0
    2.1236   -4.8857   -2.9408 H   0  0  0  0  0  0  0  0  0  0  0  0
    2.6319   -3.3406   -3.1716 H   0  0  0  0  0  0  0  0  0  0  0  0
   -1.3103    1.3348    1.2791 C   0  0  0  0  0  0  0  0  0  0  0  0
   -2.2333    1.9891    0.8084 O   0  0  0  0  0  0  0  0  0  0  0  0
   -0.4429    1.8293    2.1683 N   0  0  0  0  0  0  0  0  0  0  0  0
    0.2668    1.2118    2.5263 H   0  0  0  0  0  0  0  0  0  0  0  0
   -0.5118    3.1863    2.7135 C   0  0  0  0  0  0  0  0  0  0  0  0
   -1.4470    3.3159    3.2625 H   0  0  0  0  0  0  0  0  0  0  0  0
    0.3243    3.3682    3.3896 H   0  0  0  0  0  0  0  0  0  0  0  0
   -0.4850    3.9172    1.9023 H   0  0  0  0  0  0  0  0  0  0  0  0
  5  6  2  0  0  0  0
  5  7  1  0  0  0  0
  2  3  1  0  0  0  0
  2  4  1  0  0  0  0
  2  5  1  0  0  0  0
  1  2  1  0  0  0  0
 27 28  2  0  0  0  0
 27 29  1  0  0  0  0
 23 24  1  0  0  0  0
 23 25  1  0  0  0  0
 23 26  1  0  0  0  0
 20 21  1  0  0  0  0
 20 22  1  0  0  0  0
 20 23  1  0  0  0  0
 17 18  1  0  0  0  0
 17 19  1  0  0  0  0
 17 20  1  0  0  0  0
 14 15  1  0  0  0  0
 14 16  1  0  0  0  0
 14 17  1  0  0  0  0
 11 12  1  0  0  0  0
 11 13  1  0  0  0  0
 11 14  1  0  0  0  0
  9 10  1  0  0  0  0
  9 11  1  0  0  0  0
  9 27  1  0  0  0  0
  7  8  1  0  0  0  0
  7  9  1  0  0  0  0
 31 32  1  0  0  0  0
 31 33  1  0  0  0  0
 31 34  1  0  0  0  0
 29 30  1  0  0  0  0
 29 31  1  0  0  0  0
M  CHG  1  23   1
M  END
$$$$
default_name
  -OEChem-02102213163D

 34 33  0     1  0  0  0  0  0999 V2000
   -3.8899   -3.6747    1.6490 H   0  0  0  0  0  0  0  0  0  0  0  0
   -3.9109   -2.6717    1.2250 C   0  0  0  0  0  0  0  0  0  0  0  0
   -4.6009   -2.0517    1.7950 H   0  0  0  0  0  0  0  0  0  0  0  0
   -4.2309   -2.7237    0.1860 H   0  0  0  0  0  0  0  0  0  0  0  0
   -2.5229   -2.0787    1.2980 C   0  0  0  0  0  0  0  0  0  0  0  0
   -1.5999   -2.7227    1.7810 O   0  0  0  0  0  0  0  0  0  0  0  0
   -2.3659   -0.8447    0.8120 N   0  0  0  0  0  0  0  0  0  0  0  0
   -3.1749   -0.3807    0.4220 H   0  0  0  0  0  0  0  0  0  0  0  0
   -1.0919   -0.1077    0.8170 C   0  0  1  0  0  0  0  0  0  0  0  0
   -0.4136   -0.6011    1.5155 H   0  0  0  0  0  0  0  0  0  0  0  0
   -0.4834   -0.1723   -0.5965 C   0  0  0  0  0  0  0  0  0  0  0  0
   -1.0350    0.5111   -1.2440 H   0  0  0  0  0  0  0  0  0  0  0  0
    0.5552    0.1618   -0.5555 H   0  0  0  0  0  0  0  0  0  0  0  0
   -0.5391   -1.5766   -1.2173 C   0  0  0  0  0  0  0  0  0  0  0  0
   -1.2363   -2.1993   -0.6552 H   0  0  0  0  0  0  0  0  0  0  0  0
   -0.8832   -1.4994   -2.2505 H   0  0  0  0  0  0  0  0  0  0  0  0
    0.8506   -2.2278   -1.1920 C   0  0  0  0  0  0  0  0  0  0  0  0
    1.5498   -1.5942   -1.7430 H   0  0  0  0  0  0  0  0  0  0  0  0
    1.1861   -2.3110   -0.1563 H   0  0  0  0  0  0  0  0  0  0  0  0
    0.8016   -3.6199   -1.8339 C   0  0  0  0  0  0  0  0  0  0  0  0
    0.0911   -4.2359   -1.2731 H   0  0  0  0  0  0  0  0  0  0  0  0
    0.4235   -3.5184   -2.8557 H   0  0  0  0  0  0  0  0  0  0  0  0
    2.1395   -4.2637   -1.8443 N   0  3  0  0  0  0  0  0  0  0  0  0
    2.4901   -4.3699   -0.9005 H   0  0  0  0  0  0  0  0  0  0  0  0
    2.0901   -5.1804   -2.2710 H   0  0  0  0  0  0  0  0  0  0  0  0
    2.7989   -3.7017   -2.3698 H   0  0  0  0  0  0  0  0  0  0  0  0
   -1.3103    1.3348    1.2791 C   0  0  0  0  0  0  0  0  0  0  0  0
   -2.2333    1.9891    0.8084 O   0  0  0  0  0  0  0  0  0  0  0  0
   -0.4429    1.8293    2.1683 N   0  0  0  0  0  0  0  0  0  0  0  0
    0.2668    1.2118    2.5263 H   0  0  0  0  0  0  0  0  0  0  0  0
   -0.5118    3.1863    2.7135 C   0  0  0  0  0  0  0  0  0  0  0  0
   -1.4470    3.3159    3.2625 H   0  0  0  0  0  0  0  0  0  0  0  0
    0.3243    3.3682    3.3896 H   0  0  0  0  0  0  0  0  0  0  0  0
   -0.4850    3.9172    1.9023 H   0  0  0  0  0  0  0  0  0  0  0  0
  5  6  2  0  0  0  0
  5  7  1  0  0  0  0
  2  3  1  0  0  0  0
  2  4  1  0  0  0  0
  2  5  1  0  0  0  0
  1  2  1  0  0  0  0
 27 28  2  0  0  0  0
 27 29  1  0  0  0  0
 23 24  1  0  0  0  0
 23 25  1  0  0  0  0
 23 26  1  0  0  0  0
 20 21  1  0  0  0  0
 20 22  1  0  0  0  0
 20 23  1  0  0  0  0
 17 18  1  0  0  0  0
 17 19  1  0  0  0  0
 17 20  1  0  0  0  0
 14 15  1  0  0  0  0
 14 16  1  0  0  0  0
 14 17  1  0  0  0  0
 11 12  1  0  0  0  0
 11 13  1  0  0  0  0
 11 14  1  0  0  0  0
  9 10  1  0  0  0  0
  9 11  1  0  0  0  0
  9 27  1  0  0  0  0
  7  8  1  0  0  0  0
  7  9  1  0  0  0  0
 31 32  1  0  0  0  0
 31 33  1  0  0  0  0
 31 34  1  0  0  0  0
 29 30  1  0  0  0  0
 29 31  1  0  0  0  0
M  CHG  1  23   1
M  END
$$$$
default_name
  -OEChem-02102213163D

 34 33  0     1  0  0  0  0  0999 V2000
   -3.8899   -3.6747    1.6490 H   0  0  0  0  0  0  0  0  0  0  0  0
   -3.9109   -2.6717    1.2250 C   0  0  0  0  0  0  0  0  0  0  0  0
   -4.6009   -2.0517    1.7950 H   0  0  0  0  0  0  0  0  0  0  0  0
   -4.2309   -2.7237    0.1860 H   0  0  0  0  0  0  0  0  0  0  0  0
   -2.5229   -2.0787    1.2980 C   0  0  0  0  0  0  0  0  0  0  0  0
   -1.5999   -2.7227    1.7810 O   0  0  0  0  0  0  0  0  0  0  0  0
   -2.3659   -0.8447    0.8120 N   0  0  0  0  0  0  0  0  0  0  0  0
   -3.1749   -0.3807    0.4220 H   0  0  0  0  0  0  0  0  0  0  0  0
   -1.0919   -0.1077    0.8170 C   0  0  1  0  0  0  0  0  0  0  0  0
   -0.4136   -0.6011    1.5155 H   0  0  0  0  0  0  0  0  0  0  0  0
   -0.4834   -0.1723   -0.5965 C   0  0  0  0  0  0  0  0  0  0  0  0
   -1.0350    0.5111   -1.2440 H   0  0  0  0  0  0  0  0  0  0  0  0
    0.5552    0.1618   -0.5555 H   0  0  0  0  0  0  0  0  0  0  0  0
   -0.5391   -1.5766   -1.2173 C   0  0  0  0  0  0  0  0  0  0  0  0
   -1.4111   -2.1114   -0.8385 H   0  0  0  0  0  0  0  0  0  0  0  0
   -0.6195   -1.4869   -2.3024 H   0  0  0  0  0  0  0  0  0  0  0  0
    0.7285   -2.3673   -0.8653 C   0  0  0  0  0  0  0  0  0  0  0  0
    1.6010   -1.8218   -1.2328 H   0  0  0  0  0  0  0  0  0  0  0  0
    0.7992   -2.4621    0.2201 H   0  0  0  0  0  0  0  0  0  0  0  0
    0.6855   -3.7607   -1.5051 C   0  0  0  0  0  0  0  0  0  0  0  0
   -0.1983   -4.2874   -1.1306 H   0  0  0  0  0  0  0  0  0  0  0  0
    0.5722   -3.6431   -2.5870 H   0  0  0  0  0  0  0  0  0  0  0  0
    1.9123   -4.5395   -1.2000 N   0  3  0  0  0  0  0  0  0  0  0  0
    2.0170   -4.6607   -0.2004 H   0  0  0  0  0  0  0  0  0  0  0  0
    1.8684   -5.4554   -1.6292 H   0  0  0  0  0  0  0  0  0  0  0  0
    2.7327   -4.0604   -1.5524 H   0  0  0  0  0  0  0  0  0  0  0  0
   -1.3103    1.3348    1.2791 C   0  0  0  0  0  0  0  0  0  0  0  0
   -2.2333    1.9891    0.8084 O   0  0  0  0  0  0  0  0  0  0  0  0
   -0.4429    1.8293    2.1683 N   0  0  0  0  0  0  0  0  0  0  0  0
    0.2668    1.2118    2.5263 H   0  0  0  0  0  0  0  0  0  0  0  0
   -0.5118    3.1863    2.7135 C   0  0  0  0  0  0  0  0  0  0  0  0
   -1.4470    3.3159    3.2625 H   0  0  0  0  0  0  0  0  0  0  0  0
    0.3243    3.3682    3.3896 H   0  0  0  0  0  0  0  0  0  0  0  0
   -0.4850    3.9172    1.9023 H   0  0  0  0  0  0  0  0  0  0  0  0
  5  6  2  0  0  0  0
  5  7  1  0  0  0  0
  2  3  1  0  0  0  0
  2  4  1  0  0  0  0
  2  5  1  0  0  0  0
  1  2  1  0  0  0  0
 27 28  2  0  0  0  0
 27 29  1  0  0  0  0
 23 24  1  0  0  0  0
 23 25  1  0  0  0  0
 23 26  1  0  0  0  0
 20 21  1  0  0  0  0
 20 22  1  0  0  0  0
 20 23  1  0  0  0  0
 17 18  1  0  0  0  0
 17 19  1  0  0  0  0
 17 20  1  0  0  0  0
 14 15  1  0  0  0  0
 14 16  1  0  0  0  0
 14 17  1  0  0  0  0
 11 12  1  0  0  0  0
 11 13  1  0  0  0  0
 11 14  1  0  0  0  0
  9 10  1  0  0  0  0
  9 11  1  0  0  0  0
  9 27  1  0  0  0  0
  7  8  1  0  0  0  0
  7  9  1  0  0  0  0
 31 32  1  0  0  0  0
 31 33  1  0  0  0  0
 31 34  1  0  0  0  0
 29 30  1  0  0  0  0
 29 31  1  0  0  0  0
M  CHG  1  23   1
M  END
$$$$
default_name
  -OEChem-02102213163D

 34 33  0     1  0  0  0  0  0999 V2000
   -3.8899   -3.6747    1.6490 H   0  0  0  0  0  0  0  0  0  0  0  0
   -3.9109   -2.6717    1.2250 C   0  0  0  0  0  0  0  0  0  0  0  0
   -4.6009   -2.0517    1.7950 H   0  0  0  0  0  0  0  0  0  0  0  0
   -4.2309   -2.7237    0.1860 H   0  0  0  0  0  0  0  0  0  0  0  0
   -2.5229   -2.0787    1.2980 C   0  0  0  0  0  0  0  0  0  0  0  0
   -1.5999   -2.7227    1.7810 O   0  0  0  0  0  0  0  0  0  0  0  0
   -2.3659   -0.8447    0.8120 N   0  0  0  0  0  0  0  0  0  0  0  0
   -3.1749   -0.3807    0.4220 H   0  0  0  0  0  0  0  0  0  0  0  0
   -1.0919   -0.1077    0.8170 C   0  0  1  0  0  0  0  0  0  0  0  0
   -0.4136   -0.6011    1.5155 H   0  0  0  0  0  0  0  0  0  0  0  0
   -0.4834   -0.1723   -0.5965 C   0  0  0  0  0  0  0  0  0  0  0  0
   -1.0350    0.5111   -1.2440 H   0  0  0  0  0  0  0  0  0  0  0  0
    0.5552    0.1618   -0.5555 H   0  0  0  0  0  0  0  0  0  0  0  0
   -0.5391   -1.5766   -1.2173 C   0  0  0  0  0  0  0  0  0  0  0  0
   -1.5274   -2.0098   -1.0577 H   0  0  0  0  0  0  0  0  0  0  0  0
   -0.3511   -1.5030   -2.2902 H   0  0  0  0  0  0  0  0  0  0  0  0
    0.5187   -2.4863   -0.5774 C   0  0  0  0  0  0  0  0  0  0  0  0
    1.5059   -2.0421   -0.7258 H   0  0  0  0  0  0  0  0  0  0  0  0
    0.3208   -2.5640    0.4935 H   0  0  0  0  0  0  0  0  0  0  0  0
    0.4809   -3.8815   -1.2135 C   0  0  0  0  0  0  0  0  0  0  0  0
   -0.5169   -4.3055   -1.0609 H   0  0  0  0  0  0  0  0  0  0  0  0
    0.6393   -3.7766   -2.2911 H   0  0  0  0  0  0  0  0  0  0  0  0
    1.5115   -4.7761   -0.6288 N   0  3  0  0  0  0  0  0  0  0  0  0
    1.3639   -4.8855    0.3667 H   0  0  0  0  0  0  0  0  0  0  0  0
    1.4736   -5.6917   -1.0591 H   0  0  0  0  0  0  0  0  0  0  0  0
    2.4379   -4.3923   -0.7752 H   0  0  0  0  0  0  0  0  0  0  0  0
   -1.3103    1.3348    1.2791 C   0  0  0  0  0  0  0  0  0  0  0  0
   -2.2333    1.9891    0.8084 O   0  0  0  0  0  0  0  0  0  0  0  0
   -0.4429    1.8293    2.1683 N   0  0  0  0  0  0  0  0  0  0  0  0
    0.2668    1.2118    2.5263 H   0  0  0  0  0  0  0  0  0  0  0  0
   -0.5118    3.1863    2.7135 C   0  0  0  0  0  0  0  0  0  0  0  0
   -1.4470    3.3159    3.2625 H   0  0  0  0  0  0  0  0  0  0  0  0
    0.3243    3.3682    3.3896 H   0  0  0  0  0  0  0  0  0  0  0  0
   -0.4850    3.9172    1.9023 H   0  0  0  0  0  0  0  0  0  0  0  0
  5  6  2  0  0  0  0
  5  7  1  0  0  0  0
  2  3  1  0  0  0  0
  2  4  1  0  0  0  0
  2  5  1  0  0  0  0
  1  2  1  0  0  0  0
 27 28  2  0  0  0  0
 27 29  1  0  0  0  0
 23 24  1  0  0  0  0
 23 25  1  0  0  0  0
 23 26  1  0  0  0  0
 20 21  1  0  0  0  0
 20 22  1  0  0  0  0
 20 23  1  0  0  0  0
 17 18  1  0  0  0  0
 17 19  1  0  0  0  0
 17 20  1  0  0  0  0
 14 15  1  0  0  0  0
 14 16  1  0  0  0  0
 14 17  1  0  0  0  0
 11 12  1  0  0  0  0
 11 13  1  0  0  0  0
 11 14  1  0  0  0  0
  9 10  1  0  0  0  0
  9 11  1  0  0  0  0
  9 27  1  0  0  0  0
  7  8  1  0  0  0  0
  7  9  1  0  0  0  0
 31 32  1  0  0  0  0
 31 33  1  0  0  0  0
 31 34  1  0  0  0  0
 29 30  1  0  0  0  0
 29 31  1  0  0  0  0
M  CHG  1  23   1
M  END
$$$$
default_name
  -OEChem-02102213163D

 34 33  0     1  0  0  0  0  0999 V2000
   -3.8899   -3.6747    1.6490 H   0  0  0  0  0  0  0  0  0  0  0  0
   -3.9109   -2.6717    1.2250 C   0  0  0  0  0  0  0  0  0  0  0  0
   -4.6009   -2.0517    1.7950 H   0  0  0  0  0  0  0  0  0  0  0  0
   -4.2309   -2.7237    0.1860 H   0  0  0  0  0  0  0  0  0  0  0  0
   -2.5229   -2.0787    1.2980 C   0  0  0  0  0  0  0  0  0  0  0  0
   -1.5999   -2.7227    1.7810 O   0  0  0  0  0  0  0  0  0  0  0  0
   -2.3659   -0.8447    0.8120 N   0  0  0  0  0  0  0  0  0  0  0  0
   -3.1749   -0.3807    0.4220 H   0  0  0  0  0  0  0  0  0  0  0  0
   -1.0919   -0.1077    0.8170 C   0  0  1  0  0  0  0  0  0  0  0  0
   -0.4136   -0.6011    1.5155 H   0  0  0  0  0  0  0  0  0  0  0  0
   -0.4834   -0.1723   -0.5965 C   0  0  0  0  0  0  0  0  0  0  0  0
   -1.0350    0.5111   -1.2440 H   0  0  0  0  0  0  0  0  0  0  0  0
    0.5552    0.1618   -0.5555 H   0  0  0  0  0  0  0  0  0  0  0  0
   -0.5391   -1.5766   -1.2173 C   0  0  0  0  0  0  0  0  0  0  0  0
   -1.5772   -1.9017   -1.2980 H   0  0  0  0  0  0  0  0  0  0  0  0
   -0.0964   -1.5464   -2.2148 H   0  0  0  0  0  0  0  0  0  0  0  0
    0.2355   -2.5766   -0.3478 C   0  0  0  0  0  0  0  0  0  0  0  0
    1.2711   -2.2403   -0.2566 H   0  0  0  0  0  0  0  0  0  0  0  0
   -0.2167   -2.6098    0.6455 H   0  0  0  0  0  0  0  0  0  0  0  0
    0.2017   -3.9740   -0.9792 C   0  0  0  0  0  0  0  0  0  0  0  0
   -0.8431   -4.2891   -1.0688 H   0  0  0  0  0  0  0  0  0  0  0  0
    0.6201   -3.9098   -1.9881 H   0  0  0  0  0  0  0  0  0  0  0  0
    0.9646   -4.9574   -0.1697 N   0  3  0  0  0  0  0  0  0  0  0  0
    0.5755   -5.0290    0.7621 H   0  0  0  0  0  0  0  0  0  0  0  0
    0.9328   -5.8734   -0.5996 H   0  0  0  0  0  0  0  0  0  0  0  0
    1.9346   -4.6748   -0.0911 H   0  0  0  0  0  0  0  0  0  0  0  0
   -1.3103    1.3348    1.2791 C   0  0  0  0  0  0  0  0  0  0  0  0
   -2.2333    1.9891    0.8084 O   0  0  0  0  0  0  0  0  0  0  0  0
   -0.4429    1.8293    2.1683 N   0  0  0  0  0  0  0  0  0  0  0  0
    0.2668    1.2118    2.5263 H   0  0  0  0  0  0  0  0  0  0  0  0
   -0.5118    3.1863    2.7135 C   0  0  0  0  0  0  0  0  0  0  0  0
   -1.4470    3.3159    3.2625 H   0  0  0  0  0  0  0  0  0  0  0  0
    0.3243    3.3682    3.3896 H   0  0  0  0  0  0  0  0  0  0  0  0
   -0.4850    3.9172    1.9023 H   0  0  0  0  0  0  0  0  0  0  0  0
  5  6  2  0  0  0  0
  5  7  1  0  0  0  0
  2  3  1  0  0  0  0
  2  4  1  0  0  0  0
  2  5  1  0  0  0  0
  1  2  1  0  0  0  0
 27 28  2  0  0  0  0
 27 29  1  0  0  0  0
 23 24  1  0  0  0  0
 23 25  1  0  0  0  0
 23 26  1  0  0  0  0
 20 21  1  0  0  0  0
 20 22  1  0  0  0  0
 20 23  1  0  0  0  0
 17 18  1  0  0  0  0
 17 19  1  0  0  0  0
 17 20  1  0  0  0  0
 14 15  1  0  0  0  0
 14 16  1  0  0  0  0
 14 17  1  0  0  0  0
 11 12  1  0  0  0  0
 11 13  1  0  0  0  0
 11 14  1  0  0  0  0
  9 10  1  0  0  0  0
  9 11  1  0  0  0  0
  9 27  1  0  0  0  0
  7  8  1  0  0  0  0
  7  9  1  0  0  0  0
 31 32  1  0  0  0  0
 31 33  1  0  0  0  0
 31 34  1  0  0  0  0
 29 30  1  0  0  0  0
 29 31  1  0  0  0  0
M  CHG  1  23   1
M  END
$$$$
default_name
  -OEChem-02102213163D

 34 33  0     1  0  0  0  0  0999 V2000
   -3.8899   -3.6747    1.6490 H   0  0  0  0  0  0  0  0  0  0  0  0
   -3.9109   -2.6717    1.2250 C   0  0  0  0  0  0  0  0  0  0  0  0
   -4.6009   -2.0517    1.7950 H   0  0  0  0  0  0  0  0  0  0  0  0
   -4.2309   -2.7237    0.1860 H   0  0  0  0  0  0  0  0  0  0  0  0
   -2.5229   -2.0787    1.2980 C   0  0  0  0  0  0  0  0  0  0  0  0
   -1.5999   -2.7227    1.7810 O   0  0  0  0  0  0  0  0  0  0  0  0
   -2.3659   -0.8447    0.8120 N   0  0  0  0  0  0  0  0  0  0  0  0
   -3.1749   -0.3807    0.4220 H   0  0  0  0  0  0  0  0  0  0  0  0
   -1.0919   -0.1077    0.8170 C   0  0  1  0  0  0  0  0  0  0  0  0
   -0.4136   -0.6011    1.5155 H   0  0  0  0  0  0  0  0  0  0  0  0
   -0.4834   -0.1723   -0.5965 C   0  0  0  0  0  0  0  0  0  0  0  0
   -1.0350    0.5111   -1.2440 H   0  0  0  0  0  0  0  0  0  0  0  0
    0.5552    0.1618   -0.5555 H   0  0  0  0  0  0  0  0  0  0  0  0
   -0.5391   -1.5766   -1.2173 C   0  0  0  0  0  0  0  0  0  0  0  0
   -1.5572   -1.7942   -1.5428 H   0  0  0  0  0  0  0  0  0  0  0  0
    0.1272   -1.6143   -2.0813 H   0  0  0  0  0  0  0  0  0  0  0  0
   -0.1018   -2.6320   -0.1921 C   0  0  0  0  0  0  0  0  0  0  0  0
    0.9125   -2.4027    0.1431 H   0  0  0  0  0  0  0  0  0  0  0  0
   -0.7766   -2.5964    0.6655 H   0  0  0  0  0  0  0  0  0  0  0  0
   -0.1332   -4.0319   -0.8180 C   0  0  0  0  0  0  0  0  0  0  0  0
   -1.1545   -4.2391   -1.1538 H   0  0  0  0  0  0  0  0  0  0  0  0
    0.5160   -4.0335   -1.6988 H   0  0  0  0  0  0  0  0  0  0  0  0
    0.3088   -5.0710    0.1461 N   0  3  0  0  0  0  0  0  0  0  0  0
   -0.2947   -5.0814    0.9589 H   0  0  0  0  0  0  0  0  0  0  0  0
    0.2827   -5.9880   -0.2820 H   0  0  0  0  0  0  0  0  0  0  0  0
    1.2570   -4.8885    0.4534 H   0  0  0  0  0  0  0  0  0  0  0  0
   -1.3103    1.3348    1.2791 C   0  0  0  0  0  0  0  0  0  0  0  0
   -2.2333    1.9891    0.8084 O   0  0  0  0  0  0  0  0  0  0  0  0
   -0.4429    1.8293    2.1683 N   0  0  0  0  0  0  0  0  0  0  0  0
    0.2668    1.2118    2.5263 H   0  0  0  0  0  0  0  0  0  0  0  0
   -0.5118    3.1863    2.7135 C   0  0  0  0  0  0  0  0  0  0  0  0
   -1.4470    3.3159    3.2625 H   0  0  0  0  0  0  0  0  0  0  0  0
    0.3243    3.3682    3.3896 H   0  0  0  0  0  0  0  0  0  0  0  0
   -0.4850    3.9172    1.9023 H   0  0  0  0  0  0  0  0  0  0  0  0
  5  6  2  0  0  0  0
  5  7  1  0  0  0  0
  2  3  1  0  0  0  0
  2  4  1  0  0  0  0
  2  5  1  0  0  0  0
  1  2  1  0  0  0  0
 27 28  2  0  0  0  0
 27 29  1  0  0  0  0
 23 24  1  0  0  0  0
 23 25  1  0  0  0  0
 23 26  1  0  0  0  0
 20 21  1  0  0  0  0
 20 22  1  0  0  0  0
 20 23  1  0  0  0  0
 17 18  1  0  0  0  0
 17 19  1  0  0  0  0
 17 20  1  0  0  0  0
 14 15  1  0  0  0  0
 14 16  1  0  0  0  0
 14 17  1  0  0  0  0
 11 12  1  0  0  0  0
 11 13  1  0  0  0  0
 11 14  1  0  0  0  0
  9 10  1  0  0  0  0
  9 11  1  0  0  0  0
  9 27  1  0  0  0  0
  7  8  1  0  0  0  0
  7  9  1  0  0  0  0
 31 32  1  0  0  0  0
 31 33  1  0  0  0  0
 31 34  1  0  0  0  0
 29 30  1  0  0  0  0
 29 31  1  0  0  0  0
M  CHG  1  23   1
M  END
$$$$
default_name
  -OEChem-02102213163D

 34 33  0     1  0  0  0  0  0999 V2000
   -3.8899   -3.6747    1.6490 H   0  0  0  0  0  0  0  0  0  0  0  0
   -3.9109   -2.6717    1.2250 C   0  0  0  0  0  0  0  0  0  0  0  0
   -4.6009   -2.0517    1.7950 H   0  0  0  0  0  0  0  0  0  0  0  0
   -4.2309   -2.7237    0.1860 H   0  0  0  0  0  0  0  0  0  0  0  0
   -2.5229   -2.0787    1.2980 C   0  0  0  0  0  0  0  0  0  0  0  0
   -1.5999   -2.7227    1.7810 O   0  0  0  0  0  0  0  0  0  0  0  0
   -2.3659   -0.8447    0.8120 N   0  0  0  0  0  0  0  0  0  0  0  0
   -3.1749   -0.3807    0.4220 H   0  0  0  0  0  0  0  0  0  0  0  0
   -1.0919   -0.1077    0.8170 C   0  0  1  0  0  0  0  0  0  0  0  0
   -0.4136   -0.6011    1.5155 H   0  0  0  0  0  0  0  0  0  0  0  0
   -0.4834   -0.1723   -0.5965 C   0  0  0  0  0  0  0  0  0  0  0  0
   -1.0350    0.5111   -1.2440 H   0  0  0  0  0  0  0  0  0  0  0  0
    0.5552    0.1618   -0.5555 H   0  0  0  0  0  0  0  0  0  0  0  0
   -0.5391   -1.5766   -1.2173 C   0  0  0  0  0  0  0  0  0  0  0  0
   -1.4687   -1.6948   -1.7756 H   0  0  0  0  0  0  0  0  0  0  0  0
    0.3045   -1.7020   -1.8989 H   0  0  0  0  0  0  0  0  0  0  0  0
   -0.4703   -2.6488   -0.1211 C   0  0  0  0  0  0  0  0  0  0  0  0
    0.4547   -2.5183    0.4458 H   0  0  0  0  0  0  0  0  0  0  0  0
   -1.3208   -2.5247    0.5522 H   0  0  0  0  0  0  0  0  0  0  0  0
   -0.5008   -4.0514   -0.7410 C   0  0  0  0  0  0  0  0  0  0  0  0
   -1.4300   -4.1592   -1.3100 H   0  0  0  0  0  0  0  0  0  0  0  0
    0.3340   -4.1395   -1.4428 H   0  0  0  0  0  0  0  0  0  0  0  0
   -0.4113   -5.1091    0.2971 N   0  3  0  0  0  0  0  0  0  0  0  0
   -1.1872   -5.0392    0.9436 H   0  0  0  0  0  0  0  0  0  0  0  0
   -0.4324   -6.0277   -0.1280 H   0  0  0  0  0  0  0  0  0  0  0  0
    0.4514   -5.0191    0.8209 H   0  0  0  0  0  0  0  0  0  0  0  0
   -1.3103    1.3348    1.2791 C   0  0  0  0  0  0  0  0  0  0  0  0
   -2.2333    1.9891    0.8084 O   0  0  0  0  0  0  0  0  0  0  0  0
   -0.4429    1.8293    2.1683 N   0  0  0  0  0  0  0  0  0  0  0  0
    0.2668    1.2118    2.5263 H   0  0  0  0  0  0  0  0  0  0  0  0
   -0.5118    3.1863    2.7135 C   0  0  0  0  0  0  0  0  0  0  0  0
   -1.4470    3.3159    3.2625 H   0  0  0  0  0  0  0  0  0  0  0  0
    0.3243    3.3682    3.3896 H   0  0  0  0  0  0  0  0  0  0  0  0
   -0.4850    3.9172    1.9023 H   0  0  0  0  0  0  0  0  0  0  0  0
  5  6  2  0  0  0  0
  5  7  1  0  0  0  0
  2  3  1  0  0  0  0
  2  4  1  0  0  0  0
  2  5  1  0  0  0  0
  1  2  1  0  0  0  0
 27 28  2  0  0  0  0
 27 29  1  0  0  0  0
 23 24  1  0  0  0  0
 23 25  1  0  0  0  0
 23 26  1  0  0  0  0
 20 21  1  0  0  0  0
 20 22  1  0  0  0  0
 20 23  1  0  0  0  0
 17 18  1  0  0  0  0
 17 19  1  0  0  0  0
 17 20  1  0  0  0  0
 14 15  1  0  0  0  0
 14 16  1  0  0  0  0
 14 17  1  0  0  0  0
 11 12  1  0  0  0  0
 11 13  1  0  0  0  0
 11 14  1  0  0  0  0
  9 10  1  0  0  0  0
  9 11  1  0  0  0  0
  9 27  1  0  0  0  0
  7  8  1  0  0  0  0
  7  9  1  0  0  0  0
 31 32  1  0  0  0  0
 31 33  1  0  0  0  0
 31 34  1  0  0  0  0
 29 30  1  0  0  0  0
 29 31  1  0  0  0  0
M  CHG  1  23   1
M  END
$$$$
default_name
  -OEChem-02102213163D

 34 33  0     1  0  0  0  0  0999 V2000
   -3.8899   -3.6747    1.6490 H   0  0  0  0  0  0  0  0  0  0  0  0
   -3.9109   -2.6717    1.2250 C   0  0  0  0  0  0  0  0  0  0  0  0
   -4.6009   -2.0517    1.7950 H   0  0  0  0  0  0  0  0  0  0  0  0
   -4.2309   -2.7237    0.1860 H   0  0  0  0  0  0  0  0  0  0  0  0
   -2.5229   -2.0787    1.2980 C   0  0  0  0  0  0  0  0  0  0  0  0
   -1.5999   -2.7227    1.7810 O   0  0  0  0  0  0  0  0  0  0  0  0
   -2.3659   -0.8447    0.8120 N   0  0  0  0  0  0  0  0  0  0  0  0
   -3.1749   -0.3807    0.4220 H   0  0  0  0  0  0  0  0  0  0  0  0
   -1.0919   -0.1077    0.8170 C   0  0  1  0  0  0  0  0  0  0  0  0
   -0.4136   -0.6011    1.5155 H   0  0  0  0  0  0  0  0  0  0  0  0
   -0.4834   -0.1723   -0.5965 C   0  0  0  0  0  0  0  0  0  0  0  0
   -1.0350    0.5111   -1.2440 H   0  0  0  0  0  0  0  0  0  0  0  0
    0.5552    0.1618   -0.5555 H   0  0  0  0  0  0  0  0  0  0  0  0
   -0.5391   -1.5766   -1.2173 C   0  0  0  0  0  0  0  0  0  0  0  0
   -1.3178   -1.6102   -1.9804 H   0  0  0  0  0  0  0  0  0  0  0  0
    0.4234   -1.8035   -1.6799 H   0  0  0  0  0  0  0  0  0  0  0  0
   -0.8448   -2.6258   -0.1394 C   0  0  0  0  0  0  0  0  0  0  0  0
   -0.0713   -2.5793    0.6309 H   0  0  0  0  0  0  0  0  0  0  0  0
   -1.8122   -2.3997    0.3134 H   0  0  0  0  0  0  0  0  0  0  0  0
   -0.8762   -4.0310   -0.7534 C   0  0  0  0  0  0  0  0  0  0  0  0
   -1.6508   -4.0545   -1.5268 H   0  0  0  0  0  0  0  0  0  0  0  0
    0.0866   -4.2204   -1.2376 H   0  0  0  0  0  0  0  0  0  0  0  0
   -1.1466   -5.0692    0.2729 N   0  3  0  0  0  0  0  0  0  0  0  0
   -2.0413   -4.9053    0.7173 H   0  0  0  0  0  0  0  0  0  0  0  0
   -1.1637   -5.9899   -0.1480 H   0  0  0  0  0  0  0  0  0  0  0  0
   -0.4274   -5.0574    0.9866 H   0  0  0  0  0  0  0  0  0  0  0  0
   -1.3103    1.3348    1.2791 C   0  0  0  0  0  0  0  0  0  0  0  0
   -2.2333    1.9891    0.8084 O   0  0  0  0  0  0  0  0  0  0  0  0
   -0.4429    1.8293    2.1683 N   0  0  0  0  0  0  0  0  0  0  0  0
    0.2668    1.2118    2.5263 H   0  0  0  0  0  0  0  0  0  0  0  0
   -0.5118    3.1863    2.7135 C   0  0  0  0  0  0  0  0  0  0  0  0
   -1.4470    3.3159    3.2625 H   0  0  0  0  0  0  0  0  0  0  0  0
    0.3243    3.3682    3.3896 H   0  0  0  0  0  0  0  0  0  0  0  0
   -0.4850    3.9172    1.9023 H   0  0  0  0  0  0  0  0  0  0  0  0
  5  6  2  0  0  0  0
  5  7  1  0  0  0  0
  2  3  1  0  0  0  0
  2  4  1  0  0  0  0
  2  5  1  0  0  0  0
  1  2  1  0  0  0  0
 27 28  2  0  0  0  0
 27 29  1  0  0  0  0
 23 24  1  0  0  0  0
 23 25  1  0  0  0  0
 23 26  1  0  0  0  0
 20 21  1  0  0  0  0
 20 22  1  0  0  0  0
 20 23  1  0  0  0  0
 17 18  1  0  0  0  0
 17 19  1  0  0  0  0
 17 20  1  0  0  0  0
 14 15  1  0  0  0  0
 14 16  1  0  0  0  0
 14 17  1  0  0  0  0
 11 12  1  0  0  0  0
 11 13  1  0  0  0  0
 11 14  1  0  0  0  0
  9 10  1  0  0  0  0
  9 11  1  0  0  0  0
  9 27  1  0  0  0  0
  7  8  1  0  0  0  0
  7  9  1  0  0  0  0
 31 32  1  0  0  0  0
 31 33  1  0  0  0  0
 31 34  1  0  0  0  0
 29 30  1  0  0  0  0
 29 31  1  0  0  0  0
M  CHG  1  23   1
M  END
$$$$
default_name
  -OEChem-02102213163D

 34 33  0     1  0  0  0  0  0999 V2000
   -3.8899   -3.6747    1.6490 H   0  0  0  0  0  0  0  0  0  0  0  0
   -3.9109   -2.6717    1.2250 C   0  0  0  0  0  0  0  0  0  0  0  0
   -4.6009   -2.0517    1.7950 H   0  0  0  0  0  0  0  0  0  0  0  0
   -4.2309   -2.7237    0.1860 H   0  0  0  0  0  0  0  0  0  0  0  0
   -2.5229   -2.0787    1.2980 C   0  0  0  0  0  0  0  0  0  0  0  0
   -1.5999   -2.7227    1.7810 O   0  0  0  0  0  0  0  0  0  0  0  0
   -2.3659   -0.8447    0.8120 N   0  0  0  0  0  0  0  0  0  0  0  0
   -3.1749   -0.3807    0.4220 H   0  0  0  0  0  0  0  0  0  0  0  0
   -1.0919   -0.1077    0.8170 C   0  0  1  0  0  0  0  0  0  0  0  0
   -0.4136   -0.6011    1.5155 H   0  0  0  0  0  0  0  0  0  0  0  0
   -0.4834   -0.1723   -0.5965 C   0  0  0  0  0  0  0  0  0  0  0  0
   -1.0350    0.5111   -1.2440 H   0  0  0  0  0  0  0  0  0  0  0  0
    0.5552    0.1618   -0.5555 H   0  0  0  0  0  0  0  0  0  0  0  0
   -0.5391   -1.5766   -1.2173 C   0  0  0  0  0  0  0  0  0  0  0  0
   -1.1147   -1.5463   -2.1434 H   0  0  0  0  0  0  0  0  0  0  0  0
    0.4759   -1.9120   -1.4392 H   0  0  0  0  0  0  0  0  0  0  0  0
   -1.1997   -2.5646   -0.2460 C   0  0  0  0  0  0  0  0  0  0  0  0
   -0.6295   -2.5815    0.6859 H   0  0  0  0  0  0  0  0  0  0  0  0
   -2.2172   -2.2297   -0.0346 H   0  0  0  0  0  0  0  0  0  0  0  0
   -1.2336   -3.9722   -0.8544 C   0  0  0  0  0  0  0  0  0  0  0  0
   -1.8019   -3.9324   -1.7894 H   0  0  0  0  0  0  0  0  0  0  0  0
   -0.2094   -4.2708   -1.0971 H   0  0  0  0  0  0  0  0  0  0  0  0
   -1.8469   -4.9541    0.0752 N   0  3  0  0  0  0  0  0  0  0  0  0
   -2.7987   -4.6887    0.2954 H   0  0  0  0  0  0  0  0  0  0  0  0
   -1.8614   -5.8770   -0.3406 H   0  0  0  0  0  0  0  0  0  0  0  0
   -1.3194   -5.0010    0.9392 H   0  0  0  0  0  0  0  0  0  0  0  0
   -1.3103    1.3348    1.2791 C   0  0  0  0  0  0  0  0  0  0  0  0
   -2.2333    1.9891    0.8084 O   0  0  0  0  0  0  0  0  0  0  0  0
   -0.4429    1.8293    2.1683 N   0  0  0  0  0  0  0  0  0  0  0  0
    0.2668    1.2118    2.5263 H   0  0  0  0  0  0  0  0  0  0  0  0
   -0.5118    3.1863    2.7135 C   0  0  0  0  0  0  0  0  0  0  0  0
   -1.4470    3.3159    3.2625 H   0  0  0  0  0  0  0  0  0  0  0  0
    0.3243    3.3682    3.3896 H   0  0  0  0  0  0  0  0  0  0  0  0
   -0.4850    3.9172    1.9023 H   0  0  0  0  0  0  0  0  0  0  0  0
  5  6  2  0  0  0  0
  5  7  1  0  0  0  0
  2  3  1  0  0  0  0
  2  4  1  0  0  0  0
  2  5  1  0  0  0  0
  1  2  1  0  0  0  0
 27 28  2  0  0  0  0
 27 29  1  0  0  0  0
 23 24  1  0  0  0  0
 23 25  1  0  0  0  0
 23 26  1  0  0  0  0
 20 21  1  0  0  0  0
 20 22  1  0  0  0  0
 20 23  1  0  0  0  0
 17 18  1  0  0  0  0
 17 19  1  0  0  0  0
 17 20  1  0  0  0  0
 14 15  1  0  0  0  0
 14 16  1  0  0  0  0
 14 17  1  0  0  0  0
 11 12  1  0  0  0  0
 11 13  1  0  0  0  0
 11 14  1  0  0  0  0
  9 10  1  0  0  0  0
  9 11  1  0  0  0  0
  9 27  1  0  0  0  0
  7  8  1  0  0  0  0
  7  9  1  0  0  0  0
 31 32  1  0  0  0  0
 31 33  1  0  0  0  0
 31 34  1  0  0  0  0
 29 30  1  0  0  0  0
 29 31  1  0  0  0  0
M  CHG  1  23   1
M  END
$$$$
default_name
  -OEChem-02102213163D

 34 33  0     1  0  0  0  0  0999 V2000
   -3.8899   -3.6747    1.6490 H   0  0  0  0  0  0  0  0  0  0  0  0
   -3.9109   -2.6717    1.2250 C   0  0  0  0  0  0  0  0  0  0  0  0
   -4.6009   -2.0517    1.7950 H   0  0  0  0  0  0  0  0  0  0  0  0
   -4.2309   -2.7237    0.1860 H   0  0  0  0  0  0  0  0  0  0  0  0
   -2.5229   -2.0787    1.2980 C   0  0  0  0  0  0  0  0  0  0  0  0
   -1.5999   -2.7227    1.7810 O   0  0  0  0  0  0  0  0  0  0  0  0
   -2.3659   -0.8447    0.8120 N   0  0  0  0  0  0  0  0  0  0  0  0
   -3.1749   -0.3807    0.4220 H   0  0  0  0  0  0  0  0  0  0  0  0
   -1.0919   -0.1077    0.8170 C   0  0  1  0  0  0  0  0  0  0  0  0
   -0.4136   -0.6011    1.5155 H   0  0  0  0  0  0  0  0  0  0  0  0
   -0.4834   -0.1723   -0.5965 C   0  0  0  0  0  0  0  0  0  0  0  0
   -1.0350    0.5111   -1.2440 H   0  0  0  0  0  0  0  0  0  0  0  0
    0.5552    0.1618   -0.5555 H   0  0  0  0  0  0  0  0  0  0  0  0
   -0.5391   -1.5766   -1.2173 C   0  0  0  0  0  0  0  0  0  0  0  0
   -0.8733   -1.5072   -2.2533 H   0  0  0  0  0  0  0  0  0  0  0  0
    0.4583   -2.0200   -1.1934 H   0  0  0  0  0  0  0  0  0  0  0  0
   -1.5110   -2.4694   -0.4334 C   0  0  0  0  0  0  0  0  0  0  0  0
   -1.1819   -2.5247    0.6070 H   0  0  0  0  0  0  0  0  0  0  0  0
   -2.5083   -2.0265   -0.4683 H   0  0  0  0  0  0  0  0  0  0  0  0
   -1.5489   -3.8789   -1.0371 C   0  0  0  0  0  0  0  0  0  0  0  0
   -1.8729   -3.8012   -2.0800 H   0  0  0  0  0  0  0  0  0  0  0  0
   -0.5338   -4.2871   -1.0310 H   0  0  0  0  0  0  0  0  0  0  0  0
   -2.4646   -4.7714   -0.2824 N   0  3  0  0  0  0  0  0  0  0  0  0
   -3.4079   -4.4042   -0.2934 H   0  0  0  0  0  0  0  0  0  0  0  0
   -2.4780   -5.6968   -0.6928 H   0  0  0  0  0  0  0  0  0  0  0  0
   -2.1639   -4.8537    0.6818 H   0  0  0  0  0  0  0  0  0  0  0  0
   -1.3103    1.3348    1.2791 C   0  0  0  0  0  0  0  0  0  0  0  0
   -2.2333    1.9891    0.8084 O   0  0  0  0  0  0  0  0  0  0  0  0
   -0.4429    1.8293    2.1683 N   0  0  0  0  0  0  0  0  0  0  0  0
    0.2668    1.2118    2.5263 H   0  0  0  0  0  0  0  0  0  0  0  0
   -0.5118    3.1863    2.7135 C   0  0  0  0  0  0  0  0  0  0  0  0
   -1.4470    3.3159    3.2625 H   0  0  0  0  0  0  0  0  0  0  0  0
    0.3243    3.3682    3.3896 H   0  0  0  0  0  0  0  0  0  0  0  0
   -0.4850    3.9172    1.9023 H   0  0  0  0  0  0  0  0  0  0  0  0
  5  6  2  0  0  0  0
  5  7  1  0  0  0  0
  2  3  1  0  0  0  0
  2  4  1  0  0  0  0
  2  5  1  0  0  0  0
  1  2  1  0  0  0  0
 27 28  2  0  0  0  0
 27 29  1  0  0  0  0
 23 24  1  0  0  0  0
 23 25  1  0  0  0  0
 23 26  1  0  0  0  0
 20 21  1  0  0  0  0
 20 22  1  0  0  0  0
 20 23  1  0  0  0  0
 17 18  1  0  0  0  0
 17 19  1  0  0  0  0
 17 20  1  0  0  0  0
 14 15  1  0  0  0  0
 14 16  1  0  0  0  0
 14 17  1  0  0  0  0
 11 12  1  0  0  0  0
 11 13  1  0  0  0  0
 11 14  1  0  0  0  0
  9 10  1  0  0  0  0
  9 11  1  0  0  0  0
  9 27  1  0  0  0  0
  7  8  1  0  0  0  0
  7  9  1  0  0  0  0
 31 32  1  0  0  0  0
 31 33  1  0  0  0  0
 31 34  1  0  0  0  0
 29 30  1  0  0  0  0
 29 31  1  0  0  0  0
M  CHG  1  23   1
M  END
$$$$
default_name
  -OEChem-02102213163D

 34 33  0     1  0  0  0  0  0999 V2000
   -3.8899   -3.6747    1.6490 H   0  0  0  0  0  0  0  0  0  0  0  0
   -3.9109   -2.6717    1.2250 C   0  0  0  0  0  0  0  0  0  0  0  0
   -4.6009   -2.0517    1.7950 H   0  0  0  0  0  0  0  0  0  0  0  0
   -4.2309   -2.7237    0.1860 H   0  0  0  0  0  0  0  0  0  0  0  0
   -2.5229   -2.0787    1.2980 C   0  0  0  0  0  0  0  0  0  0  0  0
   -1.5999   -2.7227    1.7810 O   0  0  0  0  0  0  0  0  0  0  0  0
   -2.3659   -0.8447    0.8120 N   0  0  0  0  0  0  0  0  0  0  0  0
   -3.1749   -0.3807    0.4220 H   0  0  0  0  0  0  0  0  0  0  0  0
   -1.0919   -0.1077    0.8170 C   0  0  1  0  0  0  0  0  0  0  0  0
   -0.4136   -0.6011    1.5155 H   0  0  0  0  0  0  0  0  0  0  0  0
   -0.4834   -0.1723   -0.5965 C   0  0  0  0  0  0  0  0  0  0  0  0
   -1.0350    0.5111   -1.2440 H   0  0  0  0  0  0  0  0  0  0  0  0
    0.5552    0.1618   -0.5555 H   0  0  0  0  0  0  0  0  0  0  0  0
   -0.5391   -1.5766   -1.2173 C   0  0  0  0  0  0  0  0  0  0  0  0
   -0.6100   -1.4958   -2.3028 H   0  0  0  0  0  0  0  0  0  0  0  0
    0.3718   -2.1201   -0.9590 H   0  0  0  0  0  0  0  0  0  0  0  0
   -1.7573   -2.3466   -0.6890 C   0  0  0  0  0  0  0  0  0  0  0  0
   -1.6909   -2.4127    0.3996 H   0  0  0  0  0  0  0  0  0  0  0  0
   -2.6657   -1.8038   -0.9579 H   0  0  0  0  0  0  0  0  0  0  0  0
   -1.8005   -3.7576   -1.2889 C   0  0  0  0  0  0  0  0  0  0  0  0
   -1.8590   -3.6697   -2.3787 H   0  0  0  0  0  0  0  0  0  0  0  0
   -0.8644   -4.2684   -1.0437 H   0  0  0  0  0  0  0  0  0  0  0  0
   -2.9575   -4.5338   -0.7758 N   0  3  0  0  0  0  0  0  0  0  0  0
   -3.8273   -4.0713   -1.0088 H   0  0  0  0  0  0  0  0  0  0  0  0
   -2.9714   -5.4616   -1.1806 H   0  0  0  0  0  0  0  0  0  0  0  0
   -2.9033   -4.6255    0.2320 H   0  0  0  0  0  0  0  0  0  0  0  0
   -1.3103    1.3348    1.2791 C   0  0  0  0  0  0  0  0  0  0  0  0
   -2.2333    1.9891    0.8084 O   0  0  0  0  0  0  0  0  0  0  0  0
   -0.4429    1.8293    2.1683 N   0  0  0  0  0  0  0  0  0  0  0  0
    0.2668    1.2118    2.5263 H   0  0  0  0  0  0  0  0  0  0  0  0
   -0.5118    3.1863    2.7135 C   0  0  0  0  0  0  0  0  0  0  0  0
   -1.4470    3.3159    3.2625 H   0  0  0  0  0  0  0  0  0  0  0  0
    0.3243    3.3682    3.3896 H   0  0  0  0  0  0  0  0  0  0  0  0
   -0.4850    3.9172    1.9023 H   0  0  0  0  0  0  0  0  0  0  0  0
  5  6  2  0  0  0  0
  5  7  1  0  0  0  0
  2  3  1  0  0  0  0
  2  4  1  0  0  0  0
  2  5  1  0  0  0  0
  1  2  1  0  0  0  0
 27 28  2  0  0  0  0
 27 29  1  0  0  0  0
 23 24  1  0  0  0  0
 23 25  1  0  0  0  0
 23 26  1  0  0  0  0
 20 21  1  0  0  0  0
 20 22  1  0  0  0  0
 20 23  1  0  0  0  0
 17 18  1  0  0  0  0
 17 19  1  0  0  0  0
 17 20  1  0  0  0  0
 14 15  1  0  0  0  0
 14 16  1  0  0  0  0
 14 17  1  0  0  0  0
 11 12  1  0  0  0  0
 11 13  1  0  0  0  0
 11 14  1  0  0  0  0
  9 10  1  0  0  0  0
  9 11  1  0  0  0  0
  9 27  1  0  0  0  0
  7  8  1  0  0  0  0
  7  9  1  0  0  0  0
 31 32  1  0  0  0  0
 31 33  1  0  0  0  0
 31 34  1  0  0  0  0
 29 30  1  0  0  0  0
 29 31  1  0  0  0  0
M  CHG  1  23   1
M  END
$$$$
default_name
  -OEChem-02102213163D

 34 33  0     1  0  0  0  0  0999 V2000
   -3.8899   -3.6747    1.6490 H   0  0  0  0  0  0  0  0  0  0  0  0
   -3.9109   -2.6717    1.2250 C   0  0  0  0  0  0  0  0  0  0  0  0
   -4.6009   -2.0517    1.7950 H   0  0  0  0  0  0  0  0  0  0  0  0
   -4.2309   -2.7237    0.1860 H   0  0  0  0  0  0  0  0  0  0  0  0
   -2.5229   -2.0787    1.2980 C   0  0  0  0  0  0  0  0  0  0  0  0
   -1.5999   -2.7227    1.7810 O   0  0  0  0  0  0  0  0  0  0  0  0
   -2.3659   -0.8447    0.8120 N   0  0  0  0  0  0  0  0  0  0  0  0
   -3.1749   -0.3807    0.4220 H   0  0  0  0  0  0  0  0  0  0  0  0
   -1.0919   -0.1077    0.8170 C   0  0  1  0  0  0  0  0  0  0  0  0
   -0.4136   -0.6011    1.5155 H   0  0  0  0  0  0  0  0  0  0  0  0
   -0.4834   -0.1723   -0.5965 C   0  0  0  0  0  0  0  0  0  0  0  0
   -1.0350    0.5111   -1.2440 H   0  0  0  0  0  0  0  0  0  0  0  0
    0.5552    0.1618   -0.5555 H   0  0  0  0  0  0  0  0  0  0  0  0
   -0.5391   -1.5766   -1.2173 C   0  0  0  0  0  0  0  0  0  0  0  0
   -0.3428   -1.5128   -2.2884 H   0  0  0  0  0  0  0  0  0  0  0  0
    0.2224   -2.2057   -0.7522 H   0  0  0  0  0  0  0  0  0  0  0  0
   -1.9220   -2.2046   -0.9953 C   0  0  0  0  0  0  0  0  0  0  0  0
   -2.1218   -2.2534    0.0778 H   0  0  0  0  0  0  0  0  0  0  0  0
   -2.6786   -1.5768   -1.4701 H   0  0  0  0  0  0  0  0  0  0  0  0
   -1.9712   -3.6164   -1.5929 C   0  0  0  0  0  0  0  0  0  0  0  0
   -1.7612   -3.5469   -2.6652 H   0  0  0  0  0  0  0  0  0  0  0  0
   -1.1789   -4.2158   -1.1344 H   0  0  0  0  0  0  0  0  0  0  0  0
   -3.2920   -4.2573   -1.3711 N   0  3  0  0  0  0  0  0  0  0  0  0
   -4.0283   -3.7125   -1.8023 H   0  0  0  0  0  0  0  0  0  0  0  0
   -3.3080   -5.1874   -1.7706 H   0  0  0  0  0  0  0  0  0  0  0  0
   -3.4873   -4.3320   -0.3796 H   0  0  0  0  0  0  0  0  0  0  0  0
   -1.3103    1.3348    1.2791 C   0  0  0  0  0  0  0  0  0  0  0  0
   -2.2333    1.9891    0.8084 O   0  0  0  0  0  0  0  0  0  0  0  0
   -0.4429    1.8293    2.1683 N   0  0  0  0  0  0  0  0  0  0  0  0
    0.2668    1.2118    2.5263 H   0  0  0  0  0  0  0  0  0  0  0  0
   -0.5118    3.1863    2.7135 C   0  0  0  0  0  0  0  0  0  0  0  0
   -1.4470    3.3159    3.2625 H   0  0  0  0  0  0  0  0  0  0  0  0
    0.3243    3.3682    3.3896 H   0  0  0  0  0  0  0  0  0  0  0  0
   -0.4850    3.9172    1.9023 H   0  0  0  0  0  0  0  0  0  0  0  0
  5  6  2  0  0  0  0
  5  7  1  0  0  0  0
  2  3  1  0  0  0  0
  2  4  1  0  0  0  0
  2  5  1  0  0  0  0
  1  2  1  0  0  0  0
 27 28  2  0  0  0  0
 27 29  1  0  0  0  0
 23 24  1  0  0  0  0
 23 25  1  0  0  0  0
 23 26  1  0  0  0  0
 20 21  1  0  0  0  0
 20 22  1  0  0  0  0
 20 23  1  0  0  0  0
 17 18  1  0  0  0  0
 17 19  1  0  0  0  0
 17 20  1  0  0  0  0
 14 15  1  0  0  0  0
 14 16  1  0  0  0  0
 14 17  1  0  0  0  0
 11 12  1  0  0  0  0
 11 13  1  0  0  0  0
 11 14  1  0  0  0  0
  9 10  1  0  0  0  0
  9 11  1  0  0  0  0
  9 27  1  0  0  0  0
  7  8  1  0  0  0  0
  7  9  1  0  0  0  0
 31 32  1  0  0  0  0
 31 33  1  0  0  0  0
 31 34  1  0  0  0  0
 29 30  1  0  0  0  0
 29 31  1  0  0  0  0
M  CHG  1  23   1
M  END
$$$$
default_name
  -OEChem-02102213163D

 34 33  0     1  0  0  0  0  0999 V2000
   -3.8899   -3.6747    1.6490 H   0  0  0  0  0  0  0  0  0  0  0  0
   -3.9109   -2.6717    1.2250 C   0  0  0  0  0  0  0  0  0  0  0  0
   -4.6009   -2.0517    1.7950 H   0  0  0  0  0  0  0  0  0  0  0  0
   -4.2309   -2.7237    0.1860 H   0  0  0  0  0  0  0  0  0  0  0  0
   -2.5229   -2.0787    1.2980 C   0  0  0  0  0  0  0  0  0  0  0  0
   -1.5999   -2.7227    1.7810 O   0  0  0  0  0  0  0  0  0  0  0  0
   -2.3659   -0.8447    0.8120 N   0  0  0  0  0  0  0  0  0  0  0  0
   -3.1749   -0.3807    0.4220 H   0  0  0  0  0  0  0  0  0  0  0  0
   -1.0919   -0.1077    0.8170 C   0  0  1  0  0  0  0  0  0  0  0  0
   -0.4136   -0.6011    1.5155 H   0  0  0  0  0  0  0  0  0  0  0  0
   -0.4834   -0.1723   -0.5965 C   0  0  0  0  0  0  0  0  0  0  0  0
   -1.0350    0.5111   -1.2440 H   0  0  0  0  0  0  0  0  0  0  0  0
    0.5552    0.1618   -0.5555 H   0  0  0  0  0  0  0  0  0  0  0  0
   -0.5391   -1.5766   -1.2173 C   0  0  0  0  0  0  0  0  0  0  0  0
   -0.0899   -1.5570   -2.2111 H   0  0  0  0  0  0  0  0  0  0  0  0
    0.0202   -2.2707   -0.5869 H   0  0  0  0  0  0  0  0  0  0  0  0
   -1.9937   -2.0532   -1.3315 C   0  0  0  0  0  0  0  0  0  0  0  0
   -2.4452   -2.0574   -0.3365 H   0  0  0  0  0  0  0  0  0  0  0  0
   -2.5461   -1.3610   -1.9701 H   0  0  0  0  0  0  0  0  0  0  0  0
   -2.0494   -3.4651   -1.9282 C   0  0  0  0  0  0  0  0  0  0  0  0
   -1.5861   -3.4412   -2.9199 H   0  0  0  0  0  0  0  0  0  0  0  0
   -1.4557   -4.1330   -1.2968 H   0  0  0  0  0  0  0  0  0  0  0  0
   -3.4454   -3.9608   -2.0279 N   0  3  0  0  0  0  0  0  0  0  0  0
   -3.9973   -3.3524   -2.6196 H   0  0  0  0  0  0  0  0  0  0  0  0
   -3.4648   -4.8928   -2.4228 H   0  0  0  0  0  0  0  0  0  0  0  0
   -3.8760   -3.9931   -1.1112 H   0  0  0  0  0  0  0  0  0  0  0  0
   -1.3103    1.3348    1.2791 C   0  0  0  0  0  0  0  0  0  0  0  0
   -2.2333    1.9891    0.8084 O   0  0  0  0  0  0  0  0  0  0  0  0
   -0.4429    1.8293    2.1683 N   0  0  0  0  0  0  0  0  0  0  0  0
    0.2668    1.2118    2.5263 H   0  0  0  0  0  0  0  0  0  0  0  0
   -0.5118    3.1863    2.7135 C   0  0  0  0  0  0  0  0  0  0  0  0
   -1.4470    3.3159    3.2625 H   0  0  0  0  0  0  0  0  0  0  0  0
    0.3243    3.3682    3.3896 H   0  0  0  0  0  0  0  0  0  0  0  0
   -0.4850    3.9172    1.9023 H   0  0  0  0  0  0  0  0  0  0  0  0
  5  6  2  0  0  0  0
  5  7  1  0  0  0  0
  2  3  1  0  0  0  0
  2  4  1  0  0  0  0
  2  5  1  0  0  0  0
  1  2  1  0  0  0  0
 27 28  2  0  0  0  0
 27 29  1  0  0  0  0
 23 24  1  0  0  0  0
 23 25  1  0  0  0  0
 23 26  1  0  0  0  0
 20 21  1  0  0  0  0
 20 22  1  0  0  0  0
 20 23  1  0  0  0  0
 17 18  1  0  0  0  0
 17 19  1  0  0  0  0
 17 20  1  0  0  0  0
 14 15  1  0  0  0  0
 14 16  1  0  0  0  0
 14 17  1  0  0  0  0
 11 12  1  0  0  0  0
 11 13  1  0  0  0  0
 11 14  1  0  0  0  0
  9 10  1  0  0  0  0
  9 11  1  0  0  0  0
  9 27  1  0  0  0  0
  7  8  1  0  0  0  0
  7  9  1  0  0  0  0
 31 32  1  0  0  0  0
 31 33  1  0  0  0  0
 31 34  1  0  0  0  0
 29 30  1  0  0  0  0
 29 31  1  0  0  0  0
M  CHG  1  23   1
M  END
$$$$
default_name
  -OEChem-02102213163D

 34 33  0     1  0  0  0  0  0999 V2000
   -3.8899   -3.6747    1.6490 H   0  0  0  0  0  0  0  0  0  0  0  0
   -3.9109   -2.6717    1.2250 C   0  0  0  0  0  0  0  0  0  0  0  0
   -4.6009   -2.0517    1.7950 H   0  0  0  0  0  0  0  0  0  0  0  0
   -4.2309   -2.7237    0.1860 H   0  0  0  0  0  0  0  0  0  0  0  0
   -2.5229   -2.0787    1.2980 C   0  0  0  0  0  0  0  0  0  0  0  0
   -1.5999   -2.7227    1.7810 O   0  0  0  0  0  0  0  0  0  0  0  0
   -2.3659   -0.8447    0.8120 N   0  0  0  0  0  0  0  0  0  0  0  0
   -3.1749   -0.3807    0.4220 H   0  0  0  0  0  0  0  0  0  0  0  0
   -1.0919   -0.1077    0.8170 C   0  0  1  0  0  0  0  0  0  0  0  0
   -0.4136   -0.6011    1.5155 H   0  0  0  0  0  0  0  0  0  0  0  0
   -0.4834   -0.1723   -0.5965 C   0  0  0  0  0  0  0  0  0  0  0  0
   -1.0350    0.5111   -1.2440 H   0  0  0  0  0  0  0  0  0  0  0  0
    0.5552    0.1618   -0.5555 H   0  0  0  0  0  0  0  0  0  0  0  0
   -0.5391   -1.5766   -1.2173 C   0  0  0  0  0  0  0  0  0  0  0  0
    0.1315   -1.6254   -2.0763 H   0  0  0  0  0  0  0  0  0  0  0  0
   -0.2210   -2.3108   -0.4746 H   0  0  0  0  0  0  0  0  0  0  0  0
   -1.9676   -1.9025   -1.6746 C   0  0  0  0  0  0  0  0  0  0  0  0
   -2.6391   -1.8381   -0.8150 H   0  0  0  0  0  0  0  0  0  0  0  0
   -2.2773   -1.1711   -2.4237 H   0  0  0  0  0  0  0  0  0  0  0  0
   -2.0299   -3.3138   -2.2720 C   0  0  0  0  0  0  0  0  0  0  0  0
   -1.3456   -3.3599   -3.1255 H   0  0  0  0  0  0  0  0  0  0  0  0
   -1.6760   -4.0256   -1.5200 H   0  0  0  0  0  0  0  0  0  0  0  0
   -3.4072   -3.6646   -2.7014 N   0  3  0  0  0  0  0  0  0  0  0  0
   -3.7363   -3.0155   -3.4051 H   0  0  0  0  0  0  0  0  0  0  0  0
   -3.4313   -4.5981   -3.0926 H   0  0  0  0  0  0  0  0  0  0  0  0
   -4.0430   -3.6320   -1.9130 H   0  0  0  0  0  0  0  0  0  0  0  0
   -1.3103    1.3348    1.2791 C   0  0  0  0  0  0  0  0  0  0  0  0
   -2.2333    1.9891    0.8084 O   0  0  0  0  0  0  0  0  0  0  0  0
   -0.4429    1.8293    2.1683 N   0  0  0  0  0  0  0  0  0  0  0  0
    0.2668    1.2118    2.5263 H   0  0  0  0  0  0  0  0  0  0  0  0
   -0.5118    3.1863    2.7135 C   0  0  0  0  0  0  0  0  0  0  0  0
   -1.4470    3.3159    3.2625 H   0  0  0  0  0  0  0  0  0  0  0  0
    0.3243    3.3682    3.3896 H   0  0  0  0  0  0  0  0  0  0  0  0
   -0.4850    3.9172    1.9023 H   0  0  0  0  0  0  0  0  0  0  0  0
  5  6  2  0  0  0  0
  5  7  1  0  0  0  0
  2  3  1  0  0  0  0
  2  4  1  0  0  0  0
  2  5  1  0  0  0  0
  1  2  1  0  0  0  0
 27 28  2  0  0  0  0
 27 29  1  0  0  0  0
 23 24  1  0  0  0  0
 23 25  1  0  0  0  0
 23 26  1  0  0  0  0
 20 21  1  0  0  0  0
 20 22  1  0  0  0  0
 20 23  1  0  0  0  0
 17 18  1  0  0  0  0
 17 19  1  0  0  0  0
 17 20  1  0  0  0  0
 14 15  1  0  0  0  0
 14 16  1  0  0  0  0
 14 17  1  0  0  0  0
 11 12  1  0  0  0  0
 11 13  1  0  0  0  0
 11 14  1  0  0  0  0
  9 10  1  0  0  0  0
  9 11  1  0  0  0  0
  9 27  1  0  0  0  0
  7  8  1  0  0  0  0
  7  9  1  0  0  0  0
 31 32  1  0  0  0  0
 31 33  1  0  0  0  0
 31 34  1  0  0  0  0
 29 30  1  0  0  0  0
 29 31  1  0  0  0  0
M  CHG  1  23   1
M  END
$$$$
default_name
  -OEChem-02102213163D

 34 33  0     1  0  0  0  0  0999 V2000
   -3.8899   -3.6747    1.6490 H   0  0  0  0  0  0  0  0  0  0  0  0
   -3.9109   -2.6717    1.2250 C   0  0  0  0  0  0  0  0  0  0  0  0
   -4.6009   -2.0517    1.7950 H   0  0  0  0  0  0  0  0  0  0  0  0
   -4.2309   -2.7237    0.1860 H   0  0  0  0  0  0  0  0  0  0  0  0
   -2.5229   -2.0787    1.2980 C   0  0  0  0  0  0  0  0  0  0  0  0
   -1.5999   -2.7227    1.7810 O   0  0  0  0  0  0  0  0  0  0  0  0
   -2.3659   -0.8447    0.8120 N   0  0  0  0  0  0  0  0  0  0  0  0
   -3.1749   -0.3807    0.4220 H   0  0  0  0  0  0  0  0  0  0  0  0
   -1.0919   -0.1077    0.8170 C   0  0  1  0  0  0  0  0  0  0  0  0
   -0.4136   -0.6011    1.5155 H   0  0  0  0  0  0  0  0  0  0  0  0
   -0.4834   -0.1723   -0.5965 C   0  0  0  0  0  0  0  0  0  0  0  0
   -1.0350    0.5111   -1.2440 H   0  0  0  0  0  0  0  0  0  0  0  0
    0.5552    0.1618   -0.5555 H   0  0  0  0  0  0  0  0  0  0  0  0
   -0.5391   -1.5766   -1.2173 C   0  0  0  0  0  0  0  0  0  0  0  0
    0.3063   -1.7134   -1.8930 H   0  0  0  0  0  0  0  0  0  0  0  0
   -0.4848   -2.3233   -0.4227 H   0  0  0  0  0  0  0  0  0  0  0  0
   -1.8455   -1.7630   -2.0012 C   0  0  0  0  0  0  0  0  0  0  0  0
   -2.6902   -1.6106   -1.3252 H   0  0  0  0  0  0  0  0  0  0  0  0
   -1.8905   -1.0201   -2.8001 H   0  0  0  0  0  0  0  0  0  0  0  0
   -1.9138   -3.1731   -2.6009 C   0  0  0  0  0  0  0  0  0  0  0  0
   -1.0562   -3.3084   -3.2680 H   0  0  0  0  0  0  0  0  0  0  0  0
   -1.8247   -3.9009   -1.7887 H   0  0  0  0  0  0  0  0  0  0  0  0
   -3.1800   -3.3888   -3.3456 N   0  3  0  0  0  0  0  0  0  0  0  0
   -3.2632   -2.7248   -4.1052 H   0  0  0  0  0  0  0  0  0  0  0  0
   -3.2095   -4.3231   -3.7344 H   0  0  0  0  0  0  0  0  0  0  0  0
   -3.9768   -3.2733   -2.7303 H   0  0  0  0  0  0  0  0  0  0  0  0
   -1.3103    1.3348    1.2791 C   0  0  0  0  0  0  0  0  0  0  0  0
   -2.2333    1.9891    0.8084 O   0  0  0  0  0  0  0  0  0  0  0  0
   -0.4429    1.8293    2.1683 N   0  0  0  0  0  0  0  0  0  0  0  0
    0.2668    1.2118    2.5263 H   0  0  0  0  0  0  0  0  0  0  0  0
   -0.5118    3.1863    2.7135 C   0  0  0  0  0  0  0  0  0  0  0  0
   -1.4470    3.3159    3.2625 H   0  0  0  0  0  0  0  0  0  0  0  0
    0.3243    3.3682    3.3896 H   0  0  0  0  0  0  0  0  0  0  0  0
   -0.4850    3.9172    1.9023 H   0  0  0  0  0  0  0  0  0  0  0  0
  5  6  2  0  0  0  0
  5  7  1  0  0  0  0
  2  3  1  0  0  0  0
  2  4  1  0  0  0  0
  2  5  1  0  0  0  0
  1  2  1  0  0  0  0
 27 28  2  0  0  0  0
 27 29  1  0  0  0  0
 23 24  1  0  0  0  0
 23 25  1  0  0  0  0
 23 26  1  0  0  0  0
 20 21  1  0  0  0  0
 20 22  1  0  0  0  0
 20 23  1  0  0  0  0
 17 18  1  0  0  0  0
 17 19  1  0  0  0  0
 17 20  1  0  0  0  0
 14 15  1  0  0  0  0
 14 16  1  0  0  0  0
 14 17  1  0  0  0  0
 11 12  1  0  0  0  0
 11 13  1  0  0  0  0
 11 14  1  0  0  0  0
  9 10  1  0  0  0  0
  9 11  1  0  0  0  0
  9 27  1  0  0  0  0
  7  8  1  0  0  0  0
  7  9  1  0  0  0  0
 31 32  1  0  0  0  0
 31 33  1  0  0  0  0
 31 34  1  0  0  0  0
 29 30  1  0  0  0  0
 29 31  1  0  0  0  0
M  CHG  1  23   1
M  END
$$$$
default_name
  -OEChem-02102213163D

 34 33  0     1  0  0  0  0  0999 V2000
   -3.8899   -3.6747    1.6490 H   0  0  0  0  0  0  0  0  0  0  0  0
   -3.9109   -2.6717    1.2250 C   0  0  0  0  0  0  0  0  0  0  0  0
   -4.6009   -2.0517    1.7950 H   0  0  0  0  0  0  0  0  0  0  0  0
   -4.2309   -2.7237    0.1860 H   0  0  0  0  0  0  0  0  0  0  0  0
   -2.5229   -2.0787    1.2980 C   0  0  0  0  0  0  0  0  0  0  0  0
   -1.5999   -2.7227    1.7810 O   0  0  0  0  0  0  0  0  0  0  0  0
   -2.3659   -0.8447    0.8120 N   0  0  0  0  0  0  0  0  0  0  0  0
   -3.1749   -0.3807    0.4220 H   0  0  0  0  0  0  0  0  0  0  0  0
   -1.0919   -0.1077    0.8170 C   0  0  1  0  0  0  0  0  0  0  0  0
   -0.4136   -0.6011    1.5155 H   0  0  0  0  0  0  0  0  0  0  0  0
   -0.4834   -0.1723   -0.5965 C   0  0  0  0  0  0  0  0  0  0  0  0
   -1.0350    0.5111   -1.2440 H   0  0  0  0  0  0  0  0  0  0  0  0
    0.5552    0.1618   -0.5555 H   0  0  0  0  0  0  0  0  0  0  0  0
   -0.5391   -1.5766   -1.2173 C   0  0  0  0  0  0  0  0  0  0  0  0
    0.4225   -1.8149   -1.6737 H   0  0  0  0  0  0  0  0  0  0  0  0
   -0.7532   -2.3072   -0.4348 H   0  0  0  0  0  0  0  0  0  0  0  0
   -1.6357   -1.6440   -2.2892 C   0  0  0  0  0  0  0  0  0  0  0  0
   -2.5952   -1.3902   -1.8322 H   0  0  0  0  0  0  0  0  0  0  0  0
   -1.4120   -0.9182   -3.0736 H   0  0  0  0  0  0  0  0  0  0  0  0
   -1.7092   -3.0523   -2.8924 C   0  0  0  0  0  0  0  0  0  0  0  0
   -0.7376   -3.2902   -3.3377 H   0  0  0  0  0  0  0  0  0  0  0  0
   -1.8918   -3.7674   -2.0846 H   0  0  0  0  0  0  0  0  0  0  0  0
   -2.7793   -3.1522   -3.9168 N   0  3  0  0  0  0  0  0  0  0  0  0
   -2.6101   -2.5000   -4.6724 H   0  0  0  0  0  0  0  0  0  0  0  0
   -2.8148   -4.0868   -4.3045 H   0  0  0  0  0  0  0  0  0  0  0  0
   -3.6820   -2.9414   -3.5076 H   0  0  0  0  0  0  0  0  0  0  0  0
   -1.3103    1.3348    1.2791 C   0  0  0  0  0  0  0  0  0  0  0  0
   -2.2333    1.9891    0.8084 O   0  0  0  0  0  0  0  0  0  0  0  0
   -0.4429    1.8293    2.1683 N   0  0  0  0  0  0  0  0  0  0  0  0
    0.2668    1.2118    2.5263 H   0  0  0  0  0  0  0  0  0  0  0  0
   -0.5118    3.1863    2.7135 C   0  0  0  0  0  0  0  0  0  0  0  0
   -1.4470    3.3159    3.2625 H   0  0  0  0  0  0  0  0  0  0  0  0
    0.3243    3.3682    3.3896 H   0  0  0  0  0  0  0  0  0  0  0  0
   -0.4850    3.9172    1.9023 H   0  0  0  0  0  0  0  0  0  0  0  0
  5  6  2  0  0  0  0
  5  7  1  0  0  0  0
  2  3  1  0  0  0  0
  2  4  1  0  0  0  0
  2  5  1  0  0  0  0
  1  2  1  0  0  0  0
 27 28  2  0  0  0  0
 27 29  1  0  0  0  0
 23 24  1  0  0  0  0
 23 25  1  0  0  0  0
 23 26  1  0  0  0  0
 20 21  1  0  0  0  0
 20 22  1  0  0  0  0
 20 23  1  0  0  0  0
 17 18  1  0  0  0  0
 17 19  1  0  0  0  0
 17 20  1  0  0  0  0
 14 15  1  0  0  0  0
 14 16  1  0  0  0  0
 14 17  1  0  0  0  0
 11 12  1  0  0  0  0
 11 13  1  0  0  0  0
 11 14  1  0  0  0  0
  9 10  1  0  0  0  0
  9 11  1  0  0  0  0
  9 27  1  0  0  0  0
  7  8  1  0  0  0  0
  7  9  1  0  0  0  0
 31 32  1  0  0  0  0
 31 33  1  0  0  0  0
 31 34  1  0  0  0  0
 29 30  1  0  0  0  0
 29 31  1  0  0  0  0
M  CHG  1  23   1
M  END
$$$$
default_name
  -OEChem-02102213163D

 34 33  0     1  0  0  0  0  0999 V2000
   -3.8899   -3.6747    1.6490 H   0  0  0  0  0  0  0  0  0  0  0  0
   -3.9109   -2.6717    1.2250 C   0  0  0  0  0  0  0  0  0  0  0  0
   -4.6009   -2.0517    1.7950 H   0  0  0  0  0  0  0  0  0  0  0  0
   -4.2309   -2.7237    0.1860 H   0  0  0  0  0  0  0  0  0  0  0  0
   -2.5229   -2.0787    1.2980 C   0  0  0  0  0  0  0  0  0  0  0  0
   -1.5999   -2.7227    1.7810 O   0  0  0  0  0  0  0  0  0  0  0  0
   -2.3659   -0.8447    0.8120 N   0  0  0  0  0  0  0  0  0  0  0  0
   -3.1749   -0.3807    0.4220 H   0  0  0  0  0  0  0  0  0  0  0  0
   -1.0919   -0.1077    0.8170 C   0  0  1  0  0  0  0  0  0  0  0  0
   -0.4136   -0.6011    1.5155 H   0  0  0  0  0  0  0  0  0  0  0  0
   -0.4834   -0.1723   -0.5965 C   0  0  0  0  0  0  0  0  0  0  0  0
   -1.0350    0.5111   -1.2440 H   0  0  0  0  0  0  0  0  0  0  0  0
    0.5552    0.1618   -0.5555 H   0  0  0  0  0  0  0  0  0  0  0  0
   -0.5391   -1.5766   -1.2173 C   0  0  0  0  0  0  0  0  0  0  0  0
    0.4724   -1.9231   -1.4335 H   0  0  0  0  0  0  0  0  0  0  0  0
   -1.0078   -2.2638   -0.5102 H   0  0  0  0  0  0  0  0  0  0  0  0
   -1.3525   -1.5537   -2.5188 C   0  0  0  0  0  0  0  0  0  0  0  0
   -2.3603   -1.1921   -2.3014 H   0  0  0  0  0  0  0  0  0  0  0  0
   -0.8745   -0.8724   -3.2255 H   0  0  0  0  0  0  0  0  0  0  0  0
   -1.4299   -2.9598   -3.1268 C   0  0  0  0  0  0  0  0  0  0  0  0
   -0.4115   -3.3067   -3.3297 H   0  0  0  0  0  0  0  0  0  0  0  0
   -1.8726   -3.6342   -2.3876 H   0  0  0  0  0  0  0  0  0  0  0  0
   -2.2323   -2.9709   -4.3759 N   0  3  0  0  0  0  0  0  0  0  0  0
   -1.8217   -2.3565   -5.0678 H   0  0  0  0  0  0  0  0  0  0  0  0
   -2.2740   -3.9051   -4.7640 H   0  0  0  0  0  0  0  0  0  0  0  0
   -3.1787   -2.6589   -4.1917 H   0  0  0  0  0  0  0  0  0  0  0  0
   -1.3103    1.3348    1.2791 C   0  0  0  0  0  0  0  0  0  0  0  0
   -2.2333    1.9891    0.8084 O   0  0  0  0  0  0  0  0  0  0  0  0
   -0.4429    1.8293    2.1683 N   0  0  0  0  0  0  0  0  0  0  0  0
    0.2668    1.2118    2.5263 H   0  0  0  0  0  0  0  0  0  0  0  0
   -0.5118    3.1863    2.7135 C   0  0  0  0  0  0  0  0  0  0  0  0
   -1.4470    3.3159    3.2625 H   0  0  0  0  0  0  0  0  0  0  0  0
    0.3243    3.3682    3.3896 H   0  0  0  0  0  0  0  0  0  0  0  0
   -0.4850    3.9172    1.9023 H   0  0  0  0  0  0  0  0  0  0  0  0
  5  6  2  0  0  0  0
  5  7  1  0  0  0  0
  2  3  1  0  0  0  0
  2  4  1  0  0  0  0
  2  5  1  0  0  0  0
  1  2  1  0  0  0  0
 27 28  2  0  0  0  0
 27 29  1  0  0  0  0
 23 24  1  0  0  0  0
 23 25  1  0  0  0  0
 23 26  1  0  0  0  0
 20 21  1  0  0  0  0
 20 22  1  0  0  0  0
 20 23  1  0  0  0  0
 17 18  1  0  0  0  0
 17 19  1  0  0  0  0
 17 20  1  0  0  0  0
 14 15  1  0  0  0  0
 14 16  1  0  0  0  0
 14 17  1  0  0  0  0
 11 12  1  0  0  0  0
 11 13  1  0  0  0  0
 11 14  1  0  0  0  0
  9 10  1  0  0  0  0
  9 11  1  0  0  0  0
  9 27  1  0  0  0  0
  7  8  1  0  0  0  0
  7  9  1  0  0  0  0
 31 32  1  0  0  0  0
 31 33  1  0  0  0  0
 31 34  1  0  0  0  0
 29 30  1  0  0  0  0
 29 31  1  0  0  0  0
M  CHG  1  23   1
M  END
$$$$
default_name
  -OEChem-02102213163D

 34 33  0     1  0  0  0  0  0999 V2000
   -3.8899   -3.6747    1.6490 H   0  0  0  0  0  0  0  0  0  0  0  0
   -3.9109   -2.6717    1.2250 C   0  0  0  0  0  0  0  0  0  0  0  0
   -4.6009   -2.0517    1.7950 H   0  0  0  0  0  0  0  0  0  0  0  0
   -4.2309   -2.7237    0.1860 H   0  0  0  0  0  0  0  0  0  0  0  0
   -2.5229   -2.0787    1.2980 C   0  0  0  0  0  0  0  0  0  0  0  0
   -1.5999   -2.7227    1.7810 O   0  0  0  0  0  0  0  0  0  0  0  0
   -2.3659   -0.8447    0.8120 N   0  0  0  0  0  0  0  0  0  0  0  0
   -3.1749   -0.3807    0.4220 H   0  0  0  0  0  0  0  0  0  0  0  0
   -1.0919   -0.1077    0.8170 C   0  0  1  0  0  0  0  0  0  0  0  0
   -0.4136   -0.6011    1.5155 H   0  0  0  0  0  0  0  0  0  0  0  0
   -0.4834   -0.1723   -0.5965 C   0  0  0  0  0  0  0  0  0  0  0  0
   -1.0350    0.5111   -1.2440 H   0  0  0  0  0  0  0  0  0  0  0  0
    0.5552    0.1618   -0.5555 H   0  0  0  0  0  0  0  0  0  0  0  0
   -0.5391   -1.5766   -1.2173 C   0  0  0  0  0  0  0  0  0  0  0  0
    0.4524   -2.0305   -1.1887 H   0  0  0  0  0  0  0  0  0  0  0  0
   -1.2314   -2.1959   -0.6437 H   0  0  0  0  0  0  0  0  0  0  0  0
   -1.0151   -1.4983   -2.6744 C   0  0  0  0  0  0  0  0  0  0  0  0
   -2.0018   -1.0297   -2.7011 H   0  0  0  0  0  0  0  0  0  0  0  0
   -0.3146   -0.8858   -3.2455 H   0  0  0  0  0  0  0  0  0  0  0  0
   -1.0951   -2.9018   -3.2879 C   0  0  0  0  0  0  0  0  0  0  0  0
   -0.1000   -3.3566   -3.2448 H   0  0  0  0  0  0  0  0  0  0  0  0
   -1.7685   -3.5105   -2.6769 H   0  0  0  0  0  0  0  0  0  0  0  0
   -1.5765   -2.8574   -4.6917 N   0  3  0  0  0  0  0  0  0  0  0  0
   -0.9515   -2.3040   -5.2645 H   0  0  0  0  0  0  0  0  0  0  0  0
   -1.6238   -3.7905   -5.0816 H   0  0  0  0  0  0  0  0  0  0  0  0
   -2.5011   -2.4452   -4.7361 H   0  0  0  0  0  0  0  0  0  0  0  0
   -1.3103    1.3348    1.2791 C   0  0  0  0  0  0  0  0  0  0  0  0
   -2.2333    1.9891    0.8084 O   0  0  0  0  0  0  0  0  0  0  0  0
   -0.4429    1.8293    2.1683 N   0  0  0  0  0  0  0  0  0  0  0  0
    0.2668    1.2118    2.5263 H   0  0  0  0  0  0  0  0  0  0  0  0
   -0.5118    3.1863    2.7135 C   0  0  0  0  0  0  0  0  0  0  0  0
   -1.4470    3.3159    3.2625 H   0  0  0  0  0  0  0  0  0  0  0  0
    0.3243    3.3682    3.3896 H   0  0  0  0  0  0  0  0  0  0  0  0
   -0.4850    3.9172    1.9023 H   0  0  0  0  0  0  0  0  0  0  0  0
  5  6  2  0  0  0  0
  5  7  1  0  0  0  0
  2  3  1  0  0  0  0
  2  4  1  0  0  0  0
  2  5  1  0  0  0  0
  1  2  1  0  0  0  0
 27 28  2  0  0  0  0
 27 29  1  0  0  0  0
 23 24  1  0  0  0  0
 23 25  1  0  0  0  0
 23 26  1  0  0  0  0
 20 21  1  0  0  0  0
 20 22  1  0  0  0  0
 20 23  1  0  0  0  0
 17 18  1  0  0  0  0
 17 19  1  0  0  0  0
 17 20  1  0  0  0  0
 14 15  1  0  0  0  0
 14 16  1  0  0  0  0
 14 17  1  0  0  0  0
 11 12  1  0  0  0  0
 11 13  1  0  0  0  0
 11 14  1  0  0  0  0
  9 10  1  0  0  0  0
  9 11  1  0  0  0  0
  9 27  1  0  0  0  0
  7  8  1  0  0  0  0
  7  9  1  0  0  0  0
 31 32  1  0  0  0  0
 31 33  1  0  0  0  0
 31 34  1  0  0  0  0
 29 30  1  0  0  0  0
 29 31  1  0  0  0  0
M  CHG  1  23   1
M  END
$$$$
default_name
  -OEChem-02102213163D

 34 33  0     1  0  0  0  0  0999 V2000
   -3.8899   -3.6747    1.6490 H   0  0  0  0  0  0  0  0  0  0  0  0
   -3.9109   -2.6717    1.2250 C   0  0  0  0  0  0  0  0  0  0  0  0
   -4.6009   -2.0517    1.7950 H   0  0  0  0  0  0  0  0  0  0  0  0
   -4.2309   -2.7237    0.1860 H   0  0  0  0  0  0  0  0  0  0  0  0
   -2.5229   -2.0787    1.2980 C   0  0  0  0  0  0  0  0  0  0  0  0
   -1.5999   -2.7227    1.7810 O   0  0  0  0  0  0  0  0  0  0  0  0
   -2.3659   -0.8447    0.8120 N   0  0  0  0  0  0  0  0  0  0  0  0
   -3.1749   -0.3807    0.4220 H   0  0  0  0  0  0  0  0  0  0  0  0
   -1.0919   -0.1077    0.8170 C   0  0  1  0  0  0  0  0  0  0  0  0
   -0.4136   -0.6011    1.5155 H   0  0  0  0  0  0  0  0  0  0  0  0
   -0.4834   -0.1723   -0.5965 C   0  0  0  0  0  0  0  0  0  0  0  0
   -1.0350    0.5111   -1.2440 H   0  0  0  0  0  0  0  0  0  0  0  0
    0.5552    0.1618   -0.5555 H   0  0  0  0  0  0  0  0  0  0  0  0
   -0.5391   -1.5766   -1.2173 C   0  0  0  0  0  0  0  0  0  0  0  0
    0.3639   -2.1299   -0.9559 H   0  0  0  0  0  0  0  0  0  0  0  0
   -1.4087   -2.1082   -0.8262 H   0  0  0  0  0  0  0  0  0  0  0  0
   -0.6467   -1.4815   -2.7455 C   0  0  0  0  0  0  0  0  0  0  0  0
   -1.5439   -0.9140   -3.0038 H   0  0  0  0  0  0  0  0  0  0  0  0
    0.2296   -0.9574   -3.1323 H   0  0  0  0  0  0  0  0  0  0  0  0
   -0.7274   -2.8824   -3.3649 C   0  0  0  0  0  0  0  0  0  0  0  0
    0.1755   -3.4366   -3.0886 H   0  0  0  0  0  0  0  0  0  0  0  0
   -1.5865   -3.4045   -2.9329 H   0  0  0  0  0  0  0  0  0  0  0  0
   -0.8564   -2.8192   -4.8427 N   0  3  0  0  0  0  0  0  0  0  0  0
   -0.0590   -2.3462   -5.2492 H   0  0  0  0  0  0  0  0  0  0  0  0
   -0.9088   -3.7508   -5.2356 H   0  0  0  0  0  0  0  0  0  0  0  0
   -1.6955   -2.3146   -5.1037 H   0  0  0  0  0  0  0  0  0  0  0  0
   -1.3103    1.3348    1.2791 C   0  0  0  0  0  0  0  0  0  0  0  0
   -2.2333    1.9891    0.8084 O   0  0  0  0  0  0  0  0  0  0  0  0
   -0.4429    1.8293    2.1683 N   0  0  0  0  0  0  0  0  0  0  0  0
    0.2668    1.2118    2.5263 H   0  0  0  0  0  0  0  0  0  0  0  0
   -0.5118    3.1863    2.7135 C   0  0  0  0  0  0  0  0  0  0  0  0
   -1.4470    3.3159    3.2625 H   0  0  0  0  0  0  0  0  0  0  0  0
    0.3243    3.3682    3.3896 H   0  0  0  0  0  0  0  0  0  0  0  0
   -0.4850    3.9172    1.9023 H   0  0  0  0  0  0  0  0  0  0  0  0
  5  6  2  0  0  0  0
  5  7  1  0  0  0  0
  2  3  1  0  0  0  0
  2  4  1  0  0  0  0
  2  5  1  0  0  0  0
  1  2  1  0  0  0  0
 27 28  2  0  0  0  0
 27 29  1  0  0  0  0
 23 24  1  0  0  0  0
 23 25  1  0  0  0  0
 23 26  1  0  0  0  0
 20 21  1  0  0  0  0
 20 22  1  0  0  0  0
 20 23  1  0  0  0  0
 17 18  1  0  0  0  0
 17 19  1  0  0  0  0
 17 20  1  0  0  0  0
 14 15  1  0  0  0  0
 14 16  1  0  0  0  0
 14 17  1  0  0  0  0
 11 12  1  0  0  0  0
 11 13  1  0  0  0  0
 11 14  1  0  0  0  0
  9 10  1  0  0  0  0
  9 11  1  0  0  0  0
  9 27  1  0  0  0  0
  7  8  1  0  0  0  0
  7  9  1  0  0  0  0
 31 32  1  0  0  0  0
 31 33  1  0  0  0  0
 31 34  1  0  0  0  0
 29 30  1  0  0  0  0
 29 31  1  0  0  0  0
M  CHG  1  23   1
M  END
$$$$
default_name
  -OEChem-02102213163D

 34 33  0     1  0  0  0  0  0999 V2000
   -3.8899   -3.6747    1.6490 H   0  0  0  0  0  0  0  0  0  0  0  0
   -3.9109   -2.6717    1.2250 C   0  0  0  0  0  0  0  0  0  0  0  0
   -4.6009   -2.0517    1.7950 H   0  0  0  0  0  0  0  0  0  0  0  0
   -4.2309   -2.7237    0.1860 H   0  0  0  0  0  0  0  0  0  0  0  0
   -2.5229   -2.0787    1.2980 C   0  0  0  0  0  0  0  0  0  0  0  0
   -1.5999   -2.7227    1.7810 O   0  0  0  0  0  0  0  0  0  0  0  0
   -2.3659   -0.8447    0.8120 N   0  0  0  0  0  0  0  0  0  0  0  0
   -3.1749   -0.3807    0.4220 H   0  0  0  0  0  0  0  0  0  0  0  0
   -1.0919   -0.1077    0.8170 C   0  0  1  0  0  0  0  0  0  0  0  0
   -0.4136   -0.6011    1.5155 H   0  0  0  0  0  0  0  0  0  0  0  0
   -0.4834   -0.1723   -0.5965 C   0  0  0  0  0  0  0  0  0  0  0  0
   -1.0350    0.5111   -1.2440 H   0  0  0  0  0  0  0  0  0  0  0  0
    0.5552    0.1618   -0.5555 H   0  0  0  0  0  0  0  0  0  0  0  0
   -0.5391   -1.5766   -1.2173 C   0  0  0  0  0  0  0  0  0  0  0  0
    0.2130   -2.2145   -0.7511 H   0  0  0  0  0  0  0  0  0  0  0  0
   -1.5277   -2.0067   -1.0452 H   0  0  0  0  0  0  0  0  0  0  0  0
   -0.2722   -1.5045   -2.7271 C   0  0  0  0  0  0  0  0  0  0  0  0
   -1.0180   -0.8530   -3.1889 H   0  0  0  0  0  0  0  0  0  0  0  0
    0.7209   -1.0825   -2.8935 H   0  0  0  0  0  0  0  0  0  0  0  0
   -0.3521   -2.9028   -3.3525 C   0  0  0  0  0  0  0  0  0  0  0  0
    0.3963   -3.5412   -2.8718 H   0  0  0  0  0  0  0  0  0  0  0  0
   -1.3391   -3.3236   -3.1381 H   0  0  0  0  0  0  0  0  0  0  0  0
   -0.1211   -2.8591   -4.8185 N   0  3  0  0  0  0  0  0  0  0  0  0
    0.7951   -2.4802   -5.0229 H   0  0  0  0  0  0  0  0  0  0  0  0
   -0.1774   -3.7886   -5.2156 H   0  0  0  0  0  0  0  0  0  0  0  0
   -0.8168   -2.2763   -5.2694 H   0  0  0  0  0  0  0  0  0  0  0  0
   -1.3103    1.3348    1.2791 C   0  0  0  0  0  0  0  0  0  0  0  0
   -2.2333    1.9891    0.8084 O   0  0  0  0  0  0  0  0  0  0  0  0
   -0.4429    1.8293    2.1683 N   0  0  0  0  0  0  0  0  0  0  0  0
    0.2668    1.2118    2.5263 H   0  0  0  0  0  0  0  0  0  0  0  0
   -0.5118    3.1863    2.7135 C   0  0  0  0  0  0  0  0  0  0  0  0
   -1.4470    3.3159    3.2625 H   0  0  0  0  0  0  0  0  0  0  0  0
    0.3243    3.3682    3.3896 H   0  0  0  0  0  0  0  0  0  0  0  0
   -0.4850    3.9172    1.9023 H   0  0  0  0  0  0  0  0  0  0  0  0
  5  6  2  0  0  0  0
  5  7  1  0  0  0  0
  2  3  1  0  0  0  0
  2  4  1  0  0  0  0
  2  5  1  0  0  0  0
  1  2  1  0  0  0  0
 27 28  2  0  0  0  0
 27 29  1  0  0  0  0
 23 24  1  0  0  0  0
 23 25  1  0  0  0  0
 23 26  1  0  0  0  0
 20 21  1  0  0  0  0
 20 22  1  0  0  0  0
 20 23  1  0  0  0  0
 17 18  1  0  0  0  0
 17 19  1  0  0  0  0
 17 20  1  0  0  0  0
 14 15  1  0  0  0  0
 14 16  1  0  0  0  0
 14 17  1  0  0  0  0
 11 12  1  0  0  0  0
 11 13  1  0  0  0  0
 11 14  1  0  0  0  0
  9 10  1  0  0  0  0
  9 11  1  0  0  0  0
  9 27  1  0  0  0  0
  7  8  1  0  0  0  0
  7  9  1  0  0  0  0
 31 32  1  0  0  0  0
 31 33  1  0  0  0  0
 31 34  1  0  0  0  0
 29 30  1  0  0  0  0
 29 31  1  0  0  0  0
M  CHG  1  23   1
M  END
$$$$
default_name
  -OEChem-02102213163D

 34 33  0     1  0  0  0  0  0999 V2000
   -3.8899   -3.6747    1.6490 H   0  0  0  0  0  0  0  0  0  0  0  0
   -3.9109   -2.6717    1.2250 C   0  0  0  0  0  0  0  0  0  0  0  0
   -4.6009   -2.0517    1.7950 H   0  0  0  0  0  0  0  0  0  0  0  0
   -4.2309   -2.7237    0.1860 H   0  0  0  0  0  0  0  0  0  0  0  0
   -2.5229   -2.0787    1.2980 C   0  0  0  0  0  0  0  0  0  0  0  0
   -1.5999   -2.7227    1.7810 O   0  0  0  0  0  0  0  0  0  0  0  0
   -2.3659   -0.8447    0.8120 N   0  0  0  0  0  0  0  0  0  0  0  0
   -3.1749   -0.3807    0.4220 H   0  0  0  0  0  0  0  0  0  0  0  0
   -1.0919   -0.1077    0.8170 C   0  0  1  0  0  0  0  0  0  0  0  0
   -0.4136   -0.6011    1.5155 H   0  0  0  0  0  0  0  0  0  0  0  0
   -0.4834   -0.1723   -0.5965 C   0  0  0  0  0  0  0  0  0  0  0  0
   -0.8422    0.6845   -1.1689 H   0  0  0  0  0  0  0  0  0  0  0  0
    0.6036   -0.1010   -0.5227 H   0  0  0  0  0  0  0  0  0  0  0  0
   -0.8558   -1.4529   -1.3593 C   0  0  0  0  0  0  0  0  0  0  0  0
   -0.5036   -2.3251   -0.8070 H   0  0  0  0  0  0  0  0  0  0  0  0
   -1.9415   -1.5088   -1.4592 H   0  0  0  0  0  0  0  0  0  0  0  0
   -0.2167   -1.4488   -2.7549 C   0  0  0  0  0  0  0  0  0  0  0  0
   -0.5598   -0.5661   -3.3000 H   0  0  0  0  0  0  0  0  0  0  0  0
    0.8690   -1.4021   -2.6492 H   0  0  0  0  0  0  0  0  0  0  0  0
   -0.6079   -2.7150   -3.5269 C   0  0  0  0  0  0  0  0  0  0  0  0
   -0.2628   -3.5868   -2.9614 H   0  0  0  0  0  0  0  0  0  0  0  0
   -1.6995   -2.7638   -3.5845 H   0  0  0  0  0  0  0  0  0  0  0  0
   -0.0218   -2.7256   -4.8910 N   0  3  0  0  0  0  0  0  0  0  0  0
    0.9888   -2.6913   -4.8440 H   0  0  0  0  0  0  0  0  0  0  0  0
   -0.2895   -3.5667   -5.3869 H   0  0  0  0  0  0  0  0  0  0  0  0
   -0.3453   -1.9252   -5.4216 H   0  0  0  0  0  0  0  0  0  0  0  0
   -1.3103    1.3348    1.2791 C   0  0  0  0  0  0  0  0  0  0  0  0
   -2.2333    1.9891    0.8084 O   0  0  0  0  0  0  0  0  0  0  0  0
   -0.4429    1.8293    2.1683 N   0  0  0  0  0  0  0  0  0  0  0  0
    0.2668    1.2118    2.5263 H   0  0  0  0  0  0  0  0  0  0  0  0
   -0.5118    3.1863    2.7135 C   0  0  0  0  0  0  0  0  0  0  0  0
   -1.4470    3.3159    3.2625 H   0  0  0  0  0  0  0  0  0  0  0  0
    0.3243    3.3682    3.3896 H   0  0  0  0  0  0  0  0  0  0  0  0
   -0.4850    3.9172    1.9023 H   0  0  0  0  0  0  0  0  0  0  0  0
  5  6  2  0  0  0  0
  5  7  1  0  0  0  0
  2  3  1  0  0  0  0
  2  4  1  0  0  0  0
  2  5  1  0  0  0  0
  1  2  1  0  0  0  0
 27 28  2  0  0  0  0
 27 29  1  0  0  0  0
 23 24  1  0  0  0  0
 23 25  1  0  0  0  0
 23 26  1  0  0  0  0
 20 21  1  0  0  0  0
 20 22  1  0  0  0  0
 20 23  1  0  0  0  0
 17 18  1  0  0  0  0
 17 19  1  0  0  0  0
 17 20  1  0  0  0  0
 14 15  1  0  0  0  0
 14 16  1  0  0  0  0
 14 17  1  0  0  0  0
 11 12  1  0  0  0  0
 11 13  1  0  0  0  0
 11 14  1  0  0  0  0
  9 10  1  0  0  0  0
  9 11  1  0  0  0  0
  9 27  1  0  0  0  0
  7  8  1  0  0  0  0
  7  9  1  0  0  0  0
 31 32  1  0  0  0  0
 31 33  1  0  0  0  0
 31 34  1  0  0  0  0
 29 30  1  0  0  0  0
 29 31  1  0  0  0  0
M  CHG  1  23   1
M  END
$$$$
default_name
  -OEChem-02102213163D

 34 33  0     1  0  0  0  0  0999 V2000
   -3.8899   -3.6747    1.6490 H   0  0  0  0  0  0  0  0  0  0  0  0
   -3.9109   -2.6717    1.2250 C   0  0  0  0  0  0  0  0  0  0  0  0
   -4.6009   -2.0517    1.7950 H   0  0  0  0  0  0  0  0  0  0  0  0
   -4.2309   -2.7237    0.1860 H   0  0  0  0  0  0  0  0  0  0  0  0
   -2.5229   -2.0787    1.2980 C   0  0  0  0  0  0  0  0  0  0  0  0
   -1.5999   -2.7227    1.7810 O   0  0  0  0  0  0  0  0  0  0  0  0
   -2.3659   -0.8447    0.8120 N   0  0  0  0  0  0  0  0  0  0  0  0
   -3.1749   -0.3807    0.4220 H   0  0  0  0  0  0  0  0  0  0  0  0
   -1.0919   -0.1077    0.8170 C   0  0  1  0  0  0  0  0  0  0  0  0
   -0.4136   -0.6011    1.5155 H   0  0  0  0  0  0  0  0  0  0  0  0
   -0.4834   -0.1723   -0.5965 C   0  0  0  0  0  0  0  0  0  0  0  0
   -0.8422    0.6845   -1.1689 H   0  0  0  0  0  0  0  0  0  0  0  0
    0.6036   -0.1010   -0.5227 H   0  0  0  0  0  0  0  0  0  0  0  0
   -0.8558   -1.4529   -1.3593 C   0  0  0  0  0  0  0  0  0  0  0  0
   -0.7498   -2.3164   -0.7014 H   0  0  0  0  0  0  0  0  0  0  0  0
   -1.8931   -1.3838   -1.6926 H   0  0  0  0  0  0  0  0  0  0  0  0
    0.0587   -1.6338   -2.5788 C   0  0  0  0  0  0  0  0  0  0  0  0
   -0.0385   -0.7605   -3.2282 H   0  0  0  0  0  0  0  0  0  0  0  0
    1.0935   -1.7115   -2.2394 H   0  0  0  0  0  0  0  0  0  0  0  0
   -0.3281   -2.8986   -3.3553 C   0  0  0  0  0  0  0  0  0  0  0  0
   -0.2316   -3.7598   -2.6861 H   0  0  0  0  0  0  0  0  0  0  0  0
   -1.3790   -2.8185   -3.6491 H   0  0  0  0  0  0  0  0  0  0  0  0
    0.5265   -3.0852   -4.5551 N   0  3  0  0  0  0  0  0  0  0  0  0
    1.4994   -3.1706   -4.2888 H   0  0  0  0  0  0  0  0  0  0  0  0
    0.2585   -3.9231   -5.0562 H   0  0  0  0  0  0  0  0  0  0  0  0
    0.4340   -2.2946   -5.1821 H   0  0  0  0  0  0  0  0  0  0  0  0
   -1.3103    1.3348    1.2791 C   0  0  0  0  0  0  0  0  0  0  0  0
   -2.2333    1.9891    0.8084 O   0  0  0  0  0  0  0  0  0  0  0  0
   -0.4429    1.8293    2.1683 N   0  0  0  0  0  0  0  0  0  0  0  0
    0.2668    1.2118    2.5263 H   0  0  0  0  0  0  0  0  0  0  0  0
   -0.5118    3.1863    2.7135 C   0  0  0  0  0  0  0  0  0  0  0  0
   -1.4470    3.3159    3.2625 H   0  0  0  0  0  0  0  0  0  0  0  0
    0.3243    3.3682    3.3896 H   0  0  0  0  0  0  0  0  0  0  0  0
   -0.4850    3.9172    1.9023 H   0  0  0  0  0  0  0  0  0  0  0  0
  5  6  2  0  0  0  0
  5  7  1  0  0  0  0
  2  3  1  0  0  0  0
  2  4  1  0  0  0  0
  2  5  1  0  0  0  0
  1  2  1  0  0  0  0
 27 28  2  0  0  0  0
 27 29  1  0  0  0  0
 23 24  1  0  0  0  0
 23 25  1  0  0  0  0
 23 26  1  0  0  0  0
 20 21  1  0  0  0  0
 20 22  1  0  0  0  0
 20 23  1  0  0  0  0
 17 18  1  0  0  0  0
 17 19  1  0  0  0  0
 17 20  1  0  0  0  0
 14 15  1  0  0  0  0
 14 16  1  0  0  0  0
 14 17  1  0  0  0  0
 11 12  1  0  0  0  0
 11 13  1  0  0  0  0
 11 14  1  0  0  0  0
  9 10  1  0  0  0  0
  9 11  1  0  0  0  0
  9 27  1  0  0  0  0
  7  8  1  0  0  0  0
  7  9  1  0  0  0  0
 31 32  1  0  0  0  0
 31 33  1  0  0  0  0
 31 34  1  0  0  0  0
 29 30  1  0  0  0  0
 29 31  1  0  0  0  0
M  CHG  1  23   1
M  END
$$$$
default_name
  -OEChem-02102213163D

 34 33  0     1  0  0  0  0  0999 V2000
   -3.8899   -3.6747    1.6490 H   0  0  0  0  0  0  0  0  0  0  0  0
   -3.9109   -2.6717    1.2250 C   0  0  0  0  0  0  0  0  0  0  0  0
   -4.6009   -2.0517    1.7950 H   0  0  0  0  0  0  0  0  0  0  0  0
   -4.2309   -2.7237    0.1860 H   0  0  0  0  0  0  0  0  0  0  0  0
   -2.5229   -2.0787    1.2980 C   0  0  0  0  0  0  0  0  0  0  0  0
   -1.5999   -2.7227    1.7810 O   0  0  0  0  0  0  0  0  0  0  0  0
   -2.3659   -0.8447    0.8120 N   0  0  0  0  0  0  0  0  0  0  0  0
   -3.1749   -0.3807    0.4220 H   0  0  0  0  0  0  0  0  0  0  0  0
   -1.0919   -0.1077    0.8170 C   0  0  1  0  0  0  0  0  0  0  0  0
   -0.4136   -0.6011    1.5155 H   0  0  0  0  0  0  0  0  0  0  0  0
   -0.4834   -0.1723   -0.5965 C   0  0  0  0  0  0  0  0  0  0  0  0
   -0.8422    0.6845   -1.1689 H   0  0  0  0  0  0  0  0  0  0  0  0
    0.6036   -0.1010   -0.5227 H   0  0  0  0  0  0  0  0  0  0  0  0
   -0.8558   -1.4529   -1.3593 C   0  0  0  0  0  0  0  0  0  0  0  0
   -1.0094   -2.2698   -0.6529 H   0  0  0  0  0  0  0  0  0  0  0  0
   -1.7800   -1.2840   -1.9154 H   0  0  0  0  0  0  0  0  0  0  0  0
    0.2629   -1.8368   -2.3376 C   0  0  0  0  0  0  0  0  0  0  0  0
    0.4245   -1.0107   -3.0343 H   0  0  0  0  0  0  0  0  0  0  0  0
    1.1822   -2.0135   -1.7757 H   0  0  0  0  0  0  0  0  0  0  0  0
   -0.1183   -3.1012   -3.1178 C   0  0  0  0  0  0  0  0  0  0  0  0
   -0.2832   -3.9137   -2.4027 H   0  0  0  0  0  0  0  0  0  0  0  0
   -1.0626   -2.9166   -3.6389 H   0  0  0  0  0  0  0  0  0  0  0  0
    0.9374   -3.4820   -4.0898 N   0  3  0  0  0  0  0  0  0  0  0  0
    1.8112   -3.6643   -3.6123 H   0  0  0  0  0  0  0  0  0  0  0  0
    0.6706   -4.3171   -4.5961 H   0  0  0  0  0  0  0  0  0  0  0  0
    1.0877   -2.7365   -4.7595 H   0  0  0  0  0  0  0  0  0  0  0  0
   -1.3103    1.3348    1.2791 C   0  0  0  0  0  0  0  0  0  0  0  0
   -2.2333    1.9891    0.8084 O   0  0  0  0  0  0  0  0  0  0  0  0
   -0.4429    1.8293    2.1683 N   0  0  0  0  0  0  0  0  0  0  0  0
    0.2668    1.2118    2.5263 H   0  0  0  0  0  0  0  0  0  0  0  0
   -0.5118    3.1863    2.7135 C   0  0  0  0  0  0  0  0  0  0  0  0
   -1.4470    3.3159    3.2625 H   0  0  0  0  0  0  0  0  0  0  0  0
    0.3243    3.3682    3.3896 H   0  0  0  0  0  0  0  0  0  0  0  0
   -0.4850    3.9172    1.9023 H   0  0  0  0  0  0  0  0  0  0  0  0
  5  6  2  0  0  0  0
  5  7  1  0  0  0  0
  2  3  1  0  0  0  0
  2  4  1  0  0  0  0
  2  5  1  0  0  0  0
  1  2  1  0  0  0  0
 27 28  2  0  0  0  0
 27 29  1  0  0  0  0
 23 24  1  0  0  0  0
 23 25  1  0  0  0  0
 23 26  1  0  0  0  0
 20 21  1  0  0  0  0
 20 22  1  0  0  0  0
 20 23  1  0  0  0  0
 17 18  1  0  0  0  0
 17 19  1  0  0  0  0
 17 20  1  0  0  0  0
 14 15  1  0  0  0  0
 14 16  1  0  0  0  0
 14 17  1  0  0  0  0
 11 12  1  0  0  0  0
 11 13  1  0  0  0  0
 11 14  1  0  0  0  0
  9 10  1  0  0  0  0
  9 11  1  0  0  0  0
  9 27  1  0  0  0  0
  7  8  1  0  0  0  0
  7  9  1  0  0  0  0
 31 32  1  0  0  0  0
 31 33  1  0  0  0  0
 31 34  1  0  0  0  0
 29 30  1  0  0  0  0
 29 31  1  0  0  0  0
M  CHG  1  23   1
M  END
$$$$
default_name
  -OEChem-02102213163D

 34 33  0     1  0  0  0  0  0999 V2000
   -3.8899   -3.6747    1.6490 H   0  0  0  0  0  0  0  0  0  0  0  0
   -3.9109   -2.6717    1.2250 C   0  0  0  0  0  0  0  0  0  0  0  0
   -4.6009   -2.0517    1.7950 H   0  0  0  0  0  0  0  0  0  0  0  0
   -4.2309   -2.7237    0.1860 H   0  0  0  0  0  0  0  0  0  0  0  0
   -2.5229   -2.0787    1.2980 C   0  0  0  0  0  0  0  0  0  0  0  0
   -1.5999   -2.7227    1.7810 O   0  0  0  0  0  0  0  0  0  0  0  0
   -2.3659   -0.8447    0.8120 N   0  0  0  0  0  0  0  0  0  0  0  0
   -3.1749   -0.3807    0.4220 H   0  0  0  0  0  0  0  0  0  0  0  0
   -1.0919   -0.1077    0.8170 C   0  0  1  0  0  0  0  0  0  0  0  0
   -0.4136   -0.6011    1.5155 H   0  0  0  0  0  0  0  0  0  0  0  0
   -0.4834   -0.1723   -0.5965 C   0  0  0  0  0  0  0  0  0  0  0  0
   -0.8422    0.6845   -1.1689 H   0  0  0  0  0  0  0  0  0  0  0  0
    0.6036   -0.1010   -0.5227 H   0  0  0  0  0  0  0  0  0  0  0  0
   -0.8558   -1.4529   -1.3593 C   0  0  0  0  0  0  0  0  0  0  0  0
   -1.2645   -2.1883   -0.6651 H   0  0  0  0  0  0  0  0  0  0  0  0
   -1.6098   -1.2161   -2.1125 H   0  0  0  0  0  0  0  0  0  0  0  0
    0.3821   -2.0441   -2.0479 C   0  0  0  0  0  0  0  0  0  0  0  0
    0.7978   -1.2998   -2.7313 H   0  0  0  0  0  0  0  0  0  0  0  0
    1.1291   -2.2876   -1.2897 H   0  0  0  0  0  0  0  0  0  0  0  0
    0.0070   -3.3088   -2.8303 C   0  0  0  0  0  0  0  0  0  0  0  0
   -0.4140   -4.0379   -2.1303 H   0  0  0  0  0  0  0  0  0  0  0  0
   -0.7717   -3.0514   -3.5546 H   0  0  0  0  0  0  0  0  0  0  0  0
    1.1830   -3.8888   -3.5268 N   0  3  0  0  0  0  0  0  0  0  0  0
    1.9031   -4.1388   -2.8606 H   0  0  0  0  0  0  0  0  0  0  0  0
    0.9189   -4.7216   -4.0382 H   0  0  0  0  0  0  0  0  0  0  0  0
    1.5711   -3.2208   -4.1825 H   0  0  0  0  0  0  0  0  0  0  0  0
   -1.3103    1.3348    1.2791 C   0  0  0  0  0  0  0  0  0  0  0  0
   -2.2333    1.9891    0.8084 O   0  0  0  0  0  0  0  0  0  0  0  0
   -0.4429    1.8293    2.1683 N   0  0  0  0  0  0  0  0  0  0  0  0
    0.2668    1.2118    2.5263 H   0  0  0  0  0  0  0  0  0  0  0  0
   -0.5118    3.1863    2.7135 C   0  0  0  0  0  0  0  0  0  0  0  0
   -1.4470    3.3159    3.2625 H   0  0  0  0  0  0  0  0  0  0  0  0
    0.3243    3.3682    3.3896 H   0  0  0  0  0  0  0  0  0  0  0  0
   -0.4850    3.9172    1.9023 H   0  0  0  0  0  0  0  0  0  0  0  0
  5  6  2  0  0  0  0
  5  7  1  0  0  0  0
  2  3  1  0  0  0  0
  2  4  1  0  0  0  0
  2  5  1  0  0  0  0
  1  2  1  0  0  0  0
 27 28  2  0  0  0  0
 27 29  1  0  0  0  0
 23 24  1  0  0  0  0
 23 25  1  0  0  0  0
 23 26  1  0  0  0  0
 20 21  1  0  0  0  0
 20 22  1  0  0  0  0
 20 23  1  0  0  0  0
 17 18  1  0  0  0  0
 17 19  1  0  0  0  0
 17 20  1  0  0  0  0
 14 15  1  0  0  0  0
 14 16  1  0  0  0  0
 14 17  1  0  0  0  0
 11 12  1  0  0  0  0
 11 13  1  0  0  0  0
 11 14  1  0  0  0  0
  9 10  1  0  0  0  0
  9 11  1  0  0  0  0
  9 27  1  0  0  0  0
  7  8  1  0  0  0  0
  7  9  1  0  0  0  0
 31 32  1  0  0  0  0
 31 33  1  0  0  0  0
 31 34  1  0  0  0  0
 29 30  1  0  0  0  0
 29 31  1  0  0  0  0
M  CHG  1  23   1
M  END
$$$$
default_name
  -OEChem-02102213163D

 34 33  0     1  0  0  0  0  0999 V2000
   -3.8899   -3.6747    1.6490 H   0  0  0  0  0  0  0  0  0  0  0  0
   -3.9109   -2.6717    1.2250 C   0  0  0  0  0  0  0  0  0  0  0  0
   -4.6009   -2.0517    1.7950 H   0  0  0  0  0  0  0  0  0  0  0  0
   -4.2309   -2.7237    0.1860 H   0  0  0  0  0  0  0  0  0  0  0  0
   -2.5229   -2.0787    1.2980 C   0  0  0  0  0  0  0  0  0  0  0  0
   -1.5999   -2.7227    1.7810 O   0  0  0  0  0  0  0  0  0  0  0  0
   -2.3659   -0.8447    0.8120 N   0  0  0  0  0  0  0  0  0  0  0  0
   -3.1749   -0.3807    0.4220 H   0  0  0  0  0  0  0  0  0  0  0  0
   -1.0919   -0.1077    0.8170 C   0  0  1  0  0  0  0  0  0  0  0  0
   -0.4136   -0.6011    1.5155 H   0  0  0  0  0  0  0  0  0  0  0  0
   -0.4834   -0.1723   -0.5965 C   0  0  0  0  0  0  0  0  0  0  0  0
   -0.8422    0.6845   -1.1689 H   0  0  0  0  0  0  0  0  0  0  0  0
    0.6036   -0.1010   -0.5227 H   0  0  0  0  0  0  0  0  0  0  0  0
   -0.8558   -1.4529   -1.3593 C   0  0  0  0  0  0  0  0  0  0  0  0
   -1.4979   -2.0776   -0.7370 H   0  0  0  0  0  0  0  0  0  0  0  0
   -1.3942   -1.1847   -2.2705 H   0  0  0  0  0  0  0  0  0  0  0  0
    0.4081   -2.2414   -1.7293 C   0  0  0  0  0  0  0  0  0  0  0  0
    1.0558   -1.6079   -2.3400 H   0  0  0  0  0  0  0  0  0  0  0  0
    0.9377   -2.5149   -0.8146 H   0  0  0  0  0  0  0  0  0  0  0  0
    0.0393   -3.5075   -2.5126 C   0  0  0  0  0  0  0  0  0  0  0  0
   -0.6150   -4.1240   -1.8876 H   0  0  0  0  0  0  0  0  0  0  0  0
   -0.5263   -3.2137   -3.4020 H   0  0  0  0  0  0  0  0  0  0  0  0
    1.2465   -4.2780   -2.9045 N   0  3  0  0  0  0  0  0  0  0  0  0
    1.7686   -4.5617   -2.0849 H   0  0  0  0  0  0  0  0  0  0  0  0
    0.9863   -5.1093   -3.4203 H   0  0  0  0  0  0  0  0  0  0  0  0
    1.8514   -3.7145   -3.4906 H   0  0  0  0  0  0  0  0  0  0  0  0
   -1.3103    1.3348    1.2791 C   0  0  0  0  0  0  0  0  0  0  0  0
   -2.2333    1.9891    0.8084 O   0  0  0  0  0  0  0  0  0  0  0  0
   -0.4429    1.8293    2.1683 N   0  0  0  0  0  0  0  0  0  0  0  0
    0.2668    1.2118    2.5263 H   0  0  0  0  0  0  0  0  0  0  0  0
   -0.5118    3.1863    2.7135 C   0  0  0  0  0  0  0  0  0  0  0  0
   -1.4470    3.3159    3.2625 H   0  0  0  0  0  0  0  0  0  0  0  0
    0.3243    3.3682    3.3896 H   0  0  0  0  0  0  0  0  0  0  0  0
   -0.4850    3.9172    1.9023 H   0  0  0  0  0  0  0  0  0  0  0  0
  5  6  2  0  0  0  0
  5  7  1  0  0  0  0
  2  3  1  0  0  0  0
  2  4  1  0  0  0  0
  2  5  1  0  0  0  0
  1  2  1  0  0  0  0
 27 28  2  0  0  0  0
 27 29  1  0  0  0  0
 23 24  1  0  0  0  0
 23 25  1  0  0  0  0
 23 26  1  0  0  0  0
 20 21  1  0  0  0  0
 20 22  1  0  0  0  0
 20 23  1  0  0  0  0
 17 18  1  0  0  0  0
 17 19  1  0  0  0  0
 17 20  1  0  0  0  0
 14 15  1  0  0  0  0
 14 16  1  0  0  0  0
 14 17  1  0  0  0  0
 11 12  1  0  0  0  0
 11 13  1  0  0  0  0
 11 14  1  0  0  0  0
  9 10  1  0  0  0  0
  9 11  1  0  0  0  0
  9 27  1  0  0  0  0
  7  8  1  0  0  0  0
  7  9  1  0  0  0  0
 31 32  1  0  0  0  0
 31 33  1  0  0  0  0
 31 34  1  0  0  0  0
 29 30  1  0  0  0  0
 29 31  1  0  0  0  0
M  CHG  1  23   1
M  END
$$$$
default_name
  -OEChem-02102213163D

 34 33  0     1  0  0  0  0  0999 V2000
   -3.8899   -3.6747    1.6490 H   0  0  0  0  0  0  0  0  0  0  0  0
   -3.9109   -2.6717    1.2250 C   0  0  0  0  0  0  0  0  0  0  0  0
   -4.6009   -2.0517    1.7950 H   0  0  0  0  0  0  0  0  0  0  0  0
   -4.2309   -2.7237    0.1860 H   0  0  0  0  0  0  0  0  0  0  0  0
   -2.5229   -2.0787    1.2980 C   0  0  0  0  0  0  0  0  0  0  0  0
   -1.5999   -2.7227    1.7810 O   0  0  0  0  0  0  0  0  0  0  0  0
   -2.3659   -0.8447    0.8120 N   0  0  0  0  0  0  0  0  0  0  0  0
   -3.1749   -0.3807    0.4220 H   0  0  0  0  0  0  0  0  0  0  0  0
   -1.0919   -0.1077    0.8170 C   0  0  1  0  0  0  0  0  0  0  0  0
   -0.4136   -0.6011    1.5155 H   0  0  0  0  0  0  0  0  0  0  0  0
   -0.4834   -0.1723   -0.5965 C   0  0  0  0  0  0  0  0  0  0  0  0
   -0.8422    0.6845   -1.1689 H   0  0  0  0  0  0  0  0  0  0  0  0
    0.6036   -0.1010   -0.5227 H   0  0  0  0  0  0  0  0  0  0  0  0
   -0.8558   -1.4529   -1.3593 C   0  0  0  0  0  0  0  0  0  0  0  0
   -1.6936   -1.9452   -0.8637 H   0  0  0  0  0  0  0  0  0  0  0  0
   -1.1478   -1.1921   -2.3784 H   0  0  0  0  0  0  0  0  0  0  0  0
    0.3391   -2.4153   -1.4037 C   0  0  0  0  0  0  0  0  0  0  0  0
    1.1811   -1.9141   -1.8871 H   0  0  0  0  0  0  0  0  0  0  0  0
    0.6211   -2.6802   -0.3827 H   0  0  0  0  0  0  0  0  0  0  0  0
   -0.0235   -3.6836   -2.1863 C   0  0  0  0  0  0  0  0  0  0  0  0
   -0.8725   -4.1661   -1.6912 H   0  0  0  0  0  0  0  0  0  0  0  0
   -0.3430   -3.3924   -3.1915 H   0  0  0  0  0  0  0  0  0  0  0  0
    1.1236   -4.6230   -2.2652 N   0  3  0  0  0  0  0  0  0  0  0  0
    1.4171   -4.9044   -1.3381 H   0  0  0  0  0  0  0  0  0  0  0  0
    0.8683   -5.4537   -2.7845 H   0  0  0  0  0  0  0  0  0  0  0  0
    1.9094   -4.1840   -2.7307 H   0  0  0  0  0  0  0  0  0  0  0  0
   -1.3103    1.3348    1.2791 C   0  0  0  0  0  0  0  0  0  0  0  0
   -2.2333    1.9891    0.8084 O   0  0  0  0  0  0  0  0  0  0  0  0
   -0.4429    1.8293    2.1683 N   0  0  0  0  0  0  0  0  0  0  0  0
    0.2668    1.2118    2.5263 H   0  0  0  0  0  0  0  0  0  0  0  0
   -0.5118    3.1863    2.7135 C   0  0  0  0  0  0  0  0  0  0  0  0
   -1.4470    3.3159    3.2625 H   0  0  0  0  0  0  0  0  0  0  0  0
    0.3243    3.3682    3.3896 H   0  0  0  0  0  0  0  0  0  0  0  0
   -0.4850    3.9172    1.9023 H   0  0  0  0  0  0  0  0  0  0  0  0
  5  6  2  0  0  0  0
  5  7  1  0  0  0  0
  2  3  1  0  0  0  0
  2  4  1  0  0  0  0
  2  5  1  0  0  0  0
  1  2  1  0  0  0  0
 27 28  2  0  0  0  0
 27 29  1  0  0  0  0
 23 24  1  0  0  0  0
 23 25  1  0  0  0  0
 23 26  1  0  0  0  0
 20 21  1  0  0  0  0
 20 22  1  0  0  0  0
 20 23  1  0  0  0  0
 17 18  1  0  0  0  0
 17 19  1  0  0  0  0
 17 20  1  0  0  0  0
 14 15  1  0  0  0  0
 14 16  1  0  0  0  0
 14 17  1  0  0  0  0
 11 12  1  0  0  0  0
 11 13  1  0  0  0  0
 11 14  1  0  0  0  0
  9 10  1  0  0  0  0
  9 11  1  0  0  0  0
  9 27  1  0  0  0  0
  7  8  1  0  0  0  0
  7  9  1  0  0  0  0
 31 32  1  0  0  0  0
 31 33  1  0  0  0  0
 31 34  1  0  0  0  0
 29 30  1  0  0  0  0
 29 31  1  0  0  0  0
M  CHG  1  23   1
M  END
$$$$
default_name
  -OEChem-02102213163D

 34 33  0     1  0  0  0  0  0999 V2000
   -3.8899   -3.6747    1.6490 H   0  0  0  0  0  0  0  0  0  0  0  0
   -3.9109   -2.6717    1.2250 C   0  0  0  0  0  0  0  0  0  0  0  0
   -4.6009   -2.0517    1.7950 H   0  0  0  0  0  0  0  0  0  0  0  0
   -4.2309   -2.7237    0.1860 H   0  0  0  0  0  0  0  0  0  0  0  0
   -2.5229   -2.0787    1.2980 C   0  0  0  0  0  0  0  0  0  0  0  0
   -1.5999   -2.7227    1.7810 O   0  0  0  0  0  0  0  0  0  0  0  0
   -2.3659   -0.8447    0.8120 N   0  0  0  0  0  0  0  0  0  0  0  0
   -3.1749   -0.3807    0.4220 H   0  0  0  0  0  0  0  0  0  0  0  0
   -1.0919   -0.1077    0.8170 C   0  0  1  0  0  0  0  0  0  0  0  0
   -0.4136   -0.6011    1.5155 H   0  0  0  0  0  0  0  0  0  0  0  0
   -0.4834   -0.1723   -0.5965 C   0  0  0  0  0  0  0  0  0  0  0  0
   -0.8422    0.6845   -1.1689 H   0  0  0  0  0  0  0  0  0  0  0  0
    0.6036   -0.1010   -0.5227 H   0  0  0  0  0  0  0  0  0  0  0  0
   -0.8558   -1.4529   -1.3593 C   0  0  0  0  0  0  0  0  0  0  0  0
   -1.8383   -1.8001   -1.0367 H   0  0  0  0  0  0  0  0  0  0  0  0
   -0.8874   -1.2376   -2.4291 H   0  0  0  0  0  0  0  0  0  0  0  0
    0.1798   -2.5541   -1.0930 C   0  0  0  0  0  0  0  0  0  0  0  0
    1.1650   -2.1976   -1.4034 H   0  0  0  0  0  0  0  0  0  0  0  0
    0.2009   -2.7720   -0.0234 H   0  0  0  0  0  0  0  0  0  0  0  0
   -0.1772   -3.8252   -1.8736 C   0  0  0  0  0  0  0  0  0  0  0  0
   -1.1691   -4.1613   -1.5544 H   0  0  0  0  0  0  0  0  0  0  0  0
   -0.2343   -3.5754   -2.9374 H   0  0  0  0  0  0  0  0  0  0  0  0
    0.8226   -4.9004   -1.6527 N   0  3  0  0  0  0  0  0  0  0  0  0
    0.8724   -5.1433   -0.6711 H   0  0  0  0  0  0  0  0  0  0  0  0
    0.5729   -5.7313   -2.1743 H   0  0  0  0  0  0  0  0  0  0  0  0
    1.7411   -4.5973   -1.9548 H   0  0  0  0  0  0  0  0  0  0  0  0
   -1.3103    1.3348    1.2791 C   0  0  0  0  0  0  0  0  0  0  0  0
   -2.2333    1.9891    0.8084 O   0  0  0  0  0  0  0  0  0  0  0  0
   -0.4429    1.8293    2.1683 N   0  0  0  0  0  0  0  0  0  0  0  0
    0.2668    1.2118    2.5263 H   0  0  0  0  0  0  0  0  0  0  0  0
   -0.5118    3.1863    2.7135 C   0  0  0  0  0  0  0  0  0  0  0  0
   -1.4470    3.3159    3.2625 H   0  0  0  0  0  0  0  0  0  0  0  0
    0.3243    3.3682    3.3896 H   0  0  0  0  0  0  0  0  0  0  0  0
   -0.4850    3.9172    1.9023 H   0  0  0  0  0  0  0  0  0  0  0  0
  5  6  2  0  0  0  0
  5  7  1  0  0  0  0
  2  3  1  0  0  0  0
  2  4  1  0  0  0  0
  2  5  1  0  0  0  0
  1  2  1  0  0  0  0
 27 28  2  0  0  0  0
 27 29  1  0  0  0  0
 23 24  1  0  0  0  0
 23 25  1  0  0  0  0
 23 26  1  0  0  0  0
 20 21  1  0  0  0  0
 20 22  1  0  0  0  0
 20 23  1  0  0  0  0
 17 18  1  0  0  0  0
 17 19  1  0  0  0  0
 17 20  1  0  0  0  0
 14 15  1  0  0  0  0
 14 16  1  0  0  0  0
 14 17  1  0  0  0  0
 11 12  1  0  0  0  0
 11 13  1  0  0  0  0
 11 14  1  0  0  0  0
  9 10  1  0  0  0  0
  9 11  1  0  0  0  0
  9 27  1  0  0  0  0
  7  8  1  0  0  0  0
  7  9  1  0  0  0  0
 31 32  1  0  0  0  0
 31 33  1  0  0  0  0
 31 34  1  0  0  0  0
 29 30  1  0  0  0  0
 29 31  1  0  0  0  0
M  CHG  1  23   1
M  END
$$$$
default_name
  -OEChem-02102213163D

 34 33  0     1  0  0  0  0  0999 V2000
   -3.8899   -3.6747    1.6490 H   0  0  0  0  0  0  0  0  0  0  0  0
   -3.9109   -2.6717    1.2250 C   0  0  0  0  0  0  0  0  0  0  0  0
   -4.6009   -2.0517    1.7950 H   0  0  0  0  0  0  0  0  0  0  0  0
   -4.2309   -2.7237    0.1860 H   0  0  0  0  0  0  0  0  0  0  0  0
   -2.5229   -2.0787    1.2980 C   0  0  0  0  0  0  0  0  0  0  0  0
   -1.5999   -2.7227    1.7810 O   0  0  0  0  0  0  0  0  0  0  0  0
   -2.3659   -0.8447    0.8120 N   0  0  0  0  0  0  0  0  0  0  0  0
   -3.1749   -0.3807    0.4220 H   0  0  0  0  0  0  0  0  0  0  0  0
   -1.0919   -0.1077    0.8170 C   0  0  1  0  0  0  0  0  0  0  0  0
   -0.4136   -0.6011    1.5155 H   0  0  0  0  0  0  0  0  0  0  0  0
   -0.4834   -0.1723   -0.5965 C   0  0  0  0  0  0  0  0  0  0  0  0
   -0.8422    0.6845   -1.1689 H   0  0  0  0  0  0  0  0  0  0  0  0
    0.6036   -0.1010   -0.5227 H   0  0  0  0  0  0  0  0  0  0  0  0
   -0.8558   -1.4529   -1.3593 C   0  0  0  0  0  0  0  0  0  0  0  0
   -1.9221   -1.6522   -1.2440 H   0  0  0  0  0  0  0  0  0  0  0  0
   -0.6309   -1.3182   -2.4191 H   0  0  0  0  0  0  0  0  0  0  0  0
   -0.0588   -2.6481   -0.8187 C   0  0  0  0  0  0  0  0  0  0  0  0
    1.0086   -2.4390   -0.9218 H   0  0  0  0  0  0  0  0  0  0  0  0
   -0.2943   -2.7841    0.2388 H   0  0  0  0  0  0  0  0  0  0  0  0
   -0.4114   -3.9226   -1.5958 C   0  0  0  0  0  0  0  0  0  0  0  0
   -1.4845   -4.1100   -1.4865 H   0  0  0  0  0  0  0  0  0  0  0  0
   -0.2077   -3.7502   -2.6570 H   0  0  0  0  0  0  0  0  0  0  0  0
    0.3641   -5.0912   -1.1085 N   0  3  0  0  0  0  0  0  0  0  0  0
    0.1717   -5.2622   -0.1294 H   0  0  0  0  0  0  0  0  0  0  0  0
    0.1203   -5.9232   -1.6312 H   0  0  0  0  0  0  0  0  0  0  0  0
    1.3581   -4.9262   -1.2157 H   0  0  0  0  0  0  0  0  0  0  0  0
   -1.3103    1.3348    1.2791 C   0  0  0  0  0  0  0  0  0  0  0  0
   -2.2333    1.9891    0.8084 O   0  0  0  0  0  0  0  0  0  0  0  0
   -0.4429    1.8293    2.1683 N   0  0  0  0  0  0  0  0  0  0  0  0
    0.2668    1.2118    2.5263 H   0  0  0  0  0  0  0  0  0  0  0  0
   -0.5118    3.1863    2.7135 C   0  0  0  0  0  0  0  0  0  0  0  0
   -1.4470    3.3159    3.2625 H   0  0  0  0  0  0  0  0  0  0  0  0
    0.3243    3.3682    3.3896 H   0  0  0  0  0  0  0  0  0  0  0  0
   -0.4850    3.9172    1.9023 H   0  0  0  0  0  0  0  0  0  0  0  0
  5  6  2  0  0  0  0
  5  7  1  0  0  0  0
  2  3  1  0  0  0  0
  2  4  1  0  0  0  0
  2  5  1  0  0  0  0
  1  2  1  0  0  0  0
 27 28  2  0  0  0  0
 27 29  1  0  0  0  0
 23 24  1  0  0  0  0
 23 25  1  0  0  0  0
 23 26  1  0  0  0  0
 20 21  1  0  0  0  0
 20 22  1  0  0  0  0
 20 23  1  0  0  0  0
 17 18  1  0  0  0  0
 17 19  1  0  0  0  0
 17 20  1  0  0  0  0
 14 15  1  0  0  0  0
 14 16  1  0  0  0  0
 14 17  1  0  0  0  0
 11 12  1  0  0  0  0
 11 13  1  0  0  0  0
 11 14  1  0  0  0  0
  9 10  1  0  0  0  0
  9 11  1  0  0  0  0
  9 27  1  0  0  0  0
  7  8  1  0  0  0  0
  7  9  1  0  0  0  0
 31 32  1  0  0  0  0
 31 33  1  0  0  0  0
 31 34  1  0  0  0  0
 29 30  1  0  0  0  0
 29 31  1  0  0  0  0
M  CHG  1  23   1
M  END
$$$$
default_name
  -OEChem-02102213163D

 34 33  0     1  0  0  0  0  0999 V2000
   -3.8899   -3.6747    1.6490 H   0  0  0  0  0  0  0  0  0  0  0  0
   -3.9109   -2.6717    1.2250 C   0  0  0  0  0  0  0  0  0  0  0  0
   -4.6009   -2.0517    1.7950 H   0  0  0  0  0  0  0  0  0  0  0  0
   -4.2309   -2.7237    0.1860 H   0  0  0  0  0  0  0  0  0  0  0  0
   -2.5229   -2.0787    1.2980 C   0  0  0  0  0  0  0  0  0  0  0  0
   -1.5999   -2.7227    1.7810 O   0  0  0  0  0  0  0  0  0  0  0  0
   -2.3659   -0.8447    0.8120 N   0  0  0  0  0  0  0  0  0  0  0  0
   -3.1749   -0.3807    0.4220 H   0  0  0  0  0  0  0  0  0  0  0  0
   -1.0919   -0.1077    0.8170 C   0  0  1  0  0  0  0  0  0  0  0  0
   -0.4136   -0.6011    1.5155 H   0  0  0  0  0  0  0  0  0  0  0  0
   -0.4834   -0.1723   -0.5965 C   0  0  0  0  0  0  0  0  0  0  0  0
   -0.8422    0.6845   -1.1689 H   0  0  0  0  0  0  0  0  0  0  0  0
    0.6036   -0.1010   -0.5227 H   0  0  0  0  0  0  0  0  0  0  0  0
   -0.8558   -1.4529   -1.3593 C   0  0  0  0  0  0  0  0  0  0  0  0
   -1.9392   -1.5116   -1.4717 H   0  0  0  0  0  0  0  0  0  0  0  0
   -0.3956   -1.4284   -2.3490 H   0  0  0  0  0  0  0  0  0  0  0  0
   -0.3606   -2.6910   -0.5992 C   0  0  0  0  0  0  0  0  0  0  0  0
    0.7227   -2.6219   -0.4752 H   0  0  0  0  0  0  0  0  0  0  0  0
   -0.8308   -2.7157    0.3859 H   0  0  0  0  0  0  0  0  0  0  0  0
   -0.7099   -3.9691   -1.3719 C   0  0  0  0  0  0  0  0  0  0  0  0
   -1.7972   -4.0157   -1.4922 H   0  0  0  0  0  0  0  0  0  0  0  0
   -0.2649   -3.9049   -2.3694 H   0  0  0  0  0  0  0  0  0  0  0  0
   -0.2207   -5.1824   -0.6698 N   0  3  0  0  0  0  0  0  0  0  0  0
   -0.6373   -5.2530    0.2502 H   0  0  0  0  0  0  0  0  0  0  0  0
   -0.4587   -6.0163   -1.1922 H   0  0  0  0  0  0  0  0  0  0  0  0
    0.7865   -5.1483   -0.5637 H   0  0  0  0  0  0  0  0  0  0  0  0
   -1.3103    1.3348    1.2791 C   0  0  0  0  0  0  0  0  0  0  0  0
   -2.2333    1.9891    0.8084 O   0  0  0  0  0  0  0  0  0  0  0  0
   -0.4429    1.8293    2.1683 N   0  0  0  0  0  0  0  0  0  0  0  0
    0.2668    1.2118    2.5263 H   0  0  0  0  0  0  0  0  0  0  0  0
   -0.5118    3.1863    2.7135 C   0  0  0  0  0  0  0  0  0  0  0  0
   -1.4470    3.3159    3.2625 H   0  0  0  0  0  0  0  0  0  0  0  0
    0.3243    3.3682    3.3896 H   0  0  0  0  0  0  0  0  0  0  0  0
   -0.4850    3.9172    1.9023 H   0  0  0  0  0  0  0  0  0  0  0  0
  5  6  2  0  0  0  0
  5  7  1  0  0  0  0
  2  3  1  0  0  0  0
  2  4  1  0  0  0  0
  2  5  1  0  0  0  0
  1  2  1  0  0  0  0
 27 28  2  0  0  0  0
 27 29  1  0  0  0  0
 23 24  1  0  0  0  0
 23 25  1  0  0  0  0
 23 26  1  0  0  0  0
 20 21  1  0  0  0  0
 20 22  1  0  0  0  0
 20 23  1  0  0  0  0
 17 18  1  0  0  0  0
 17 19  1  0  0  0  0
 17 20  1  0  0  0  0
 14 15  1  0  0  0  0
 14 16  1  0  0  0  0
 14 17  1  0  0  0  0
 11 12  1  0  0  0  0
 11 13  1  0  0  0  0
 11 14  1  0  0  0  0
  9 10  1  0  0  0  0
  9 11  1  0  0  0  0
  9 27  1  0  0  0  0
  7  8  1  0  0  0  0
  7  9  1  0  0  0  0
 31 32  1  0  0  0  0
 31 33  1  0  0  0  0
 31 34  1  0  0  0  0
 29 30  1  0  0  0  0
 29 31  1  0  0  0  0
M  CHG  1  23   1
M  END
$$$$
default_name
  -OEChem-02102213163D

 34 33  0     1  0  0  0  0  0999 V2000
   -3.8899   -3.6747    1.6490 H   0  0  0  0  0  0  0  0  0  0  0  0
   -3.9109   -2.6717    1.2250 C   0  0  0  0  0  0  0  0  0  0  0  0
   -4.6009   -2.0517    1.7950 H   0  0  0  0  0  0  0  0  0  0  0  0
   -4.2309   -2.7237    0.1860 H   0  0  0  0  0  0  0  0  0  0  0  0
   -2.5229   -2.0787    1.2980 C   0  0  0  0  0  0  0  0  0  0  0  0
   -1.5999   -2.7227    1.7810 O   0  0  0  0  0  0  0  0  0  0  0  0
   -2.3659   -0.8447    0.8120 N   0  0  0  0  0  0  0  0  0  0  0  0
   -3.1749   -0.3807    0.4220 H   0  0  0  0  0  0  0  0  0  0  0  0
   -1.0919   -0.1077    0.8170 C   0  0  1  0  0  0  0  0  0  0  0  0
   -0.4136   -0.6011    1.5155 H   0  0  0  0  0  0  0  0  0  0  0  0
   -0.4834   -0.1723   -0.5965 C   0  0  0  0  0  0  0  0  0  0  0  0
   -0.8422    0.6845   -1.1689 H   0  0  0  0  0  0  0  0  0  0  0  0
    0.6036   -0.1010   -0.5227 H   0  0  0  0  0  0  0  0  0  0  0  0
   -0.8558   -1.4529   -1.3593 C   0  0  0  0  0  0  0  0  0  0  0  0
   -1.8887   -1.3878   -1.7041 H   0  0  0  0  0  0  0  0  0  0  0  0
   -0.1976   -1.5607   -2.2236 H   0  0  0  0  0  0  0  0  0  0  0  0
   -0.7050   -2.6800   -0.4496 C   0  0  0  0  0  0  0  0  0  0  0  0
    0.3267   -2.7338   -0.0940 H   0  0  0  0  0  0  0  0  0  0  0  0
   -1.3719   -2.5715    0.4080 H   0  0  0  0  0  0  0  0  0  0  0  0
   -1.0526   -3.9616   -1.2171 C   0  0  0  0  0  0  0  0  0  0  0  0
   -2.0859   -3.8848   -1.5710 H   0  0  0  0  0  0  0  0  0  0  0  0
   -0.4021   -4.0288   -2.0943 H   0  0  0  0  0  0  0  0  0  0  0  0
   -0.8920   -5.1679   -0.3664 N   0  3  0  0  0  0  0  0  0  0  0  0
   -1.4994   -5.1164    0.4418 H   0  0  0  0  0  0  0  0  0  0  0  0
   -1.1247   -6.0043   -0.8872 H   0  0  0  0  0  0  0  0  0  0  0  0
    0.0651   -5.2484   -0.0434 H   0  0  0  0  0  0  0  0  0  0  0  0
   -1.3103    1.3348    1.2791 C   0  0  0  0  0  0  0  0  0  0  0  0
   -2.2333    1.9891    0.8084 O   0  0  0  0  0  0  0  0  0  0  0  0
   -0.4429    1.8293    2.1683 N   0  0  0  0  0  0  0  0  0  0  0  0
    0.2668    1.2118    2.5263 H   0  0  0  0  0  0  0  0  0  0  0  0
   -0.5118    3.1863    2.7135 C   0  0  0  0  0  0  0  0  0  0  0  0
   -1.4470    3.3159    3.2625 H   0  0  0  0  0  0  0  0  0  0  0  0
    0.3243    3.3682    3.3896 H   0  0  0  0  0  0  0  0  0  0  0  0
   -0.4850    3.9172    1.9023 H   0  0  0  0  0  0  0  0  0  0  0  0
  5  6  2  0  0  0  0
  5  7  1  0  0  0  0
  2  3  1  0  0  0  0
  2  4  1  0  0  0  0
  2  5  1  0  0  0  0
  1  2  1  0  0  0  0
 27 28  2  0  0  0  0
 27 29  1  0  0  0  0
 23 24  1  0  0  0  0
 23 25  1  0  0  0  0
 23 26  1  0  0  0  0
 20 21  1  0  0  0  0
 20 22  1  0  0  0  0
 20 23  1  0  0  0  0
 17 18  1  0  0  0  0
 17 19  1  0  0  0  0
 17 20  1  0  0  0  0
 14 15  1  0  0  0  0
 14 16  1  0  0  0  0
 14 17  1  0  0  0  0
 11 12  1  0  0  0  0
 11 13  1  0  0  0  0
 11 14  1  0  0  0  0
  9 10  1  0  0  0  0
  9 11  1  0  0  0  0
  9 27  1  0  0  0  0
  7  8  1  0  0  0  0
  7  9  1  0  0  0  0
 31 32  1  0  0  0  0
 31 33  1  0  0  0  0
 31 34  1  0  0  0  0
 29 30  1  0  0  0  0
 29 31  1  0  0  0  0
M  CHG  1  23   1
M  END
$$$$
default_name
  -OEChem-02102213163D

 34 33  0     1  0  0  0  0  0999 V2000
   -3.8899   -3.6747    1.6490 H   0  0  0  0  0  0  0  0  0  0  0  0
   -3.9109   -2.6717    1.2250 C   0  0  0  0  0  0  0  0  0  0  0  0
   -4.6009   -2.0517    1.7950 H   0  0  0  0  0  0  0  0  0  0  0  0
   -4.2309   -2.7237    0.1860 H   0  0  0  0  0  0  0  0  0  0  0  0
   -2.5229   -2.0787    1.2980 C   0  0  0  0  0  0  0  0  0  0  0  0
   -1.5999   -2.7227    1.7810 O   0  0  0  0  0  0  0  0  0  0  0  0
   -2.3659   -0.8447    0.8120 N   0  0  0  0  0  0  0  0  0  0  0  0
   -3.1749   -0.3807    0.4220 H   0  0  0  0  0  0  0  0  0  0  0  0
   -1.0919   -0.1077    0.8170 C   0  0  1  0  0  0  0  0  0  0  0  0
   -0.4136   -0.6011    1.5155 H   0  0  0  0  0  0  0  0  0  0  0  0
   -0.4834   -0.1723   -0.5965 C   0  0  0  0  0  0  0  0  0  0  0  0
   -0.8422    0.6845   -1.1689 H   0  0  0  0  0  0  0  0  0  0  0  0
    0.6036   -0.1010   -0.5227 H   0  0  0  0  0  0  0  0  0  0  0  0
   -0.8558   -1.4529   -1.3593 C   0  0  0  0  0  0  0  0  0  0  0  0
   -1.7738   -1.2894   -1.9255 H   0  0  0  0  0  0  0  0  0  0  0  0
   -0.0504   -1.7060   -2.0515 H   0  0  0  0  0  0  0  0  0  0  0  0
   -1.0685   -2.6156   -0.3801 C   0  0  0  0  0  0  0  0  0  0  0  0
   -0.1524   -2.7671    0.1958 H   0  0  0  0  0  0  0  0  0  0  0  0
   -1.8808   -2.3613    0.3036 H   0  0  0  0  0  0  0  0  0  0  0  0
   -1.4161   -3.9007   -1.1420 C   0  0  0  0  0  0  0  0  0  0  0  0
   -2.3309   -3.7261   -1.7177 H   0  0  0  0  0  0  0  0  0  0  0  0
   -0.6098   -4.1137   -1.8504 H   0  0  0  0  0  0  0  0  0  0  0  0
   -1.6039   -5.0485   -0.2192 N   0  3  0  0  0  0  0  0  0  0  0  0
   -2.3559   -4.8616    0.4323 H   0  0  0  0  0  0  0  0  0  0  0  0
   -1.8322   -5.8880   -0.7370 H   0  0  0  0  0  0  0  0  0  0  0  0
   -0.7568   -5.2198    0.3099 H   0  0  0  0  0  0  0  0  0  0  0  0
   -1.3103    1.3348    1.2791 C   0  0  0  0  0  0  0  0  0  0  0  0
   -2.2333    1.9891    0.8084 O   0  0  0  0  0  0  0  0  0  0  0  0
   -0.4429    1.8293    2.1683 N   0  0  0  0  0  0  0  0  0  0  0  0
    0.2668    1.2118    2.5263 H   0  0  0  0  0  0  0  0  0  0  0  0
   -0.5118    3.1863    2.7135 C   0  0  0  0  0  0  0  0  0  0  0  0
   -1.4470    3.3159    3.2625 H   0  0  0  0  0  0  0  0  0  0  0  0
    0.3243    3.3682    3.3896 H   0  0  0  0  0  0  0  0  0  0  0  0
   -0.4850    3.9172    1.9023 H   0  0  0  0  0  0  0  0  0  0  0  0
  5  6  2  0  0  0  0
  5  7  1  0  0  0  0
  2  3  1  0  0  0  0
  2  4  1  0  0  0  0
  2  5  1  0  0  0  0
  1  2  1  0  0  0  0
 27 28  2  0  0  0  0
 27 29  1  0  0  0  0
 23 24  1  0  0  0  0
 23 25  1  0  0  0  0
 23 26  1  0  0  0  0
 20 21  1  0  0  0  0
 20 22  1  0  0  0  0
 20 23  1  0  0  0  0
 17 18  1  0  0  0  0
 17 19  1  0  0  0  0
 17 20  1  0  0  0  0
 14 15  1  0  0  0  0
 14 16  1  0  0  0  0
 14 17  1  0  0  0  0
 11 12  1  0  0  0  0
 11 13  1  0  0  0  0
 11 14  1  0  0  0  0
  9 10  1  0  0  0  0
  9 11  1  0  0  0  0
  9 27  1  0  0  0  0
  7  8  1  0  0  0  0
  7  9  1  0  0  0  0
 31 32  1  0  0  0  0
 31 33  1  0  0  0  0
 31 34  1  0  0  0  0
 29 30  1  0  0  0  0
 29 31  1  0  0  0  0
M  CHG  1  23   1
M  END
$$$$
default_name
  -OEChem-02102213163D

 34 33  0     1  0  0  0  0  0999 V2000
   -3.8899   -3.6747    1.6490 H   0  0  0  0  0  0  0  0  0  0  0  0
   -3.9109   -2.6717    1.2250 C   0  0  0  0  0  0  0  0  0  0  0  0
   -4.6009   -2.0517    1.7950 H   0  0  0  0  0  0  0  0  0  0  0  0
   -4.2309   -2.7237    0.1860 H   0  0  0  0  0  0  0  0  0  0  0  0
   -2.5229   -2.0787    1.2980 C   0  0  0  0  0  0  0  0  0  0  0  0
   -1.5999   -2.7227    1.7810 O   0  0  0  0  0  0  0  0  0  0  0  0
   -2.3659   -0.8447    0.8120 N   0  0  0  0  0  0  0  0  0  0  0  0
   -3.1749   -0.3807    0.4220 H   0  0  0  0  0  0  0  0  0  0  0  0
   -1.0919   -0.1077    0.8170 C   0  0  1  0  0  0  0  0  0  0  0  0
   -0.4136   -0.6011    1.5155 H   0  0  0  0  0  0  0  0  0  0  0  0
   -0.4834   -0.1723   -0.5965 C   0  0  0  0  0  0  0  0  0  0  0  0
   -0.8422    0.6845   -1.1689 H   0  0  0  0  0  0  0  0  0  0  0  0
    0.6036   -0.1010   -0.5227 H   0  0  0  0  0  0  0  0  0  0  0  0
   -0.8558   -1.4529   -1.3593 C   0  0  0  0  0  0  0  0  0  0  0  0
   -1.6024   -1.2230   -2.1207 H   0  0  0  0  0  0  0  0  0  0  0  0
    0.0360   -1.8545   -1.8443 H   0  0  0  0  0  0  0  0  0  0  0  0
   -1.4263   -2.5024   -0.3955 C   0  0  0  0  0  0  0  0  0  0  0  0
   -0.6820   -2.7194    0.3744 H   0  0  0  0  0  0  0  0  0  0  0  0
   -2.3228   -2.0994    0.0798 H   0  0  0  0  0  0  0  0  0  0  0  0
   -1.7755   -3.7904   -1.1517 C   0  0  0  0  0  0  0  0  0  0  0  0
   -2.5155   -3.5506   -1.9222 H   0  0  0  0  0  0  0  0  0  0  0  0
   -0.8741   -4.1537   -1.6543 H   0  0  0  0  0  0  0  0  0  0  0  0
   -2.3080   -4.8325   -0.2380 N   0  3  0  0  0  0  0  0  0  0  0  0
   -3.1485   -4.5060    0.2223 H   0  0  0  0  0  0  0  0  0  0  0  0
   -2.5330   -5.6753   -0.7519 H   0  0  0  0  0  0  0  0  0  0  0  0
   -1.6232   -5.0644    0.4720 H   0  0  0  0  0  0  0  0  0  0  0  0
   -1.3103    1.3348    1.2791 C   0  0  0  0  0  0  0  0  0  0  0  0
   -2.2333    1.9891    0.8084 O   0  0  0  0  0  0  0  0  0  0  0  0
   -0.4429    1.8293    2.1683 N   0  0  0  0  0  0  0  0  0  0  0  0
    0.2668    1.2118    2.5263 H   0  0  0  0  0  0  0  0  0  0  0  0
   -0.5118    3.1863    2.7135 C   0  0  0  0  0  0  0  0  0  0  0  0
   -1.4470    3.3159    3.2625 H   0  0  0  0  0  0  0  0  0  0  0  0
    0.3243    3.3682    3.3896 H   0  0  0  0  0  0  0  0  0  0  0  0
   -0.4850    3.9172    1.9023 H   0  0  0  0  0  0  0  0  0  0  0  0
  5  6  2  0  0  0  0
  5  7  1  0  0  0  0
  2  3  1  0  0  0  0
  2  4  1  0  0  0  0
  2  5  1  0  0  0  0
  1  2  1  0  0  0  0
 27 28  2  0  0  0  0
 27 29  1  0  0  0  0
 23 24  1  0  0  0  0
 23 25  1  0  0  0  0
 23 26  1  0  0  0  0
 20 21  1  0  0  0  0
 20 22  1  0  0  0  0
 20 23  1  0  0  0  0
 17 18  1  0  0  0  0
 17 19  1  0  0  0  0
 17 20  1  0  0  0  0
 14 15  1  0  0  0  0
 14 16  1  0  0  0  0
 14 17  1  0  0  0  0
 11 12  1  0  0  0  0
 11 13  1  0  0  0  0
 11 14  1  0  0  0  0
  9 10  1  0  0  0  0
  9 11  1  0  0  0  0
  9 27  1  0  0  0  0
  7  8  1  0  0  0  0
  7  9  1  0  0  0  0
 31 32  1  0  0  0  0
 31 33  1  0  0  0  0
 31 34  1  0  0  0  0
 29 30  1  0  0  0  0
 29 31  1  0  0  0  0
M  CHG  1  23   1
M  END
$$$$
default_name
  -OEChem-02102213163D

 34 33  0     1  0  0  0  0  0999 V2000
   -3.8899   -3.6747    1.6490 H   0  0  0  0  0  0  0  0  0  0  0  0
   -3.9109   -2.6717    1.2250 C   0  0  0  0  0  0  0  0  0  0  0  0
   -4.6009   -2.0517    1.7950 H   0  0  0  0  0  0  0  0  0  0  0  0
   -4.2309   -2.7237    0.1860 H   0  0  0  0  0  0  0  0  0  0  0  0
   -2.5229   -2.0787    1.2980 C   0  0  0  0  0  0  0  0  0  0  0  0
   -1.5999   -2.7227    1.7810 O   0  0  0  0  0  0  0  0  0  0  0  0
   -2.3659   -0.8447    0.8120 N   0  0  0  0  0  0  0  0  0  0  0  0
   -3.1749   -0.3807    0.4220 H   0  0  0  0  0  0  0  0  0  0  0  0
   -1.0919   -0.1077    0.8170 C   0  0  1  0  0  0  0  0  0  0  0  0
   -0.4136   -0.6011    1.5155 H   0  0  0  0  0  0  0  0  0  0  0  0
   -0.4834   -0.1723   -0.5965 C   0  0  0  0  0  0  0  0  0  0  0  0
   -0.8422    0.6845   -1.1689 H   0  0  0  0  0  0  0  0  0  0  0  0
    0.6036   -0.1010   -0.5227 H   0  0  0  0  0  0  0  0  0  0  0  0
   -0.8558   -1.4529   -1.3593 C   0  0  0  0  0  0  0  0  0  0  0  0
   -1.3862   -1.1931   -2.2764 H   0  0  0  0  0  0  0  0  0  0  0  0
    0.0556   -1.9961   -1.6163 H   0  0  0  0  0  0  0  0  0  0  0  0
   -1.7541   -2.3481   -0.4946 C   0  0  0  0  0  0  0  0  0  0  0  0
   -1.2259   -2.5942    0.4297 H   0  0  0  0  0  0  0  0  0  0  0  0
   -2.6679   -1.8037   -0.2482 H   0  0  0  0  0  0  0  0  0  0  0  0
   -2.1064   -3.6382   -1.2455 C   0  0  0  0  0  0  0  0  0  0  0  0
   -2.6272   -3.3702   -2.1705 H   0  0  0  0  0  0  0  0  0  0  0  0
   -1.1767   -4.1460   -1.5194 H   0  0  0  0  0  0  0  0  0  0  0  0
   -2.9563   -4.5346   -0.4216 N   0  3  0  0  0  0  0  0  0  0  0  0
   -3.8230   -4.0739   -0.1738 H   0  0  0  0  0  0  0  0  0  0  0  0
   -3.1795   -5.3807   -0.9308 H   0  0  0  0  0  0  0  0  0  0  0  0
   -2.4752   -4.7928    0.4320 H   0  0  0  0  0  0  0  0  0  0  0  0
   -1.3103    1.3348    1.2791 C   0  0  0  0  0  0  0  0  0  0  0  0
   -2.2333    1.9891    0.8084 O   0  0  0  0  0  0  0  0  0  0  0  0
   -0.4429    1.8293    2.1683 N   0  0  0  0  0  0  0  0  0  0  0  0
    0.2668    1.2118    2.5263 H   0  0  0  0  0  0  0  0  0  0  0  0
   -0.5118    3.1863    2.7135 C   0  0  0  0  0  0  0  0  0  0  0  0
   -1.4470    3.3159    3.2625 H   0  0  0  0  0  0  0  0  0  0  0  0
    0.3243    3.3682    3.3896 H   0  0  0  0  0  0  0  0  0  0  0  0
   -0.4850    3.9172    1.9023 H   0  0  0  0  0  0  0  0  0  0  0  0
  5  6  2  0  0  0  0
  5  7  1  0  0  0  0
  2  3  1  0  0  0  0
  2  4  1  0  0  0  0
  2  5  1  0  0  0  0
  1  2  1  0  0  0  0
 27 28  2  0  0  0  0
 27 29  1  0  0  0  0
 23 24  1  0  0  0  0
 23 25  1  0  0  0  0
 23 26  1  0  0  0  0
 20 21  1  0  0  0  0
 20 22  1  0  0  0  0
 20 23  1  0  0  0  0
 17 18  1  0  0  0  0
 17 19  1  0  0  0  0
 17 20  1  0  0  0  0
 14 15  1  0  0  0  0
 14 16  1  0  0  0  0
 14 17  1  0  0  0  0
 11 12  1  0  0  0  0
 11 13  1  0  0  0  0
 11 14  1  0  0  0  0
  9 10  1  0  0  0  0
  9 11  1  0  0  0  0
  9 27  1  0  0  0  0
  7  8  1  0  0  0  0
  7  9  1  0  0  0  0
 31 32  1  0  0  0  0
 31 33  1  0  0  0  0
 31 34  1  0  0  0  0
 29 30  1  0  0  0  0
 29 31  1  0  0  0  0
M  CHG  1  23   1
M  END
$$$$
default_name
  -OEChem-02102213163D

 34 33  0     1  0  0  0  0  0999 V2000
   -3.8899   -3.6747    1.6490 H   0  0  0  0  0  0  0  0  0  0  0  0
   -3.9109   -2.6717    1.2250 C   0  0  0  0  0  0  0  0  0  0  0  0
   -4.6009   -2.0517    1.7950 H   0  0  0  0  0  0  0  0  0  0  0  0
   -4.2309   -2.7237    0.1860 H   0  0  0  0  0  0  0  0  0  0  0  0
   -2.5229   -2.0787    1.2980 C   0  0  0  0  0  0  0  0  0  0  0  0
   -1.5999   -2.7227    1.7810 O   0  0  0  0  0  0  0  0  0  0  0  0
   -2.3659   -0.8447    0.8120 N   0  0  0  0  0  0  0  0  0  0  0  0
   -3.1749   -0.3807    0.4220 H   0  0  0  0  0  0  0  0  0  0  0  0
   -1.0919   -0.1077    0.8170 C   0  0  1  0  0  0  0  0  0  0  0  0
   -0.4136   -0.6011    1.5155 H   0  0  0  0  0  0  0  0  0  0  0  0
   -0.4834   -0.1723   -0.5965 C   0  0  0  0  0  0  0  0  0  0  0  0
   -0.8422    0.6845   -1.1689 H   0  0  0  0  0  0  0  0  0  0  0  0
    0.6036   -0.1010   -0.5227 H   0  0  0  0  0  0  0  0  0  0  0  0
   -0.8558   -1.4529   -1.3593 C   0  0  0  0  0  0  0  0  0  0  0  0
   -1.1399   -1.2017   -2.3821 H   0  0  0  0  0  0  0  0  0  0  0  0
    0.0072   -2.1211   -1.3829 H   0  0  0  0  0  0  0  0  0  0  0  0
   -2.0295   -2.1631   -0.6707 C   0  0  0  0  0  0  0  0  0  0  0  0
   -1.7472   -2.3998    0.3579 H   0  0  0  0  0  0  0  0  0  0  0  0
   -2.8924   -1.4943   -0.6580 H   0  0  0  0  0  0  0  0  0  0  0  0
   -2.3863   -3.4547   -1.4170 C   0  0  0  0  0  0  0  0  0  0  0  0
   -2.6583   -3.1972   -2.4458 H   0  0  0  0  0  0  0  0  0  0  0  0
   -1.4972   -4.0913   -1.4548 H   0  0  0  0  0  0  0  0  0  0  0  0
   -3.5046   -4.1750   -0.7575 N   0  3  0  0  0  0  0  0  0  0  0  0
   -4.3336   -3.5946   -0.7290 H   0  0  0  0  0  0  0  0  0  0  0  0
   -3.7274   -5.0243   -1.2615 H   0  0  0  0  0  0  0  0  0  0  0  0
   -3.2545   -4.4234    0.1925 H   0  0  0  0  0  0  0  0  0  0  0  0
   -1.3103    1.3348    1.2791 C   0  0  0  0  0  0  0  0  0  0  0  0
   -2.2333    1.9891    0.8084 O   0  0  0  0  0  0  0  0  0  0  0  0
   -0.4429    1.8293    2.1683 N   0  0  0  0  0  0  0  0  0  0  0  0
    0.2668    1.2118    2.5263 H   0  0  0  0  0  0  0  0  0  0  0  0
   -0.5118    3.1863    2.7135 C   0  0  0  0  0  0  0  0  0  0  0  0
   -1.4470    3.3159    3.2625 H   0  0  0  0  0  0  0  0  0  0  0  0
    0.3243    3.3682    3.3896 H   0  0  0  0  0  0  0  0  0  0  0  0
   -0.4850    3.9172    1.9023 H   0  0  0  0  0  0  0  0  0  0  0  0
  5  6  2  0  0  0  0
  5  7  1  0  0  0  0
  2  3  1  0  0  0  0
  2  4  1  0  0  0  0
  2  5  1  0  0  0  0
  1  2  1  0  0  0  0
 27 28  2  0  0  0  0
 27 29  1  0  0  0  0
 23 24  1  0  0  0  0
 23 25  1  0  0  0  0
 23 26  1  0  0  0  0
 20 21  1  0  0  0  0
 20 22  1  0  0  0  0
 20 23  1  0  0  0  0
 17 18  1  0  0  0  0
 17 19  1  0  0  0  0
 17 20  1  0  0  0  0
 14 15  1  0  0  0  0
 14 16  1  0  0  0  0
 14 17  1  0  0  0  0
 11 12  1  0  0  0  0
 11 13  1  0  0  0  0
 11 14  1  0  0  0  0
  9 10  1  0  0  0  0
  9 11  1  0  0  0  0
  9 27  1  0  0  0  0
  7  8  1  0  0  0  0
  7  9  1  0  0  0  0
 31 32  1  0  0  0  0
 31 33  1  0  0  0  0
 31 34  1  0  0  0  0
 29 30  1  0  0  0  0
 29 31  1  0  0  0  0
M  CHG  1  23   1
M  END
$$$$
default_name
  -OEChem-02102213163D

 34 33  0     1  0  0  0  0  0999 V2000
   -3.8899   -3.6747    1.6490 H   0  0  0  0  0  0  0  0  0  0  0  0
   -3.9109   -2.6717    1.2250 C   0  0  0  0  0  0  0  0  0  0  0  0
   -4.6009   -2.0517    1.7950 H   0  0  0  0  0  0  0  0  0  0  0  0
   -4.2309   -2.7237    0.1860 H   0  0  0  0  0  0  0  0  0  0  0  0
   -2.5229   -2.0787    1.2980 C   0  0  0  0  0  0  0  0  0  0  0  0
   -1.5999   -2.7227    1.7810 O   0  0  0  0  0  0  0  0  0  0  0  0
   -2.3659   -0.8447    0.8120 N   0  0  0  0  0  0  0  0  0  0  0  0
   -3.1749   -0.3807    0.4220 H   0  0  0  0  0  0  0  0  0  0  0  0
   -1.0919   -0.1077    0.8170 C   0  0  1  0  0  0  0  0  0  0  0  0
   -0.4136   -0.6011    1.5155 H   0  0  0  0  0  0  0  0  0  0  0  0
   -0.4834   -0.1723   -0.5965 C   0  0  0  0  0  0  0  0  0  0  0  0
   -0.8422    0.6845   -1.1689 H   0  0  0  0  0  0  0  0  0  0  0  0
    0.6036   -0.1010   -0.5227 H   0  0  0  0  0  0  0  0  0  0  0  0
   -0.8558   -1.4529   -1.3593 C   0  0  0  0  0  0  0  0  0  0  0  0
   -0.8804   -1.2484   -2.4305 H   0  0  0  0  0  0  0  0  0  0  0  0
   -0.1059   -2.2209   -1.1601 H   0  0  0  0  0  0  0  0  0  0  0  0
   -2.2337   -1.9600   -0.9118 C   0  0  0  0  0  0  0  0  0  0  0  0
   -2.2102   -2.1496    0.1640 H   0  0  0  0  0  0  0  0  0  0  0  0
   -2.9811   -1.1922   -1.1216 H   0  0  0  0  0  0  0  0  0  0  0  0
   -2.5960   -3.2521   -1.6546 C   0  0  0  0  0  0  0  0  0  0  0  0
   -2.6067   -3.0433   -2.7293 H   0  0  0  0  0  0  0  0  0  0  0  0
   -1.8136   -3.9932   -1.4650 H   0  0  0  0  0  0  0  0  0  0  0  0
   -3.9156   -3.7783   -1.2228 N   0  3  0  0  0  0  0  0  0  0  0  0
   -4.6454   -3.1009   -1.4055 H   0  0  0  0  0  0  0  0  0  0  0  0
   -4.1395   -4.6304   -1.7216 H   0  0  0  0  0  0  0  0  0  0  0  0
   -3.9082   -3.9816   -0.2301 H   0  0  0  0  0  0  0  0  0  0  0  0
   -1.3103    1.3348    1.2791 C   0  0  0  0  0  0  0  0  0  0  0  0
   -2.2333    1.9891    0.8084 O   0  0  0  0  0  0  0  0  0  0  0  0
   -0.4429    1.8293    2.1683 N   0  0  0  0  0  0  0  0  0  0  0  0
    0.2668    1.2118    2.5263 H   0  0  0  0  0  0  0  0  0  0  0  0
   -0.5118    3.1863    2.7135 C   0  0  0  0  0  0  0  0  0  0  0  0
   -1.4470    3.3159    3.2625 H   0  0  0  0  0  0  0  0  0  0  0  0
    0.3243    3.3682    3.3896 H   0  0  0  0  0  0  0  0  0  0  0  0
   -0.4850    3.9172    1.9023 H   0  0  0  0  0  0  0  0  0  0  0  0
  5  6  2  0  0  0  0
  5  7  1  0  0  0  0
  2  3  1  0  0  0  0
  2  4  1  0  0  0  0
  2  5  1  0  0  0  0
  1  2  1  0  0  0  0
 27 28  2  0  0  0  0
 27 29  1  0  0  0  0
 23 24  1  0  0  0  0
 23 25  1  0  0  0  0
 23 26  1  0  0  0  0
 20 21  1  0  0  0  0
 20 22  1  0  0  0  0
 20 23  1  0  0  0  0
 17 18  1  0  0  0  0
 17 19  1  0  0  0  0
 17 20  1  0  0  0  0
 14 15  1  0  0  0  0
 14 16  1  0  0  0  0
 14 17  1  0  0  0  0
 11 12  1  0  0  0  0
 11 13  1  0  0  0  0
 11 14  1  0  0  0  0
  9 10  1  0  0  0  0
  9 11  1  0  0  0  0
  9 27  1  0  0  0  0
  7  8  1  0  0  0  0
  7  9  1  0  0  0  0
 31 32  1  0  0  0  0
 31 33  1  0  0  0  0
 31 34  1  0  0  0  0
 29 30  1  0  0  0  0
 29 31  1  0  0  0  0
M  CHG  1  23   1
M  END
$$$$
default_name
  -OEChem-02102213163D

 34 33  0     1  0  0  0  0  0999 V2000
   -3.8899   -3.6747    1.6490 H   0  0  0  0  0  0  0  0  0  0  0  0
   -3.9109   -2.6717    1.2250 C   0  0  0  0  0  0  0  0  0  0  0  0
   -4.6009   -2.0517    1.7950 H   0  0  0  0  0  0  0  0  0  0  0  0
   -4.2309   -2.7237    0.1860 H   0  0  0  0  0  0  0  0  0  0  0  0
   -2.5229   -2.0787    1.2980 C   0  0  0  0  0  0  0  0  0  0  0  0
   -1.5999   -2.7227    1.7810 O   0  0  0  0  0  0  0  0  0  0  0  0
   -2.3659   -0.8447    0.8120 N   0  0  0  0  0  0  0  0  0  0  0  0
   -3.1749   -0.3807    0.4220 H   0  0  0  0  0  0  0  0  0  0  0  0
   -1.0919   -0.1077    0.8170 C   0  0  1  0  0  0  0  0  0  0  0  0
   -0.4136   -0.6011    1.5155 H   0  0  0  0  0  0  0  0  0  0  0  0
   -0.4834   -0.1723   -0.5965 C   0  0  0  0  0  0  0  0  0  0  0  0
   -0.8422    0.6845   -1.1689 H   0  0  0  0  0  0  0  0  0  0  0  0
    0.6036   -0.1010   -0.5227 H   0  0  0  0  0  0  0  0  0  0  0  0
   -0.8558   -1.4529   -1.3593 C   0  0  0  0  0  0  0  0  0  0  0  0
   -0.6252   -1.3298   -2.4184 H   0  0  0  0  0  0  0  0  0  0  0  0
   -0.2761   -2.2888   -0.9630 H   0  0  0  0  0  0  0  0  0  0  0  0
   -2.3529   -1.7528   -1.2015 C   0  0  0  0  0  0  0  0  0  0  0  0
   -2.5834   -1.8606   -0.1390 H   0  0  0  0  0  0  0  0  0  0  0  0
   -2.9280   -0.9182   -1.6076 H   0  0  0  0  0  0  0  0  0  0  0  0
   -2.7213   -3.0444   -1.9420 C   0  0  0  0  0  0  0  0  0  0  0  0
   -2.4760   -2.9191   -3.0017 H   0  0  0  0  0  0  0  0  0  0  0  0
   -2.1045   -3.8584   -1.5493 H   0  0  0  0  0  0  0  0  0  0  0  0
   -4.1612   -3.3715   -1.7858 N   0  3  0  0  0  0  0  0  0  0  0  0
   -4.7373   -2.6264   -2.1572 H   0  0  0  0  0  0  0  0  0  0  0  0
   -4.3878   -4.2258   -2.2795 H   0  0  0  0  0  0  0  0  0  0  0  0
   -4.3916   -3.4972   -0.8071 H   0  0  0  0  0  0  0  0  0  0  0  0
   -1.3103    1.3348    1.2791 C   0  0  0  0  0  0  0  0  0  0  0  0
   -2.2333    1.9891    0.8084 O   0  0  0  0  0  0  0  0  0  0  0  0
   -0.4429    1.8293    2.1683 N   0  0  0  0  0  0  0  0  0  0  0  0
    0.2668    1.2118    2.5263 H   0  0  0  0  0  0  0  0  0  0  0  0
   -0.5118    3.1863    2.7135 C   0  0  0  0  0  0  0  0  0  0  0  0
   -1.4470    3.3159    3.2625 H   0  0  0  0  0  0  0  0  0  0  0  0
    0.3243    3.3682    3.3896 H   0  0  0  0  0  0  0  0  0  0  0  0
   -0.4850    3.9172    1.9023 H   0  0  0  0  0  0  0  0  0  0  0  0
  5  6  2  0  0  0  0
  5  7  1  0  0  0  0
  2  3  1  0  0  0  0
  2  4  1  0  0  0  0
  2  5  1  0  0  0  0
  1  2  1  0  0  0  0
 27 28  2  0  0  0  0
 27 29  1  0  0  0  0
 23 24  1  0  0  0  0
 23 25  1  0  0  0  0
 23 26  1  0  0  0  0
 20 21  1  0  0  0  0
 20 22  1  0  0  0  0
 20 23  1  0  0  0  0
 17 18  1  0  0  0  0
 17 19  1  0  0  0  0
 17 20  1  0  0  0  0
 14 15  1  0  0  0  0
 14 16  1  0  0  0  0
 14 17  1  0  0  0  0
 11 12  1  0  0  0  0
 11 13  1  0  0  0  0
 11 14  1  0  0  0  0
  9 10  1  0  0  0  0
  9 11  1  0  0  0  0
  9 27  1  0  0  0  0
  7  8  1  0  0  0  0
  7  9  1  0  0  0  0
 31 32  1  0  0  0  0
 31 33  1  0  0  0  0
 31 34  1  0  0  0  0
 29 30  1  0  0  0  0
 29 31  1  0  0  0  0
M  CHG  1  23   1
M  END
$$$$
default_name
  -OEChem-02102213163D

 34 33  0     1  0  0  0  0  0999 V2000
   -3.8899   -3.6747    1.6490 H   0  0  0  0  0  0  0  0  0  0  0  0
   -3.9109   -2.6717    1.2250 C   0  0  0  0  0  0  0  0  0  0  0  0
   -4.6009   -2.0517    1.7950 H   0  0  0  0  0  0  0  0  0  0  0  0
   -4.2309   -2.7237    0.1860 H   0  0  0  0  0  0  0  0  0  0  0  0
   -2.5229   -2.0787    1.2980 C   0  0  0  0  0  0  0  0  0  0  0  0
   -1.5999   -2.7227    1.7810 O   0  0  0  0  0  0  0  0  0  0  0  0
   -2.3659   -0.8447    0.8120 N   0  0  0  0  0  0  0  0  0  0  0  0
   -3.1749   -0.3807    0.4220 H   0  0  0  0  0  0  0  0  0  0  0  0
   -1.0919   -0.1077    0.8170 C   0  0  1  0  0  0  0  0  0  0  0  0
   -0.4136   -0.6011    1.5155 H   0  0  0  0  0  0  0  0  0  0  0  0
   -0.4834   -0.1723   -0.5965 C   0  0  0  0  0  0  0  0  0  0  0  0
   -0.8422    0.6845   -1.1689 H   0  0  0  0  0  0  0  0  0  0  0  0
    0.6036   -0.1010   -0.5227 H   0  0  0  0  0  0  0  0  0  0  0  0
   -0.8558   -1.4529   -1.3593 C   0  0  0  0  0  0  0  0  0  0  0  0
   -0.3918   -1.4406   -2.3465 H   0  0  0  0  0  0  0  0  0  0  0  0
   -0.4917   -2.3201   -0.8051 H   0  0  0  0  0  0  0  0  0  0  0  0
   -2.3789   -1.5554   -1.5201 C   0  0  0  0  0  0  0  0  0  0  0  0
   -2.8415   -1.5524   -0.5302 H   0  0  0  0  0  0  0  0  0  0  0  0
   -2.7366   -0.6908   -2.0828 H   0  0  0  0  0  0  0  0  0  0  0  0
   -2.7537   -2.8458   -2.2597 C   0  0  0  0  0  0  0  0  0  0  0  0
   -2.2750   -2.8330   -3.2443 H   0  0  0  0  0  0  0  0  0  0  0  0
   -2.3499   -3.6961   -1.7019 H   0  0  0  0  0  0  0  0  0  0  0  0
   -4.2247   -2.9823   -2.4082 N   0  3  0  0  0  0  0  0  0  0  0  0
   -4.6028   -2.2034   -2.9328 H   0  0  0  0  0  0  0  0  0  0  0  0
   -4.4552   -3.8381   -2.8974 H   0  0  0  0  0  0  0  0  0  0  0  0
   -4.6719   -3.0035   -1.4991 H   0  0  0  0  0  0  0  0  0  0  0  0
   -1.3103    1.3348    1.2791 C   0  0  0  0  0  0  0  0  0  0  0  0
   -2.2333    1.9891    0.8084 O   0  0  0  0  0  0  0  0  0  0  0  0
   -0.4429    1.8293    2.1683 N   0  0  0  0  0  0  0  0  0  0  0  0
    0.2668    1.2118    2.5263 H   0  0  0  0  0  0  0  0  0  0  0  0
   -0.5118    3.1863    2.7135 C   0  0  0  0  0  0  0  0  0  0  0  0
   -1.4470    3.3159    3.2625 H   0  0  0  0  0  0  0  0  0  0  0  0
    0.3243    3.3682    3.3896 H   0  0  0  0  0  0  0  0  0  0  0  0
   -0.4850    3.9172    1.9023 H   0  0  0  0  0  0  0  0  0  0  0  0
  5  6  2  0  0  0  0
  5  7  1  0  0  0  0
  2  3  1  0  0  0  0
  2  4  1  0  0  0  0
  2  5  1  0  0  0  0
  1  2  1  0  0  0  0
 27 28  2  0  0  0  0
 27 29  1  0  0  0  0
 23 24  1  0  0  0  0
 23 25  1  0  0  0  0
 23 26  1  0  0  0  0
 20 21  1  0  0  0  0
 20 22  1  0  0  0  0
 20 23  1  0  0  0  0
 17 18  1  0  0  0  0
 17 19  1  0  0  0  0
 17 20  1  0  0  0  0
 14 15  1  0  0  0  0
 14 16  1  0  0  0  0
 14 17  1  0  0  0  0
 11 12  1  0  0  0  0
 11 13  1  0  0  0  0
 11 14  1  0  0  0  0
  9 10  1  0  0  0  0
  9 11  1  0  0  0  0
  9 27  1  0  0  0  0
  7  8  1  0  0  0  0
  7  9  1  0  0  0  0
 31 32  1  0  0  0  0
 31 33  1  0  0  0  0
 31 34  1  0  0  0  0
 29 30  1  0  0  0  0
 29 31  1  0  0  0  0
M  CHG  1  23   1
M  END
$$$$
default_name
  -OEChem-02102213163D

 34 33  0     1  0  0  0  0  0999 V2000
   -3.8899   -3.6747    1.6490 H   0  0  0  0  0  0  0  0  0  0  0  0
   -3.9109   -2.6717    1.2250 C   0  0  0  0  0  0  0  0  0  0  0  0
   -4.6009   -2.0517    1.7950 H   0  0  0  0  0  0  0  0  0  0  0  0
   -4.2309   -2.7237    0.1860 H   0  0  0  0  0  0  0  0  0  0  0  0
   -2.5229   -2.0787    1.2980 C   0  0  0  0  0  0  0  0  0  0  0  0
   -1.5999   -2.7227    1.7810 O   0  0  0  0  0  0  0  0  0  0  0  0
   -2.3659   -0.8447    0.8120 N   0  0  0  0  0  0  0  0  0  0  0  0
   -3.1749   -0.3807    0.4220 H   0  0  0  0  0  0  0  0  0  0  0  0
   -1.0919   -0.1077    0.8170 C   0  0  1  0  0  0  0  0  0  0  0  0
   -0.4136   -0.6011    1.5155 H   0  0  0  0  0  0  0  0  0  0  0  0
   -0.4834   -0.1723   -0.5965 C   0  0  0  0  0  0  0  0  0  0  0  0
   -0.8422    0.6845   -1.1689 H   0  0  0  0  0  0  0  0  0  0  0  0
    0.6036   -0.1010   -0.5227 H   0  0  0  0  0  0  0  0  0  0  0  0
   -0.8558   -1.4529   -1.3593 C   0  0  0  0  0  0  0  0  0  0  0  0
   -0.1962   -1.5730   -2.2197 H   0  0  0  0  0  0  0  0  0  0  0  0
   -0.7381   -2.3128   -0.6971 H   0  0  0  0  0  0  0  0  0  0  0  0
   -2.3099   -1.3815   -1.8458 C   0  0  0  0  0  0  0  0  0  0  0  0
   -2.9667   -1.2462   -0.9832 H   0  0  0  0  0  0  0  0  0  0  0  0
   -2.4200   -0.5256   -2.5147 H   0  0  0  0  0  0  0  0  0  0  0  0
   -2.6909   -2.6697   -2.5861 C   0  0  0  0  0  0  0  0  0  0  0  0
   -2.0174   -2.7909   -3.4408 H   0  0  0  0  0  0  0  0  0  0  0  0
   -2.5333   -3.5173   -1.9124 H   0  0  0  0  0  0  0  0  0  0  0  0
   -4.1018   -2.6372   -3.0474 N   0  3  0  0  0  0  0  0  0  0  0  0
   -4.2513   -1.8608   -3.6796 H   0  0  0  0  0  0  0  0  0  0  0  0
   -4.3372   -3.4937   -3.5332 H   0  0  0  0  0  0  0  0  0  0  0  0
   -4.7298   -2.5340   -2.2589 H   0  0  0  0  0  0  0  0  0  0  0  0
   -1.3103    1.3348    1.2791 C   0  0  0  0  0  0  0  0  0  0  0  0
   -2.2333    1.9891    0.8084 O   0  0  0  0  0  0  0  0  0  0  0  0
   -0.4429    1.8293    2.1683 N   0  0  0  0  0  0  0  0  0  0  0  0
    0.2668    1.2118    2.5263 H   0  0  0  0  0  0  0  0  0  0  0  0
   -0.5118    3.1863    2.7135 C   0  0  0  0  0  0  0  0  0  0  0  0
   -1.4470    3.3159    3.2625 H   0  0  0  0  0  0  0  0  0  0  0  0
    0.3243    3.3682    3.3896 H   0  0  0  0  0  0  0  0  0  0  0  0
   -0.4850    3.9172    1.9023 H   0  0  0  0  0  0  0  0  0  0  0  0
  5  6  2  0  0  0  0
  5  7  1  0  0  0  0
  2  3  1  0  0  0  0
  2  4  1  0  0  0  0
  2  5  1  0  0  0  0
  1  2  1  0  0  0  0
 27 28  2  0  0  0  0
 27 29  1  0  0  0  0
 23 24  1  0  0  0  0
 23 25  1  0  0  0  0
 23 26  1  0  0  0  0
 20 21  1  0  0  0  0
 20 22  1  0  0  0  0
 20 23  1  0  0  0  0
 17 18  1  0  0  0  0
 17 19  1  0  0  0  0
 17 20  1  0  0  0  0
 14 15  1  0  0  0  0
 14 16  1  0  0  0  0
 14 17  1  0  0  0  0
 11 12  1  0  0  0  0
 11 13  1  0  0  0  0
 11 14  1  0  0  0  0
  9 10  1  0  0  0  0
  9 11  1  0  0  0  0
  9 27  1  0  0  0  0
  7  8  1  0  0  0  0
  7  9  1  0  0  0  0
 31 32  1  0  0  0  0
 31 33  1  0  0  0  0
 31 34  1  0  0  0  0
 29 30  1  0  0  0  0
 29 31  1  0  0  0  0
M  CHG  1  23   1
M  END
$$$$
default_name
  -OEChem-02102213163D

 34 33  0     1  0  0  0  0  0999 V2000
   -3.8899   -3.6747    1.6490 H   0  0  0  0  0  0  0  0  0  0  0  0
   -3.9109   -2.6717    1.2250 C   0  0  0  0  0  0  0  0  0  0  0  0
   -4.6009   -2.0517    1.7950 H   0  0  0  0  0  0  0  0  0  0  0  0
   -4.2309   -2.7237    0.1860 H   0  0  0  0  0  0  0  0  0  0  0  0
   -2.5229   -2.0787    1.2980 C   0  0  0  0  0  0  0  0  0  0  0  0
   -1.5999   -2.7227    1.7810 O   0  0  0  0  0  0  0  0  0  0  0  0
   -2.3659   -0.8447    0.8120 N   0  0  0  0  0  0  0  0  0  0  0  0
   -3.1749   -0.3807    0.4220 H   0  0  0  0  0  0  0  0  0  0  0  0
   -1.0919   -0.1077    0.8170 C   0  0  1  0  0  0  0  0  0  0  0  0
   -0.4136   -0.6011    1.5155 H   0  0  0  0  0  0  0  0  0  0  0  0
   -0.4834   -0.1723   -0.5965 C   0  0  0  0  0  0  0  0  0  0  0  0
   -0.8422    0.6845   -1.1689 H   0  0  0  0  0  0  0  0  0  0  0  0
    0.6036   -0.1010   -0.5227 H   0  0  0  0  0  0  0  0  0  0  0  0
   -0.8558   -1.4529   -1.3593 C   0  0  0  0  0  0  0  0  0  0  0  0
   -0.0515   -1.7181   -2.0468 H   0  0  0  0  0  0  0  0  0  0  0  0
   -0.9985   -2.2673   -0.6464 H   0  0  0  0  0  0  0  0  0  0  0  0
   -2.1506   -1.2428   -2.1564 C   0  0  0  0  0  0  0  0  0  0  0  0
   -2.9506   -0.9627   -1.4669 H   0  0  0  0  0  0  0  0  0  0  0  0
   -1.9998   -0.4338   -2.8740 H   0  0  0  0  0  0  0  0  0  0  0  0
   -2.5371   -2.5281   -2.8988 C   0  0  0  0  0  0  0  0  0  0  0  0
   -1.7208   -2.7956   -3.5776 H   0  0  0  0  0  0  0  0  0  0  0  0
   -2.6419   -3.3344   -2.1665 H   0  0  0  0  0  0  0  0  0  0  0  0
   -3.8008   -2.3599   -3.6600 N   0  3  0  0  0  0  0  0  0  0  0  0
   -3.7066   -1.6219   -4.3466 H   0  0  0  0  0  0  0  0  0  0  0  0
   -4.0418   -3.2161   -4.1434 H   0  0  0  0  0  0  0  0  0  0  0  0
   -4.5616   -2.1207   -3.0348 H   0  0  0  0  0  0  0  0  0  0  0  0
   -1.3103    1.3348    1.2791 C   0  0  0  0  0  0  0  0  0  0  0  0
   -2.2333    1.9891    0.8084 O   0  0  0  0  0  0  0  0  0  0  0  0
   -0.4429    1.8293    2.1683 N   0  0  0  0  0  0  0  0  0  0  0  0
    0.2668    1.2118    2.5263 H   0  0  0  0  0  0  0  0  0  0  0  0
   -0.5118    3.1863    2.7135 C   0  0  0  0  0  0  0  0  0  0  0  0
   -1.4470    3.3159    3.2625 H   0  0  0  0  0  0  0  0  0  0  0  0
    0.3243    3.3682    3.3896 H   0  0  0  0  0  0  0  0  0  0  0  0
   -0.4850    3.9172    1.9023 H   0  0  0  0  0  0  0  0  0  0  0  0
  5  6  2  0  0  0  0
  5  7  1  0  0  0  0
  2  3  1  0  0  0  0
  2  4  1  0  0  0  0
  2  5  1  0  0  0  0
  1  2  1  0  0  0  0
 27 28  2  0  0  0  0
 27 29  1  0  0  0  0
 23 24  1  0  0  0  0
 23 25  1  0  0  0  0
 23 26  1  0  0  0  0
 20 21  1  0  0  0  0
 20 22  1  0  0  0  0
 20 23  1  0  0  0  0
 17 18  1  0  0  0  0
 17 19  1  0  0  0  0
 17 20  1  0  0  0  0
 14 15  1  0  0  0  0
 14 16  1  0  0  0  0
 14 17  1  0  0  0  0
 11 12  1  0  0  0  0
 11 13  1  0  0  0  0
 11 14  1  0  0  0  0
  9 10  1  0  0  0  0
  9 11  1  0  0  0  0
  9 27  1  0  0  0  0
  7  8  1  0  0  0  0
  7  9  1  0  0  0  0
 31 32  1  0  0  0  0
 31 33  1  0  0  0  0
 31 34  1  0  0  0  0
 29 30  1  0  0  0  0
 29 31  1  0  0  0  0
M  CHG  1  23   1
M  END
$$$$
default_name
  -OEChem-02102213163D

 34 33  0     1  0  0  0  0  0999 V2000
   -3.8899   -3.6747    1.6490 H   0  0  0  0  0  0  0  0  0  0  0  0
   -3.9109   -2.6717    1.2250 C   0  0  0  0  0  0  0  0  0  0  0  0
   -4.6009   -2.0517    1.7950 H   0  0  0  0  0  0  0  0  0  0  0  0
   -4.2309   -2.7237    0.1860 H   0  0  0  0  0  0  0  0  0  0  0  0
   -2.5229   -2.0787    1.2980 C   0  0  0  0  0  0  0  0  0  0  0  0
   -1.5999   -2.7227    1.7810 O   0  0  0  0  0  0  0  0  0  0  0  0
   -2.3659   -0.8447    0.8120 N   0  0  0  0  0  0  0  0  0  0  0  0
   -3.1749   -0.3807    0.4220 H   0  0  0  0  0  0  0  0  0  0  0  0
   -1.0919   -0.1077    0.8170 C   0  0  1  0  0  0  0  0  0  0  0  0
   -0.4136   -0.6011    1.5155 H   0  0  0  0  0  0  0  0  0  0  0  0
   -0.4834   -0.1723   -0.5965 C   0  0  0  0  0  0  0  0  0  0  0  0
   -0.8422    0.6845   -1.1689 H   0  0  0  0  0  0  0  0  0  0  0  0
    0.6036   -0.1010   -0.5227 H   0  0  0  0  0  0  0  0  0  0  0  0
   -0.8558   -1.4529   -1.3593 C   0  0  0  0  0  0  0  0  0  0  0  0
    0.0323   -1.8660   -1.8394 H   0  0  0  0  0  0  0  0  0  0  0  0
   -1.2550   -2.1867   -0.6564 H   0  0  0  0  0  0  0  0  0  0  0  0
   -1.9120   -1.1487   -2.4308 C   0  0  0  0  0  0  0  0  0  0  0  0
   -2.7943   -0.7213   -1.9485 H   0  0  0  0  0  0  0  0  0  0  0  0
   -1.5046   -0.4217   -3.1361 H   0  0  0  0  0  0  0  0  0  0  0  0
   -2.3030   -2.4307   -3.1765 C   0  0  0  0  0  0  0  0  0  0  0  0
   -1.4055   -2.8469   -3.6455 H   0  0  0  0  0  0  0  0  0  0  0  0
   -2.6686   -3.1596   -2.4469 H   0  0  0  0  0  0  0  0  0  0  0  0
   -3.3423   -2.1690   -4.2042 N   0  3  0  0  0  0  0  0  0  0  0  0
   -3.0059   -1.5030   -4.8883 H   0  0  0  0  0  0  0  0  0  0  0  0
   -3.5892   -3.0242   -4.6865 H   0  0  0  0  0  0  0  0  0  0  0  0
   -4.1786   -1.7918   -3.7739 H   0  0  0  0  0  0  0  0  0  0  0  0
   -1.3103    1.3348    1.2791 C   0  0  0  0  0  0  0  0  0  0  0  0
   -2.2333    1.9891    0.8084 O   0  0  0  0  0  0  0  0  0  0  0  0
   -0.4429    1.8293    2.1683 N   0  0  0  0  0  0  0  0  0  0  0  0
    0.2668    1.2118    2.5263 H   0  0  0  0  0  0  0  0  0  0  0  0
   -0.5118    3.1863    2.7135 C   0  0  0  0  0  0  0  0  0  0  0  0
   -1.4470    3.3159    3.2625 H   0  0  0  0  0  0  0  0  0  0  0  0
    0.3243    3.3682    3.3896 H   0  0  0  0  0  0  0  0  0  0  0  0
   -0.4850    3.9172    1.9023 H   0  0  0  0  0  0  0  0  0  0  0  0
  5  6  2  0  0  0  0
  5  7  1  0  0  0  0
  2  3  1  0  0  0  0
  2  4  1  0  0  0  0
  2  5  1  0  0  0  0
  1  2  1  0  0  0  0
 27 28  2  0  0  0  0
 27 29  1  0  0  0  0
 23 24  1  0  0  0  0
 23 25  1  0  0  0  0
 23 26  1  0  0  0  0
 20 21  1  0  0  0  0
 20 22  1  0  0  0  0
 20 23  1  0  0  0  0
 17 18  1  0  0  0  0
 17 19  1  0  0  0  0
 17 20  1  0  0  0  0
 14 15  1  0  0  0  0
 14 16  1  0  0  0  0
 14 17  1  0  0  0  0
 11 12  1  0  0  0  0
 11 13  1  0  0  0  0
 11 14  1  0  0  0  0
  9 10  1  0  0  0  0
  9 11  1  0  0  0  0
  9 27  1  0  0  0  0
  7  8  1  0  0  0  0
  7  9  1  0  0  0  0
 31 32  1  0  0  0  0
 31 33  1  0  0  0  0
 31 34  1  0  0  0  0
 29 30  1  0  0  0  0
 29 31  1  0  0  0  0
M  CHG  1  23   1
M  END
$$$$
default_name
  -OEChem-02102213163D

 34 33  0     1  0  0  0  0  0999 V2000
   -3.8899   -3.6747    1.6490 H   0  0  0  0  0  0  0  0  0  0  0  0
   -3.9109   -2.6717    1.2250 C   0  0  0  0  0  0  0  0  0  0  0  0
   -4.6009   -2.0517    1.7950 H   0  0  0  0  0  0  0  0  0  0  0  0
   -4.2309   -2.7237    0.1860 H   0  0  0  0  0  0  0  0  0  0  0  0
   -2.5229   -2.0787    1.2980 C   0  0  0  0  0  0  0  0  0  0  0  0
   -1.5999   -2.7227    1.7810 O   0  0  0  0  0  0  0  0  0  0  0  0
   -2.3659   -0.8447    0.8120 N   0  0  0  0  0  0  0  0  0  0  0  0
   -3.1749   -0.3807    0.4220 H   0  0  0  0  0  0  0  0  0  0  0  0
   -1.0919   -0.1077    0.8170 C   0  0  1  0  0  0  0  0  0  0  0  0
   -0.4136   -0.6011    1.5155 H   0  0  0  0  0  0  0  0  0  0  0  0
   -0.4834   -0.1723   -0.5965 C   0  0  0  0  0  0  0  0  0  0  0  0
   -0.8422    0.6845   -1.1689 H   0  0  0  0  0  0  0  0  0  0  0  0
    0.6036   -0.1010   -0.5227 H   0  0  0  0  0  0  0  0  0  0  0  0
   -0.8558   -1.4529   -1.3593 C   0  0  0  0  0  0  0  0  0  0  0  0
    0.0495   -2.0066   -1.6118 H   0  0  0  0  0  0  0  0  0  0  0  0
   -1.4903   -2.0765   -0.7265 H   0  0  0  0  0  0  0  0  0  0  0  0
   -1.6102   -1.1058   -2.6502 C   0  0  0  0  0  0  0  0  0  0  0  0
   -2.5084   -0.5384   -2.3951 H   0  0  0  0  0  0  0  0  0  0  0  0
   -0.9681   -0.4900   -3.2833 H   0  0  0  0  0  0  0  0  0  0  0  0
   -2.0044   -2.3842   -3.4004 C   0  0  0  0  0  0  0  0  0  0  0  0
   -1.0928   -2.9412   -3.6398 H   0  0  0  0  0  0  0  0  0  0  0  0
   -2.6113   -3.0049   -2.7344 H   0  0  0  0  0  0  0  0  0  0  0  0
   -2.7574   -2.0778   -4.6429 N   0  3  0  0  0  0  0  0  0  0  0  0
   -2.1969   -1.5122   -5.2679 H   0  0  0  0  0  0  0  0  0  0  0  0
   -3.0102   -2.9311   -5.1255 H   0  0  0  0  0  0  0  0  0  0  0  0
   -3.6069   -1.5697   -4.4259 H   0  0  0  0  0  0  0  0  0  0  0  0
   -1.3103    1.3348    1.2791 C   0  0  0  0  0  0  0  0  0  0  0  0
   -2.2333    1.9891    0.8084 O   0  0  0  0  0  0  0  0  0  0  0  0
   -0.4429    1.8293    2.1683 N   0  0  0  0  0  0  0  0  0  0  0  0
    0.2668    1.2118    2.5263 H   0  0  0  0  0  0  0  0  0  0  0  0
   -0.5118    3.1863    2.7135 C   0  0  0  0  0  0  0  0  0  0  0  0
   -1.4470    3.3159    3.2625 H   0  0  0  0  0  0  0  0  0  0  0  0
    0.3243    3.3682    3.3896 H   0  0  0  0  0  0  0  0  0  0  0  0
   -0.4850    3.9172    1.9023 H   0  0  0  0  0  0  0  0  0  0  0  0
  5  6  2  0  0  0  0
  5  7  1  0  0  0  0
  2  3  1  0  0  0  0
  2  4  1  0  0  0  0
  2  5  1  0  0  0  0
  1  2  1  0  0  0  0
 27 28  2  0  0  0  0
 27 29  1  0  0  0  0
 23 24  1  0  0  0  0
 23 25  1  0  0  0  0
 23 26  1  0  0  0  0
 20 21  1  0  0  0  0
 20 22  1  0  0  0  0
 20 23  1  0  0  0  0
 17 18  1  0  0  0  0
 17 19  1  0  0  0  0
 17 20  1  0  0  0  0
 14 15  1  0  0  0  0
 14 16  1  0  0  0  0
 14 17  1  0  0  0  0
 11 12  1  0  0  0  0
 11 13  1  0  0  0  0
 11 14  1  0  0  0  0
  9 10  1  0  0  0  0
  9 11  1  0  0  0  0
  9 27  1  0  0  0  0
  7  8  1  0  0  0  0
  7  9  1  0  0  0  0
 31 32  1  0  0  0  0
 31 33  1  0  0  0  0
 31 34  1  0  0  0  0
 29 30  1  0  0  0  0
 29 31  1  0  0  0  0
M  CHG  1  23   1
M  END
$$$$
default_name
  -OEChem-02102213163D

 34 33  0     1  0  0  0  0  0999 V2000
   -3.8899   -3.6747    1.6490 H   0  0  0  0  0  0  0  0  0  0  0  0
   -3.9109   -2.6717    1.2250 C   0  0  0  0  0  0  0  0  0  0  0  0
   -4.6009   -2.0517    1.7950 H   0  0  0  0  0  0  0  0  0  0  0  0
   -4.2309   -2.7237    0.1860 H   0  0  0  0  0  0  0  0  0  0  0  0
   -2.5229   -2.0787    1.2980 C   0  0  0  0  0  0  0  0  0  0  0  0
   -1.5999   -2.7227    1.7810 O   0  0  0  0  0  0  0  0  0  0  0  0
   -2.3659   -0.8447    0.8120 N   0  0  0  0  0  0  0  0  0  0  0  0
   -3.1749   -0.3807    0.4220 H   0  0  0  0  0  0  0  0  0  0  0  0
   -1.0919   -0.1077    0.8170 C   0  0  1  0  0  0  0  0  0  0  0  0
   -0.4136   -0.6011    1.5155 H   0  0  0  0  0  0  0  0  0  0  0  0
   -0.4834   -0.1723   -0.5965 C   0  0  0  0  0  0  0  0  0  0  0  0
   -0.8422    0.6845   -1.1689 H   0  0  0  0  0  0  0  0  0  0  0  0
    0.6036   -0.1010   -0.5227 H   0  0  0  0  0  0  0  0  0  0  0  0
   -0.8558   -1.4529   -1.3593 C   0  0  0  0  0  0  0  0  0  0  0  0
   -0.0011   -2.1303   -1.3794 H   0  0  0  0  0  0  0  0  0  0  0  0
   -1.6883   -1.9442   -0.8519 H   0  0  0  0  0  0  0  0  0  0  0  0
   -1.2658   -1.1168   -2.7998 C   0  0  0  0  0  0  0  0  0  0  0  0
   -2.1124   -0.4265   -2.7763 H   0  0  0  0  0  0  0  0  0  0  0  0
   -0.4270   -0.6342   -3.3054 H   0  0  0  0  0  0  0  0  0  0  0  0
   -1.6617   -2.3916   -3.5552 C   0  0  0  0  0  0  0  0  0  0  0  0
   -0.8041   -3.0722   -3.5609 H   0  0  0  0  0  0  0  0  0  0  0  0
   -2.4742   -2.8809   -3.0095 H   0  0  0  0  0  0  0  0  0  0  0  0
   -2.0862   -2.0924   -4.9462 N   0  3  0  0  0  0  0  0  0  0  0  0
   -1.3348   -1.6488   -5.4595 H   0  0  0  0  0  0  0  0  0  0  0  0
   -2.3442   -2.9431   -5.4305 H   0  0  0  0  0  0  0  0  0  0  0  0
   -2.8856   -1.4696   -4.9462 H   0  0  0  0  0  0  0  0  0  0  0  0
   -1.3103    1.3348    1.2791 C   0  0  0  0  0  0  0  0  0  0  0  0
   -2.2333    1.9891    0.8084 O   0  0  0  0  0  0  0  0  0  0  0  0
   -0.4429    1.8293    2.1683 N   0  0  0  0  0  0  0  0  0  0  0  0
    0.2668    1.2118    2.5263 H   0  0  0  0  0  0  0  0  0  0  0  0
   -0.5118    3.1863    2.7135 C   0  0  0  0  0  0  0  0  0  0  0  0
   -1.4470    3.3159    3.2625 H   0  0  0  0  0  0  0  0  0  0  0  0
    0.3243    3.3682    3.3896 H   0  0  0  0  0  0  0  0  0  0  0  0
   -0.4850    3.9172    1.9023 H   0  0  0  0  0  0  0  0  0  0  0  0
  5  6  2  0  0  0  0
  5  7  1  0  0  0  0
  2  3  1  0  0  0  0
  2  4  1  0  0  0  0
  2  5  1  0  0  0  0
  1  2  1  0  0  0  0
 27 28  2  0  0  0  0
 27 29  1  0  0  0  0
 23 24  1  0  0  0  0
 23 25  1  0  0  0  0
 23 26  1  0  0  0  0
 20 21  1  0  0  0  0
 20 22  1  0  0  0  0
 20 23  1  0  0  0  0
 17 18  1  0  0  0  0
 17 19  1  0  0  0  0
 17 20  1  0  0  0  0
 14 15  1  0  0  0  0
 14 16  1  0  0  0  0
 14 17  1  0  0  0  0
 11 12  1  0  0  0  0
 11 13  1  0  0  0  0
 11 14  1  0  0  0  0
  9 10  1  0  0  0  0
  9 11  1  0  0  0  0
  9 27  1  0  0  0  0
  7  8  1  0  0  0  0
  7  9  1  0  0  0  0
 31 32  1  0  0  0  0
 31 33  1  0  0  0  0
 31 34  1  0  0  0  0
 29 30  1  0  0  0  0
 29 31  1  0  0  0  0
M  CHG  1  23   1
M  END
$$$$
default_name
  -OEChem-02102213163D

 34 33  0     1  0  0  0  0  0999 V2000
   -3.8899   -3.6747    1.6490 H   0  0  0  0  0  0  0  0  0  0  0  0
   -3.9109   -2.6717    1.2250 C   0  0  0  0  0  0  0  0  0  0  0  0
   -4.6009   -2.0517    1.7950 H   0  0  0  0  0  0  0  0  0  0  0  0
   -4.2309   -2.7237    0.1860 H   0  0  0  0  0  0  0  0  0  0  0  0
   -2.5229   -2.0787    1.2980 C   0  0  0  0  0  0  0  0  0  0  0  0
   -1.5999   -2.7227    1.7810 O   0  0  0  0  0  0  0  0  0  0  0  0
   -2.3659   -0.8447    0.8120 N   0  0  0  0  0  0  0  0  0  0  0  0
   -3.1749   -0.3807    0.4220 H   0  0  0  0  0  0  0  0  0  0  0  0
   -1.0919   -0.1077    0.8170 C   0  0  1  0  0  0  0  0  0  0  0  0
   -0.4136   -0.6011    1.5155 H   0  0  0  0  0  0  0  0  0  0  0  0
   -0.4834   -0.1723   -0.5965 C   0  0  0  0  0  0  0  0  0  0  0  0
   -0.8422    0.6845   -1.1689 H   0  0  0  0  0  0  0  0  0  0  0  0
    0.6036   -0.1010   -0.5227 H   0  0  0  0  0  0  0  0  0  0  0  0
   -0.8558   -1.4529   -1.3593 C   0  0  0  0  0  0  0  0  0  0  0  0
   -0.1160   -2.2288   -1.1580 H   0  0  0  0  0  0  0  0  0  0  0  0
   -1.8355   -1.7989   -1.0241 H   0  0  0  0  0  0  0  0  0  0  0  0
   -0.9023   -1.1812   -2.8693 C   0  0  0  0  0  0  0  0  0  0  0  0
   -1.6333   -0.3933   -3.0660 H   0  0  0  0  0  0  0  0  0  0  0  0
    0.0819   -0.8444   -3.2010 H   0  0  0  0  0  0  0  0  0  0  0  0
   -1.2983   -2.4526   -3.6304 C   0  0  0  0  0  0  0  0  0  0  0  0
   -0.5591   -3.2308   -3.4143 H   0  0  0  0  0  0  0  0  0  0  0  0
   -2.2664   -2.7961   -3.2535 H   0  0  0  0  0  0  0  0  0  0  0  0
   -1.3743   -2.2117   -5.0935 N   0  3  0  0  0  0  0  0  0  0  0  0
   -0.4783   -1.9036   -5.4500 H   0  0  0  0  0  0  0  0  0  0  0  0
   -1.6367   -3.0595   -5.5807 H   0  0  0  0  0  0  0  0  0  0  0  0
   -2.0637   -1.4982   -5.2995 H   0  0  0  0  0  0  0  0  0  0  0  0
   -1.3103    1.3348    1.2791 C   0  0  0  0  0  0  0  0  0  0  0  0
   -2.2333    1.9891    0.8084 O   0  0  0  0  0  0  0  0  0  0  0  0
   -0.4429    1.8293    2.1683 N   0  0  0  0  0  0  0  0  0  0  0  0
    0.2668    1.2118    2.5263 H   0  0  0  0  0  0  0  0  0  0  0  0
   -0.5118    3.1863    2.7135 C   0  0  0  0  0  0  0  0  0  0  0  0
   -1.4470    3.3159    3.2625 H   0  0  0  0  0  0  0  0  0  0  0  0
    0.3243    3.3682    3.3896 H   0  0  0  0  0  0  0  0  0  0  0  0
   -0.4850    3.9172    1.9023 H   0  0  0  0  0  0  0  0  0  0  0  0
  5  6  2  0  0  0  0
  5  7  1  0  0  0  0
  2  3  1  0  0  0  0
  2  4  1  0  0  0  0
  2  5  1  0  0  0  0
  1  2  1  0  0  0  0
 27 28  2  0  0  0  0
 27 29  1  0  0  0  0
 23 24  1  0  0  0  0
 23 25  1  0  0  0  0
 23 26  1  0  0  0  0
 20 21  1  0  0  0  0
 20 22  1  0  0  0  0
 20 23  1  0  0  0  0
 17 18  1  0  0  0  0
 17 19  1  0  0  0  0
 17 20  1  0  0  0  0
 14 15  1  0  0  0  0
 14 16  1  0  0  0  0
 14 17  1  0  0  0  0
 11 12  1  0  0  0  0
 11 13  1  0  0  0  0
 11 14  1  0  0  0  0
  9 10  1  0  0  0  0
  9 11  1  0  0  0  0
  9 27  1  0  0  0  0
  7  8  1  0  0  0  0
  7  9  1  0  0  0  0
 31 32  1  0  0  0  0
 31 33  1  0  0  0  0
 31 34  1  0  0  0  0
 29 30  1  0  0  0  0
 29 31  1  0  0  0  0
M  CHG  1  23   1
M  END
$$$$
default_name
  -OEChem-02102213163D

 34 33  0     1  0  0  0  0  0999 V2000
   -3.8899   -3.6747    1.6490 H   0  0  0  0  0  0  0  0  0  0  0  0
   -3.9109   -2.6717    1.2250 C   0  0  0  0  0  0  0  0  0  0  0  0
   -4.6009   -2.0517    1.7950 H   0  0  0  0  0  0  0  0  0  0  0  0
   -4.2309   -2.7237    0.1860 H   0  0  0  0  0  0  0  0  0  0  0  0
   -2.5229   -2.0787    1.2980 C   0  0  0  0  0  0  0  0  0  0  0  0
   -1.5999   -2.7227    1.7810 O   0  0  0  0  0  0  0  0  0  0  0  0
   -2.3659   -0.8447    0.8120 N   0  0  0  0  0  0  0  0  0  0  0  0
   -3.1749   -0.3807    0.4220 H   0  0  0  0  0  0  0  0  0  0  0  0
   -1.0919   -0.1077    0.8170 C   0  0  1  0  0  0  0  0  0  0  0  0
   -0.4136   -0.6011    1.5155 H   0  0  0  0  0  0  0  0  0  0  0  0
   -0.4834   -0.1723   -0.5965 C   0  0  0  0  0  0  0  0  0  0  0  0
   -0.8422    0.6845   -1.1689 H   0  0  0  0  0  0  0  0  0  0  0  0
    0.6036   -0.1010   -0.5227 H   0  0  0  0  0  0  0  0  0  0  0  0
   -0.8558   -1.4529   -1.3593 C   0  0  0  0  0  0  0  0  0  0  0  0
   -0.2874   -2.2952   -0.9628 H   0  0  0  0  0  0  0  0  0  0  0  0
   -1.9219   -1.6503   -1.2312 H   0  0  0  0  0  0  0  0  0  0  0  0
   -0.5445   -1.2944   -2.8540 C   0  0  0  0  0  0  0  0  0  0  0  0
   -1.1037   -0.4409   -3.2447 H   0  0  0  0  0  0  0  0  0  0  0  0
    0.5239   -1.1064   -2.9772 H   0  0  0  0  0  0  0  0  0  0  0  0
   -0.9389   -2.5629   -3.6207 C   0  0  0  0  0  0  0  0  0  0  0  0
   -0.3744   -3.4063   -3.2098 H   0  0  0  0  0  0  0  0  0  0  0  0
   -2.0022   -2.7561   -3.4496 H   0  0  0  0  0  0  0  0  0  0  0  0
   -0.6701   -2.4277   -5.0746 N   0  3  0  0  0  0  0  0  0  0  0  0
    0.3143   -2.2592   -5.2400 H   0  0  0  0  0  0  0  0  0  0  0  0
   -0.9359   -3.2722   -5.5658 H   0  0  0  0  0  0  0  0  0  0  0  0
   -1.1972   -1.6536   -5.4617 H   0  0  0  0  0  0  0  0  0  0  0  0
   -1.3103    1.3348    1.2791 C   0  0  0  0  0  0  0  0  0  0  0  0
   -2.2333    1.9891    0.8084 O   0  0  0  0  0  0  0  0  0  0  0  0
   -0.4429    1.8293    2.1683 N   0  0  0  0  0  0  0  0  0  0  0  0
    0.2668    1.2118    2.5263 H   0  0  0  0  0  0  0  0  0  0  0  0
   -0.5118    3.1863    2.7135 C   0  0  0  0  0  0  0  0  0  0  0  0
   -1.4470    3.3159    3.2625 H   0  0  0  0  0  0  0  0  0  0  0  0
    0.3243    3.3682    3.3896 H   0  0  0  0  0  0  0  0  0  0  0  0
   -0.4850    3.9172    1.9023 H   0  0  0  0  0  0  0  0  0  0  0  0
  5  6  2  0  0  0  0
  5  7  1  0  0  0  0
  2  3  1  0  0  0  0
  2  4  1  0  0  0  0
  2  5  1  0  0  0  0
  1  2  1  0  0  0  0
 27 28  2  0  0  0  0
 27 29  1  0  0  0  0
 23 24  1  0  0  0  0
 23 25  1  0  0  0  0
 23 26  1  0  0  0  0
 20 21  1  0  0  0  0
 20 22  1  0  0  0  0
 20 23  1  0  0  0  0
 17 18  1  0  0  0  0
 17 19  1  0  0  0  0
 17 20  1  0  0  0  0
 14 15  1  0  0  0  0
 14 16  1  0  0  0  0
 14 17  1  0  0  0  0
 11 12  1  0  0  0  0
 11 13  1  0  0  0  0
 11 14  1  0  0  0  0
  9 10  1  0  0  0  0
  9 11  1  0  0  0  0
  9 27  1  0  0  0  0
  7  8  1  0  0  0  0
  7  9  1  0  0  0  0
 31 32  1  0  0  0  0
 31 33  1  0  0  0  0
 31 34  1  0  0  0  0
 29 30  1  0  0  0  0
 29 31  1  0  0  0  0
M  CHG  1  23   1
M  END
$$$$
default_name
  -OEChem-02102213163D

 34 33  0     1  0  0  0  0  0999 V2000
   -3.8899   -3.6747    1.6490 H   0  0  0  0  0  0  0  0  0  0  0  0
   -3.9109   -2.6717    1.2250 C   0  0  0  0  0  0  0  0  0  0  0  0
   -4.6009   -2.0517    1.7950 H   0  0  0  0  0  0  0  0  0  0  0  0
   -4.2309   -2.7237    0.1860 H   0  0  0  0  0  0  0  0  0  0  0  0
   -2.5229   -2.0787    1.2980 C   0  0  0  0  0  0  0  0  0  0  0  0
   -1.5999   -2.7227    1.7810 O   0  0  0  0  0  0  0  0  0  0  0  0
   -2.3659   -0.8447    0.8120 N   0  0  0  0  0  0  0  0  0  0  0  0
   -3.1749   -0.3807    0.4220 H   0  0  0  0  0  0  0  0  0  0  0  0
   -1.0919   -0.1077    0.8170 C   0  0  1  0  0  0  0  0  0  0  0  0
   -0.4136   -0.6011    1.5155 H   0  0  0  0  0  0  0  0  0  0  0  0
   -0.4834   -0.1723   -0.5965 C   0  0  0  0  0  0  0  0  0  0  0  0
   -0.6155    0.7986   -1.0765 H   0  0  0  0  0  0  0  0  0  0  0  0
    0.5875   -0.3696   -0.5173 H   0  0  0  0  0  0  0  0  0  0  0  0
   -1.1308   -1.2436   -1.4873 C   0  0  0  0  0  0  0  0  0  0  0  0
   -1.0082   -2.2258   -1.0288 H   0  0  0  0  0  0  0  0  0  0  0  0
   -2.1962   -1.0291   -1.5908 H   0  0  0  0  0  0  0  0  0  0  0  0
   -0.4767   -1.2509   -2.8759 C   0  0  0  0  0  0  0  0  0  0  0  0
   -0.5881   -0.2616   -3.3261 H   0  0  0  0  0  0  0  0  0  0  0  0
    0.5864   -1.4750   -2.7675 H   0  0  0  0  0  0  0  0  0  0  0  0
   -1.1388   -2.3031   -3.7743 C   0  0  0  0  0  0  0  0  0  0  0  0
   -1.0232   -3.2844   -3.3027 H   0  0  0  0  0  0  0  0  0  0  0  0
   -2.2092   -2.0844   -3.8350 H   0  0  0  0  0  0  0  0  0  0  0  0
   -0.5404   -2.3151   -5.1331 N   0  3  0  0  0  0  0  0  0  0  0  0
    0.4482   -2.5273   -5.0842 H   0  0  0  0  0  0  0  0  0  0  0  0
   -0.9881   -3.0138   -5.7130 H   0  0  0  0  0  0  0  0  0  0  0  0
   -0.6526   -1.4114   -5.5774 H   0  0  0  0  0  0  0  0  0  0  0  0
   -1.3103    1.3348    1.2791 C   0  0  0  0  0  0  0  0  0  0  0  0
   -2.2333    1.9891    0.8084 O   0  0  0  0  0  0  0  0  0  0  0  0
   -0.4429    1.8293    2.1683 N   0  0  0  0  0  0  0  0  0  0  0  0
    0.2668    1.2118    2.5263 H   0  0  0  0  0  0  0  0  0  0  0  0
   -0.5118    3.1863    2.7135 C   0  0  0  0  0  0  0  0  0  0  0  0
   -1.4470    3.3159    3.2625 H   0  0  0  0  0  0  0  0  0  0  0  0
    0.3243    3.3682    3.3896 H   0  0  0  0  0  0  0  0  0  0  0  0
   -0.4850    3.9172    1.9023 H   0  0  0  0  0  0  0  0  0  0  0  0
  5  6  2  0  0  0  0
  5  7  1  0  0  0  0
  2  3  1  0  0  0  0
  2  4  1  0  0  0  0
  2  5  1  0  0  0  0
  1  2  1  0  0  0  0
 27 28  2  0  0  0  0
 27 29  1  0  0  0  0
 23 24  1  0  0  0  0
 23 25  1  0  0  0  0
 23 26  1  0  0  0  0
 20 21  1  0  0  0  0
 20 22  1  0  0  0  0
 20 23  1  0  0  0  0
 17 18  1  0  0  0  0
 17 19  1  0  0  0  0
 17 20  1  0  0  0  0
 14 15  1  0  0  0  0
 14 16  1  0  0  0  0
 14 17  1  0  0  0  0
 11 12  1  0  0  0  0
 11 13  1  0  0  0  0
 11 14  1  0  0  0  0
  9 10  1  0  0  0  0
  9 11  1  0  0  0  0
  9 27  1  0  0  0  0
  7  8  1  0  0  0  0
  7  9  1  0  0  0  0
 31 32  1  0  0  0  0
 31 33  1  0  0  0  0
 31 34  1  0  0  0  0
 29 30  1  0  0  0  0
 29 31  1  0  0  0  0
M  CHG  1  23   1
M  END
$$$$
default_name
  -OEChem-02102213163D

 34 33  0     1  0  0  0  0  0999 V2000
   -3.8899   -3.6747    1.6490 H   0  0  0  0  0  0  0  0  0  0  0  0
   -3.9109   -2.6717    1.2250 C   0  0  0  0  0  0  0  0  0  0  0  0
   -4.6009   -2.0517    1.7950 H   0  0  0  0  0  0  0  0  0  0  0  0
   -4.2309   -2.7237    0.1860 H   0  0  0  0  0  0  0  0  0  0  0  0
   -2.5229   -2.0787    1.2980 C   0  0  0  0  0  0  0  0  0  0  0  0
   -1.5999   -2.7227    1.7810 O   0  0  0  0  0  0  0  0  0  0  0  0
   -2.3659   -0.8447    0.8120 N   0  0  0  0  0  0  0  0  0  0  0  0
   -3.1749   -0.3807    0.4220 H   0  0  0  0  0  0  0  0  0  0  0  0
   -1.0919   -0.1077    0.8170 C   0  0  1  0  0  0  0  0  0  0  0  0
   -0.4136   -0.6011    1.5155 H   0  0  0  0  0  0  0  0  0  0  0  0
   -0.4834   -0.1723   -0.5965 C   0  0  0  0  0  0  0  0  0  0  0  0
   -0.6155    0.7986   -1.0765 H   0  0  0  0  0  0  0  0  0  0  0  0
    0.5875   -0.3696   -0.5173 H   0  0  0  0  0  0  0  0  0  0  0  0
   -1.1308   -1.2436   -1.4873 C   0  0  0  0  0  0  0  0  0  0  0  0
   -1.2478   -2.1695   -0.9225 H   0  0  0  0  0  0  0  0  0  0  0  0
   -2.1142   -0.8963   -1.8101 H   0  0  0  0  0  0  0  0  0  0  0  0
   -0.2572   -1.5130   -2.7203 C   0  0  0  0  0  0  0  0  0  0  0  0
   -0.1296   -0.5807   -3.2757 H   0  0  0  0  0  0  0  0  0  0  0  0
    0.7216   -1.8687   -2.3923 H   0  0  0  0  0  0  0  0  0  0  0  0
   -0.9145   -2.5644   -3.6231 C   0  0  0  0  0  0  0  0  0  0  0  0
   -1.0404   -3.4867   -3.0469 H   0  0  0  0  0  0  0  0  0  0  0  0
   -1.9094   -2.2071   -3.9054 H   0  0  0  0  0  0  0  0  0  0  0  0
   -0.1009   -2.8269   -4.8370 N   0  3  0  0  0  0  0  0  0  0  0  0
    0.8177   -3.1679   -4.5824 H   0  0  0  0  0  0  0  0  0  0  0  0
   -0.5480   -3.5220   -5.4218 H   0  0  0  0  0  0  0  0  0  0  0  0
    0.0112   -1.9779   -5.3787 H   0  0  0  0  0  0  0  0  0  0  0  0
   -1.3103    1.3348    1.2791 C   0  0  0  0  0  0  0  0  0  0  0  0
   -2.2333    1.9891    0.8084 O   0  0  0  0  0  0  0  0  0  0  0  0
   -0.4429    1.8293    2.1683 N   0  0  0  0  0  0  0  0  0  0  0  0
    0.2668    1.2118    2.5263 H   0  0  0  0  0  0  0  0  0  0  0  0
   -0.5118    3.1863    2.7135 C   0  0  0  0  0  0  0  0  0  0  0  0
   -1.4470    3.3159    3.2625 H   0  0  0  0  0  0  0  0  0  0  0  0
    0.3243    3.3682    3.3896 H   0  0  0  0  0  0  0  0  0  0  0  0
   -0.4850    3.9172    1.9023 H   0  0  0  0  0  0  0  0  0  0  0  0
  5  6  2  0  0  0  0
  5  7  1  0  0  0  0
  2  3  1  0  0  0  0
  2  4  1  0  0  0  0
  2  5  1  0  0  0  0
  1  2  1  0  0  0  0
 27 28  2  0  0  0  0
 27 29  1  0  0  0  0
 23 24  1  0  0  0  0
 23 25  1  0  0  0  0
 23 26  1  0  0  0  0
 20 21  1  0  0  0  0
 20 22  1  0  0  0  0
 20 23  1  0  0  0  0
 17 18  1  0  0  0  0
 17 19  1  0  0  0  0
 17 20  1  0  0  0  0
 14 15  1  0  0  0  0
 14 16  1  0  0  0  0
 14 17  1  0  0  0  0
 11 12  1  0  0  0  0
 11 13  1  0  0  0  0
 11 14  1  0  0  0  0
  9 10  1  0  0  0  0
  9 11  1  0  0  0  0
  9 27  1  0  0  0  0
  7  8  1  0  0  0  0
  7  9  1  0  0  0  0
 31 32  1  0  0  0  0
 31 33  1  0  0  0  0
 31 34  1  0  0  0  0
 29 30  1  0  0  0  0
 29 31  1  0  0  0  0
M  CHG  1  23   1
M  END
$$$$
default_name
  -OEChem-02102213163D

 34 33  0     1  0  0  0  0  0999 V2000
   -3.8899   -3.6747    1.6490 H   0  0  0  0  0  0  0  0  0  0  0  0
   -3.9109   -2.6717    1.2250 C   0  0  0  0  0  0  0  0  0  0  0  0
   -4.6009   -2.0517    1.7950 H   0  0  0  0  0  0  0  0  0  0  0  0
   -4.2309   -2.7237    0.1860 H   0  0  0  0  0  0  0  0  0  0  0  0
   -2.5229   -2.0787    1.2980 C   0  0  0  0  0  0  0  0  0  0  0  0
   -1.5999   -2.7227    1.7810 O   0  0  0  0  0  0  0  0  0  0  0  0
   -2.3659   -0.8447    0.8120 N   0  0  0  0  0  0  0  0  0  0  0  0
   -3.1749   -0.3807    0.4220 H   0  0  0  0  0  0  0  0  0  0  0  0
   -1.0919   -0.1077    0.8170 C   0  0  1  0  0  0  0  0  0  0  0  0
   -0.4136   -0.6011    1.5155 H   0  0  0  0  0  0  0  0  0  0  0  0
   -0.4834   -0.1723   -0.5965 C   0  0  0  0  0  0  0  0  0  0  0  0
   -0.6155    0.7986   -1.0765 H   0  0  0  0  0  0  0  0  0  0  0  0
    0.5875   -0.3696   -0.5173 H   0  0  0  0  0  0  0  0  0  0  0  0
   -1.1308   -1.2436   -1.4873 C   0  0  0  0  0  0  0  0  0  0  0  0
   -1.4899   -2.0675   -0.8691 H   0  0  0  0  0  0  0  0  0  0  0  0
   -1.9755   -0.8043   -2.0215 H   0  0  0  0  0  0  0  0  0  0  0  0
   -0.1125   -1.7821   -2.5018 C   0  0  0  0  0  0  0  0  0  0  0  0
    0.2563   -0.9522   -3.1093 H   0  0  0  0  0  0  0  0  0  0  0  0
    0.7254   -2.2284   -1.9626 H   0  0  0  0  0  0  0  0  0  0  0  0
   -0.7643   -2.8339   -3.4081 C   0  0  0  0  0  0  0  0  0  0  0  0
   -1.1335   -3.6517   -2.7808 H   0  0  0  0  0  0  0  0  0  0  0  0
   -1.6256   -2.3782   -3.9059 H   0  0  0  0  0  0  0  0  0  0  0  0
    0.1935   -3.3550   -4.4159 N   0  3  0  0  0  0  0  0  0  0  0  0
    0.9879   -3.7873   -3.9612 H   0  0  0  0  0  0  0  0  0  0  0  0
   -0.2518   -4.0470   -5.0056 H   0  0  0  0  0  0  0  0  0  0  0  0
    0.5316   -2.6030   -5.0050 H   0  0  0  0  0  0  0  0  0  0  0  0
   -1.3103    1.3348    1.2791 C   0  0  0  0  0  0  0  0  0  0  0  0
   -2.2333    1.9891    0.8084 O   0  0  0  0  0  0  0  0  0  0  0  0
   -0.4429    1.8293    2.1683 N   0  0  0  0  0  0  0  0  0  0  0  0
    0.2668    1.2118    2.5263 H   0  0  0  0  0  0  0  0  0  0  0  0
   -0.5118    3.1863    2.7135 C   0  0  0  0  0  0  0  0  0  0  0  0
   -1.4470    3.3159    3.2625 H   0  0  0  0  0  0  0  0  0  0  0  0
    0.3243    3.3682    3.3896 H   0  0  0  0  0  0  0  0  0  0  0  0
   -0.4850    3.9172    1.9023 H   0  0  0  0  0  0  0  0  0  0  0  0
  5  6  2  0  0  0  0
  5  7  1  0  0  0  0
  2  3  1  0  0  0  0
  2  4  1  0  0  0  0
  2  5  1  0  0  0  0
  1  2  1  0  0  0  0
 27 28  2  0  0  0  0
 27 29  1  0  0  0  0
 23 24  1  0  0  0  0
 23 25  1  0  0  0  0
 23 26  1  0  0  0  0
 20 21  1  0  0  0  0
 20 22  1  0  0  0  0
 20 23  1  0  0  0  0
 17 18  1  0  0  0  0
 17 19  1  0  0  0  0
 17 20  1  0  0  0  0
 14 15  1  0  0  0  0
 14 16  1  0  0  0  0
 14 17  1  0  0  0  0
 11 12  1  0  0  0  0
 11 13  1  0  0  0  0
 11 14  1  0  0  0  0
  9 10  1  0  0  0  0
  9 11  1  0  0  0  0
  9 27  1  0  0  0  0
  7  8  1  0  0  0  0
  7  9  1  0  0  0  0
 31 32  1  0  0  0  0
 31 33  1  0  0  0  0
 31 34  1  0  0  0  0
 29 30  1  0  0  0  0
 29 31  1  0  0  0  0
M  CHG  1  23   1
M  END
$$$$
default_name
  -OEChem-02102213163D

 34 33  0     1  0  0  0  0  0999 V2000
   -3.8899   -3.6747    1.6490 H   0  0  0  0  0  0  0  0  0  0  0  0
   -3.9109   -2.6717    1.2250 C   0  0  0  0  0  0  0  0  0  0  0  0
   -4.6009   -2.0517    1.7950 H   0  0  0  0  0  0  0  0  0  0  0  0
   -4.2309   -2.7237    0.1860 H   0  0  0  0  0  0  0  0  0  0  0  0
   -2.5229   -2.0787    1.2980 C   0  0  0  0  0  0  0  0  0  0  0  0
   -1.5999   -2.7227    1.7810 O   0  0  0  0  0  0  0  0  0  0  0  0
   -2.3659   -0.8447    0.8120 N   0  0  0  0  0  0  0  0  0  0  0  0
   -3.1749   -0.3807    0.4220 H   0  0  0  0  0  0  0  0  0  0  0  0
   -1.0919   -0.1077    0.8170 C   0  0  1  0  0  0  0  0  0  0  0  0
   -0.4136   -0.6011    1.5155 H   0  0  0  0  0  0  0  0  0  0  0  0
   -0.4834   -0.1723   -0.5965 C   0  0  0  0  0  0  0  0  0  0  0  0
   -0.6155    0.7986   -1.0765 H   0  0  0  0  0  0  0  0  0  0  0  0
    0.5875   -0.3696   -0.5173 H   0  0  0  0  0  0  0  0  0  0  0  0
   -1.1308   -1.2436   -1.4873 C   0  0  0  0  0  0  0  0  0  0  0  0
   -1.7182   -1.9268   -0.8724 H   0  0  0  0  0  0  0  0  0  0  0  0
   -1.7895   -0.7594   -2.2108 H   0  0  0  0  0  0  0  0  0  0  0  0
   -0.0526   -2.0399   -2.2353 C   0  0  0  0  0  0  0  0  0  0  0  0
    0.5433   -1.3509   -2.8385 H   0  0  0  0  0  0  0  0  0  0  0  0
    0.5976   -2.5295   -1.5075 H   0  0  0  0  0  0  0  0  0  0  0  0
   -0.6985   -3.0934   -3.1439 C   0  0  0  0  0  0  0  0  0  0  0  0
   -1.2963   -3.7681   -2.5225 H   0  0  0  0  0  0  0  0  0  0  0  0
   -1.3770   -2.5862   -3.8365 H   0  0  0  0  0  0  0  0  0  0  0  0
    0.3225   -3.8633   -3.8985 N   0  3  0  0  0  0  0  0  0  0  0  0
    0.9472   -4.3434   -3.2628 H   0  0  0  0  0  0  0  0  0  0  0  0
   -0.1195   -4.5533   -4.4929 H   0  0  0  0  0  0  0  0  0  0  0  0
    0.8730   -3.2442   -4.4821 H   0  0  0  0  0  0  0  0  0  0  0  0
   -1.3103    1.3348    1.2791 C   0  0  0  0  0  0  0  0  0  0  0  0
   -2.2333    1.9891    0.8084 O   0  0  0  0  0  0  0  0  0  0  0  0
   -0.4429    1.8293    2.1683 N   0  0  0  0  0  0  0  0  0  0  0  0
    0.2668    1.2118    2.5263 H   0  0  0  0  0  0  0  0  0  0  0  0
   -0.5118    3.1863    2.7135 C   0  0  0  0  0  0  0  0  0  0  0  0
   -1.4470    3.3159    3.2625 H   0  0  0  0  0  0  0  0  0  0  0  0
    0.3243    3.3682    3.3896 H   0  0  0  0  0  0  0  0  0  0  0  0
   -0.4850    3.9172    1.9023 H   0  0  0  0  0  0  0  0  0  0  0  0
  5  6  2  0  0  0  0
  5  7  1  0  0  0  0
  2  3  1  0  0  0  0
  2  4  1  0  0  0  0
  2  5  1  0  0  0  0
  1  2  1  0  0  0  0
 27 28  2  0  0  0  0
 27 29  1  0  0  0  0
 23 24  1  0  0  0  0
 23 25  1  0  0  0  0
 23 26  1  0  0  0  0
 20 21  1  0  0  0  0
 20 22  1  0  0  0  0
 20 23  1  0  0  0  0
 17 18  1  0  0  0  0
 17 19  1  0  0  0  0
 17 20  1  0  0  0  0
 14 15  1  0  0  0  0
 14 16  1  0  0  0  0
 14 17  1  0  0  0  0
 11 12  1  0  0  0  0
 11 13  1  0  0  0  0
 11 14  1  0  0  0  0
  9 10  1  0  0  0  0
  9 11  1  0  0  0  0
  9 27  1  0  0  0  0
  7  8  1  0  0  0  0
  7  9  1  0  0  0  0
 31 32  1  0  0  0  0
 31 33  1  0  0  0  0
 31 34  1  0  0  0  0
 29 30  1  0  0  0  0
 29 31  1  0  0  0  0
M  CHG  1  23   1
M  END
$$$$
default_name
  -OEChem-02102213163D

 34 33  0     1  0  0  0  0  0999 V2000
   -3.8899   -3.6747    1.6490 H   0  0  0  0  0  0  0  0  0  0  0  0
   -3.9109   -2.6717    1.2250 C   0  0  0  0  0  0  0  0  0  0  0  0
   -4.6009   -2.0517    1.7950 H   0  0  0  0  0  0  0  0  0  0  0  0
   -4.2309   -2.7237    0.1860 H   0  0  0  0  0  0  0  0  0  0  0  0
   -2.5229   -2.0787    1.2980 C   0  0  0  0  0  0  0  0  0  0  0  0
   -1.5999   -2.7227    1.7810 O   0  0  0  0  0  0  0  0  0  0  0  0
   -2.3659   -0.8447    0.8120 N   0  0  0  0  0  0  0  0  0  0  0  0
   -3.1749   -0.3807    0.4220 H   0  0  0  0  0  0  0  0  0  0  0  0
   -1.0919   -0.1077    0.8170 C   0  0  1  0  0  0  0  0  0  0  0  0
   -0.4136   -0.6011    1.5155 H   0  0  0  0  0  0  0  0  0  0  0  0
   -0.4834   -0.1723   -0.5965 C   0  0  0  0  0  0  0  0  0  0  0  0
   -0.6155    0.7986   -1.0765 H   0  0  0  0  0  0  0  0  0  0  0  0
    0.5875   -0.3696   -0.5173 H   0  0  0  0  0  0  0  0  0  0  0  0
   -1.1308   -1.2436   -1.4873 C   0  0  0  0  0  0  0  0  0  0  0  0
   -1.9169   -1.7571   -0.9321 H   0  0  0  0  0  0  0  0  0  0  0  0
   -1.5690   -0.7645   -2.3649 H   0  0  0  0  0  0  0  0  0  0  0  0
   -0.0815   -2.2689   -1.9389 C   0  0  0  0  0  0  0  0  0  0  0  0
    0.7119   -1.7495   -2.4817 H   0  0  0  0  0  0  0  0  0  0  0  0
    0.3468   -2.7516   -1.0582 H   0  0  0  0  0  0  0  0  0  0  0  0
   -0.7215   -3.3251   -2.8485 C   0  0  0  0  0  0  0  0  0  0  0  0
   -1.5175   -3.8279   -2.2898 H   0  0  0  0  0  0  0  0  0  0  0  0
   -1.1806   -2.8168   -3.7019 H   0  0  0  0  0  0  0  0  0  0  0  0
    0.2775   -4.3172   -3.3199 N   0  3  0  0  0  0  0  0  0  0  0  0
    0.6984   -4.7983   -2.5349 H   0  0  0  0  0  0  0  0  0  0  0  0
   -0.1602   -5.0062   -3.9186 H   0  0  0  0  0  0  0  0  0  0  0  0
    1.0121   -3.8577   -3.8454 H   0  0  0  0  0  0  0  0  0  0  0  0
   -1.3103    1.3348    1.2791 C   0  0  0  0  0  0  0  0  0  0  0  0
   -2.2333    1.9891    0.8084 O   0  0  0  0  0  0  0  0  0  0  0  0
   -0.4429    1.8293    2.1683 N   0  0  0  0  0  0  0  0  0  0  0  0
    0.2668    1.2118    2.5263 H   0  0  0  0  0  0  0  0  0  0  0  0
   -0.5118    3.1863    2.7135 C   0  0  0  0  0  0  0  0  0  0  0  0
   -1.4470    3.3159    3.2625 H   0  0  0  0  0  0  0  0  0  0  0  0
    0.3243    3.3682    3.3896 H   0  0  0  0  0  0  0  0  0  0  0  0
   -0.4850    3.9172    1.9023 H   0  0  0  0  0  0  0  0  0  0  0  0
  5  6  2  0  0  0  0
  5  7  1  0  0  0  0
  2  3  1  0  0  0  0
  2  4  1  0  0  0  0
  2  5  1  0  0  0  0
  1  2  1  0  0  0  0
 27 28  2  0  0  0  0
 27 29  1  0  0  0  0
 23 24  1  0  0  0  0
 23 25  1  0  0  0  0
 23 26  1  0  0  0  0
 20 21  1  0  0  0  0
 20 22  1  0  0  0  0
 20 23  1  0  0  0  0
 17 18  1  0  0  0  0
 17 19  1  0  0  0  0
 17 20  1  0  0  0  0
 14 15  1  0  0  0  0
 14 16  1  0  0  0  0
 14 17  1  0  0  0  0
 11 12  1  0  0  0  0
 11 13  1  0  0  0  0
 11 14  1  0  0  0  0
  9 10  1  0  0  0  0
  9 11  1  0  0  0  0
  9 27  1  0  0  0  0
  7  8  1  0  0  0  0
  7  9  1  0  0  0  0
 31 32  1  0  0  0  0
 31 33  1  0  0  0  0
 31 34  1  0  0  0  0
 29 30  1  0  0  0  0
 29 31  1  0  0  0  0
M  CHG  1  23   1
M  END
$$$$
default_name
  -OEChem-02102213163D

 34 33  0     1  0  0  0  0  0999 V2000
   -3.8899   -3.6747    1.6490 H   0  0  0  0  0  0  0  0  0  0  0  0
   -3.9109   -2.6717    1.2250 C   0  0  0  0  0  0  0  0  0  0  0  0
   -4.6009   -2.0517    1.7950 H   0  0  0  0  0  0  0  0  0  0  0  0
   -4.2309   -2.7237    0.1860 H   0  0  0  0  0  0  0  0  0  0  0  0
   -2.5229   -2.0787    1.2980 C   0  0  0  0  0  0  0  0  0  0  0  0
   -1.5999   -2.7227    1.7810 O   0  0  0  0  0  0  0  0  0  0  0  0
   -2.3659   -0.8447    0.8120 N   0  0  0  0  0  0  0  0  0  0  0  0
   -3.1749   -0.3807    0.4220 H   0  0  0  0  0  0  0  0  0  0  0  0
   -1.0919   -0.1077    0.8170 C   0  0  1  0  0  0  0  0  0  0  0  0
   -0.4136   -0.6011    1.5155 H   0  0  0  0  0  0  0  0  0  0  0  0
   -0.4834   -0.1723   -0.5965 C   0  0  0  0  0  0  0  0  0  0  0  0
   -0.6155    0.7986   -1.0765 H   0  0  0  0  0  0  0  0  0  0  0  0
    0.5875   -0.3696   -0.5173 H   0  0  0  0  0  0  0  0  0  0  0  0
   -1.1308   -1.2436   -1.4873 C   0  0  0  0  0  0  0  0  0  0  0  0
   -2.0727   -1.5698   -1.0441 H   0  0  0  0  0  0  0  0  0  0  0  0
   -1.3289   -0.8193   -2.4735 H   0  0  0  0  0  0  0  0  0  0  0  0
   -0.1973   -2.4534   -1.6329 C   0  0  0  0  0  0  0  0  0  0  0  0
    0.7504   -2.1209   -2.0631 H   0  0  0  0  0  0  0  0  0  0  0  0
   -0.0099   -2.8794   -0.6452 H   0  0  0  0  0  0  0  0  0  0  0  0
   -0.8318   -3.5132   -2.5421 C   0  0  0  0  0  0  0  0  0  0  0  0
   -1.7823   -3.8271   -2.0984 H   0  0  0  0  0  0  0  0  0  0  0  0
   -1.0498   -3.0544   -3.5112 H   0  0  0  0  0  0  0  0  0  0  0  0
    0.0615   -4.6857   -2.7196 N   0  3  0  0  0  0  0  0  0  0  0  0
    0.2584   -5.1210   -1.8271 H   0  0  0  0  0  0  0  0  0  0  0  0
   -0.3712   -5.3750   -3.3218 H   0  0  0  0  0  0  0  0  0  0  0  0
    0.9396   -4.4018   -3.1383 H   0  0  0  0  0  0  0  0  0  0  0  0
   -1.3103    1.3348    1.2791 C   0  0  0  0  0  0  0  0  0  0  0  0
   -2.2333    1.9891    0.8084 O   0  0  0  0  0  0  0  0  0  0  0  0
   -0.4429    1.8293    2.1683 N   0  0  0  0  0  0  0  0  0  0  0  0
    0.2668    1.2118    2.5263 H   0  0  0  0  0  0  0  0  0  0  0  0
   -0.5118    3.1863    2.7135 C   0  0  0  0  0  0  0  0  0  0  0  0
   -1.4470    3.3159    3.2625 H   0  0  0  0  0  0  0  0  0  0  0  0
    0.3243    3.3682    3.3896 H   0  0  0  0  0  0  0  0  0  0  0  0
   -0.4850    3.9172    1.9023 H   0  0  0  0  0  0  0  0  0  0  0  0
  5  6  2  0  0  0  0
  5  7  1  0  0  0  0
  2  3  1  0  0  0  0
  2  4  1  0  0  0  0
  2  5  1  0  0  0  0
  1  2  1  0  0  0  0
 27 28  2  0  0  0  0
 27 29  1  0  0  0  0
 23 24  1  0  0  0  0
 23 25  1  0  0  0  0
 23 26  1  0  0  0  0
 20 21  1  0  0  0  0
 20 22  1  0  0  0  0
 20 23  1  0  0  0  0
 17 18  1  0  0  0  0
 17 19  1  0  0  0  0
 17 20  1  0  0  0  0
 14 15  1  0  0  0  0
 14 16  1  0  0  0  0
 14 17  1  0  0  0  0
 11 12  1  0  0  0  0
 11 13  1  0  0  0  0
 11 14  1  0  0  0  0
  9 10  1  0  0  0  0
  9 11  1  0  0  0  0
  9 27  1  0  0  0  0
  7  8  1  0  0  0  0
  7  9  1  0  0  0  0
 31 32  1  0  0  0  0
 31 33  1  0  0  0  0
 31 34  1  0  0  0  0
 29 30  1  0  0  0  0
 29 31  1  0  0  0  0
M  CHG  1  23   1
M  END
$$$$
default_name
  -OEChem-02102213163D

 34 33  0     1  0  0  0  0  0999 V2000
   -3.8899   -3.6747    1.6490 H   0  0  0  0  0  0  0  0  0  0  0  0
   -3.9109   -2.6717    1.2250 C   0  0  0  0  0  0  0  0  0  0  0  0
   -4.6009   -2.0517    1.7950 H   0  0  0  0  0  0  0  0  0  0  0  0
   -4.2309   -2.7237    0.1860 H   0  0  0  0  0  0  0  0  0  0  0  0
   -2.5229   -2.0787    1.2980 C   0  0  0  0  0  0  0  0  0  0  0  0
   -1.5999   -2.7227    1.7810 O   0  0  0  0  0  0  0  0  0  0  0  0
   -2.3659   -0.8447    0.8120 N   0  0  0  0  0  0  0  0  0  0  0  0
   -3.1749   -0.3807    0.4220 H   0  0  0  0  0  0  0  0  0  0  0  0
   -1.0919   -0.1077    0.8170 C   0  0  1  0  0  0  0  0  0  0  0  0
   -0.4136   -0.6011    1.5155 H   0  0  0  0  0  0  0  0  0  0  0  0
   -0.4834   -0.1723   -0.5965 C   0  0  0  0  0  0  0  0  0  0  0  0
   -0.6155    0.7986   -1.0765 H   0  0  0  0  0  0  0  0  0  0  0  0
    0.5875   -0.3696   -0.5173 H   0  0  0  0  0  0  0  0  0  0  0  0
   -1.1308   -1.2436   -1.4873 C   0  0  0  0  0  0  0  0  0  0  0  0
   -2.1748   -1.3777   -1.2009 H   0  0  0  0  0  0  0  0  0  0  0  0
   -1.0857   -0.9201   -2.5290 H   0  0  0  0  0  0  0  0  0  0  0  0
   -0.3921   -2.5808   -1.3381 C   0  0  0  0  0  0  0  0  0  0  0  0
    0.6564   -2.4397   -1.6113 H   0  0  0  0  0  0  0  0  0  0  0  0
   -0.4481   -2.9043   -0.2968 H   0  0  0  0  0  0  0  0  0  0  0  0
   -1.0219   -3.6449   -2.2455 C   0  0  0  0  0  0  0  0  0  0  0  0
   -2.0724   -3.7657   -1.9614 H   0  0  0  0  0  0  0  0  0  0  0  0
   -0.9935   -3.2827   -3.2776 H   0  0  0  0  0  0  0  0  0  0  0  0
   -0.3107   -4.9439   -2.1386 N   0  3  0  0  0  0  0  0  0  0  0  0
   -0.3427   -5.2894   -1.1876 H   0  0  0  0  0  0  0  0  0  0  0  0
   -0.7380   -5.6344   -2.7432 H   0  0  0  0  0  0  0  0  0  0  0  0
    0.6602   -4.8393   -2.4091 H   0  0  0  0  0  0  0  0  0  0  0  0
   -1.3103    1.3348    1.2791 C   0  0  0  0  0  0  0  0  0  0  0  0
   -2.2333    1.9891    0.8084 O   0  0  0  0  0  0  0  0  0  0  0  0
   -0.4429    1.8293    2.1683 N   0  0  0  0  0  0  0  0  0  0  0  0
    0.2668    1.2118    2.5263 H   0  0  0  0  0  0  0  0  0  0  0  0
   -0.5118    3.1863    2.7135 C   0  0  0  0  0  0  0  0  0  0  0  0
   -1.4470    3.3159    3.2625 H   0  0  0  0  0  0  0  0  0  0  0  0
    0.3243    3.3682    3.3896 H   0  0  0  0  0  0  0  0  0  0  0  0
   -0.4850    3.9172    1.9023 H   0  0  0  0  0  0  0  0  0  0  0  0
  5  6  2  0  0  0  0
  5  7  1  0  0  0  0
  2  3  1  0  0  0  0
  2  4  1  0  0  0  0
  2  5  1  0  0  0  0
  1  2  1  0  0  0  0
 27 28  2  0  0  0  0
 27 29  1  0  0  0  0
 23 24  1  0  0  0  0
 23 25  1  0  0  0  0
 23 26  1  0  0  0  0
 20 21  1  0  0  0  0
 20 22  1  0  0  0  0
 20 23  1  0  0  0  0
 17 18  1  0  0  0  0
 17 19  1  0  0  0  0
 17 20  1  0  0  0  0
 14 15  1  0  0  0  0
 14 16  1  0  0  0  0
 14 17  1  0  0  0  0
 11 12  1  0  0  0  0
 11 13  1  0  0  0  0
 11 14  1  0  0  0  0
  9 10  1  0  0  0  0
  9 11  1  0  0  0  0
  9 27  1  0  0  0  0
  7  8  1  0  0  0  0
  7  9  1  0  0  0  0
 31 32  1  0  0  0  0
 31 33  1  0  0  0  0
 31 34  1  0  0  0  0
 29 30  1  0  0  0  0
 29 31  1  0  0  0  0
M  CHG  1  23   1
M  END
$$$$
default_name
  -OEChem-02102213163D

 34 33  0     1  0  0  0  0  0999 V2000
   -3.8899   -3.6747    1.6490 H   0  0  0  0  0  0  0  0  0  0  0  0
   -3.9109   -2.6717    1.2250 C   0  0  0  0  0  0  0  0  0  0  0  0
   -4.6009   -2.0517    1.7950 H   0  0  0  0  0  0  0  0  0  0  0  0
   -4.2309   -2.7237    0.1860 H   0  0  0  0  0  0  0  0  0  0  0  0
   -2.5229   -2.0787    1.2980 C   0  0  0  0  0  0  0  0  0  0  0  0
   -1.5999   -2.7227    1.7810 O   0  0  0  0  0  0  0  0  0  0  0  0
   -2.3659   -0.8447    0.8120 N   0  0  0  0  0  0  0  0  0  0  0  0
   -3.1749   -0.3807    0.4220 H   0  0  0  0  0  0  0  0  0  0  0  0
   -1.0919   -0.1077    0.8170 C   0  0  1  0  0  0  0  0  0  0  0  0
   -0.4136   -0.6011    1.5155 H   0  0  0  0  0  0  0  0  0  0  0  0
   -0.4834   -0.1723   -0.5965 C   0  0  0  0  0  0  0  0  0  0  0  0
   -0.6155    0.7986   -1.0765 H   0  0  0  0  0  0  0  0  0  0  0  0
    0.5875   -0.3696   -0.5173 H   0  0  0  0  0  0  0  0  0  0  0  0
   -1.1308   -1.2436   -1.4873 C   0  0  0  0  0  0  0  0  0  0  0  0
   -2.2163   -1.1940   -1.3917 H   0  0  0  0  0  0  0  0  0  0  0  0
   -0.8558   -1.0601   -2.5278 H   0  0  0  0  0  0  0  0  0  0  0  0
   -0.6525   -2.6425   -1.0745 C   0  0  0  0  0  0  0  0  0  0  0  0
    0.4362   -2.6843   -1.1570 H   0  0  0  0  0  0  0  0  0  0  0  0
   -0.9380   -2.8246   -0.0365 H   0  0  0  0  0  0  0  0  0  0  0  0
   -1.2788   -3.7113   -1.9790 C   0  0  0  0  0  0  0  0  0  0  0  0
   -2.3681   -3.6479   -1.8880 H   0  0  0  0  0  0  0  0  0  0  0  0
   -1.0155   -3.4861   -3.0169 H   0  0  0  0  0  0  0  0  0  0  0  0
   -0.8139   -5.0739   -1.6165 N   0  3  0  0  0  0  0  0  0  0  0  0
   -1.0640   -5.2922   -0.6601 H   0  0  0  0  0  0  0  0  0  0  0  0
   -1.2357   -5.7669   -2.2222 H   0  0  0  0  0  0  0  0  0  0  0  0
    0.1931   -5.1404   -1.7075 H   0  0  0  0  0  0  0  0  0  0  0  0
   -1.3103    1.3348    1.2791 C   0  0  0  0  0  0  0  0  0  0  0  0
   -2.2333    1.9891    0.8084 O   0  0  0  0  0  0  0  0  0  0  0  0
   -0.4429    1.8293    2.1683 N   0  0  0  0  0  0  0  0  0  0  0  0
    0.2668    1.2118    2.5263 H   0  0  0  0  0  0  0  0  0  0  0  0
   -0.5118    3.1863    2.7135 C   0  0  0  0  0  0  0  0  0  0  0  0
   -1.4470    3.3159    3.2625 H   0  0  0  0  0  0  0  0  0  0  0  0
    0.3243    3.3682    3.3896 H   0  0  0  0  0  0  0  0  0  0  0  0
   -0.4850    3.9172    1.9023 H   0  0  0  0  0  0  0  0  0  0  0  0
  5  6  2  0  0  0  0
  5  7  1  0  0  0  0
  2  3  1  0  0  0  0
  2  4  1  0  0  0  0
  2  5  1  0  0  0  0
  1  2  1  0  0  0  0
 27 28  2  0  0  0  0
 27 29  1  0  0  0  0
 23 24  1  0  0  0  0
 23 25  1  0  0  0  0
 23 26  1  0  0  0  0
 20 21  1  0  0  0  0
 20 22  1  0  0  0  0
 20 23  1  0  0  0  0
 17 18  1  0  0  0  0
 17 19  1  0  0  0  0
 17 20  1  0  0  0  0
 14 15  1  0  0  0  0
 14 16  1  0  0  0  0
 14 17  1  0  0  0  0
 11 12  1  0  0  0  0
 11 13  1  0  0  0  0
 11 14  1  0  0  0  0
  9 10  1  0  0  0  0
  9 11  1  0  0  0  0
  9 27  1  0  0  0  0
  7  8  1  0  0  0  0
  7  9  1  0  0  0  0
 31 32  1  0  0  0  0
 31 33  1  0  0  0  0
 31 34  1  0  0  0  0
 29 30  1  0  0  0  0
 29 31  1  0  0  0  0
M  CHG  1  23   1
M  END
$$$$
default_name
  -OEChem-02102213163D

 34 33  0     1  0  0  0  0  0999 V2000
   -3.8899   -3.6747    1.6490 H   0  0  0  0  0  0  0  0  0  0  0  0
   -3.9109   -2.6717    1.2250 C   0  0  0  0  0  0  0  0  0  0  0  0
   -4.6009   -2.0517    1.7950 H   0  0  0  0  0  0  0  0  0  0  0  0
   -4.2309   -2.7237    0.1860 H   0  0  0  0  0  0  0  0  0  0  0  0
   -2.5229   -2.0787    1.2980 C   0  0  0  0  0  0  0  0  0  0  0  0
   -1.5999   -2.7227    1.7810 O   0  0  0  0  0  0  0  0  0  0  0  0
   -2.3659   -0.8447    0.8120 N   0  0  0  0  0  0  0  0  0  0  0  0
   -3.1749   -0.3807    0.4220 H   0  0  0  0  0  0  0  0  0  0  0  0
   -1.0919   -0.1077    0.8170 C   0  0  1  0  0  0  0  0  0  0  0  0
   -0.4136   -0.6011    1.5155 H   0  0  0  0  0  0  0  0  0  0  0  0
   -0.4834   -0.1723   -0.5965 C   0  0  0  0  0  0  0  0  0  0  0  0
   -0.6155    0.7986   -1.0765 H   0  0  0  0  0  0  0  0  0  0  0  0
    0.5875   -0.3696   -0.5173 H   0  0  0  0  0  0  0  0  0  0  0  0
   -1.1308   -1.2436   -1.4873 C   0  0  0  0  0  0  0  0  0  0  0  0
   -2.1944   -1.0311   -1.6035 H   0  0  0  0  0  0  0  0  0  0  0  0
   -0.6550   -1.2297   -2.4698 H   0  0  0  0  0  0  0  0  0  0  0  0
   -0.9609   -2.6343   -0.8603 C   0  0  0  0  0  0  0  0  0  0  0  0
    0.1048   -2.8380   -0.7314 H   0  0  0  0  0  0  0  0  0  0  0  0
   -1.4462   -2.6457    0.1177 H   0  0  0  0  0  0  0  0  0  0  0  0
   -1.5851   -3.7077   -1.7607 C   0  0  0  0  0  0  0  0  0  0  0  0
   -2.6493   -3.4818   -1.8835 H   0  0  0  0  0  0  0  0  0  0  0  0
   -1.1144   -3.6509   -2.7468 H   0  0  0  0  0  0  0  0  0  0  0  0
   -1.4137   -5.0671   -1.1887 N   0  3  0  0  0  0  0  0  0  0  0  0
   -1.8564   -5.1290   -0.2804 H   0  0  0  0  0  0  0  0  0  0  0  0
   -1.8303   -5.7633   -1.7943 H   0  0  0  0  0  0  0  0  0  0  0  0
   -0.4298   -5.2847   -1.0812 H   0  0  0  0  0  0  0  0  0  0  0  0
   -1.3103    1.3348    1.2791 C   0  0  0  0  0  0  0  0  0  0  0  0
   -2.2333    1.9891    0.8084 O   0  0  0  0  0  0  0  0  0  0  0  0
   -0.4429    1.8293    2.1683 N   0  0  0  0  0  0  0  0  0  0  0  0
    0.2668    1.2118    2.5263 H   0  0  0  0  0  0  0  0  0  0  0  0
   -0.5118    3.1863    2.7135 C   0  0  0  0  0  0  0  0  0  0  0  0
   -1.4470    3.3159    3.2625 H   0  0  0  0  0  0  0  0  0  0  0  0
    0.3243    3.3682    3.3896 H   0  0  0  0  0  0  0  0  0  0  0  0
   -0.4850    3.9172    1.9023 H   0  0  0  0  0  0  0  0  0  0  0  0
  5  6  2  0  0  0  0
  5  7  1  0  0  0  0
  2  3  1  0  0  0  0
  2  4  1  0  0  0  0
  2  5  1  0  0  0  0
  1  2  1  0  0  0  0
 27 28  2  0  0  0  0
 27 29  1  0  0  0  0
 23 24  1  0  0  0  0
 23 25  1  0  0  0  0
 23 26  1  0  0  0  0
 20 21  1  0  0  0  0
 20 22  1  0  0  0  0
 20 23  1  0  0  0  0
 17 18  1  0  0  0  0
 17 19  1  0  0  0  0
 17 20  1  0  0  0  0
 14 15  1  0  0  0  0
 14 16  1  0  0  0  0
 14 17  1  0  0  0  0
 11 12  1  0  0  0  0
 11 13  1  0  0  0  0
 11 14  1  0  0  0  0
  9 10  1  0  0  0  0
  9 11  1  0  0  0  0
  9 27  1  0  0  0  0
  7  8  1  0  0  0  0
  7  9  1  0  0  0  0
 31 32  1  0  0  0  0
 31 33  1  0  0  0  0
 31 34  1  0  0  0  0
 29 30  1  0  0  0  0
 29 31  1  0  0  0  0
M  CHG  1  23   1
M  END
$$$$
default_name
  -OEChem-02102213163D

 34 33  0     1  0  0  0  0  0999 V2000
   -3.8899   -3.6747    1.6490 H   0  0  0  0  0  0  0  0  0  0  0  0
   -3.9109   -2.6717    1.2250 C   0  0  0  0  0  0  0  0  0  0  0  0
   -4.6009   -2.0517    1.7950 H   0  0  0  0  0  0  0  0  0  0  0  0
   -4.2309   -2.7237    0.1860 H   0  0  0  0  0  0  0  0  0  0  0  0
   -2.5229   -2.0787    1.2980 C   0  0  0  0  0  0  0  0  0  0  0  0
   -1.5999   -2.7227    1.7810 O   0  0  0  0  0  0  0  0  0  0  0  0
   -2.3659   -0.8447    0.8120 N   0  0  0  0  0  0  0  0  0  0  0  0
   -3.1749   -0.3807    0.4220 H   0  0  0  0  0  0  0  0  0  0  0  0
   -1.0919   -0.1077    0.8170 C   0  0  1  0  0  0  0  0  0  0  0  0
   -0.4136   -0.6011    1.5155 H   0  0  0  0  0  0  0  0  0  0  0  0
   -0.4834   -0.1723   -0.5965 C   0  0  0  0  0  0  0  0  0  0  0  0
   -0.6155    0.7986   -1.0765 H   0  0  0  0  0  0  0  0  0  0  0  0
    0.5875   -0.3696   -0.5173 H   0  0  0  0  0  0  0  0  0  0  0  0
   -1.1308   -1.2436   -1.4873 C   0  0  0  0  0  0  0  0  0  0  0  0
   -2.1106   -0.9001   -1.8219 H   0  0  0  0  0  0  0  0  0  0  0  0
   -0.4970   -1.4172   -2.3591 H   0  0  0  0  0  0  0  0  0  0  0  0
   -1.2962   -2.5567   -0.7098 C   0  0  0  0  0  0  0  0  0  0  0  0
   -0.3152   -2.8903   -0.3632 H   0  0  0  0  0  0  0  0  0  0  0  0
   -1.9381   -2.3798    0.1555 H   0  0  0  0  0  0  0  0  0  0  0  0
   -1.9197   -3.6346   -1.6054 C   0  0  0  0  0  0  0  0  0  0  0  0
   -2.8968   -3.2786   -1.9479 H   0  0  0  0  0  0  0  0  0  0  0  0
   -1.2834   -3.7658   -2.4858 H   0  0  0  0  0  0  0  0  0  0  0  0
   -2.0692   -4.9239   -0.8845 N   0  3  0  0  0  0  0  0  0  0  0  0
   -2.6658   -4.8111   -0.0744 H   0  0  0  0  0  0  0  0  0  0  0  0
   -2.4813   -5.6239   -1.4888 H   0  0  0  0  0  0  0  0  0  0  0  0
   -1.1663   -5.2622   -0.5730 H   0  0  0  0  0  0  0  0  0  0  0  0
   -1.3103    1.3348    1.2791 C   0  0  0  0  0  0  0  0  0  0  0  0
   -2.2333    1.9891    0.8084 O   0  0  0  0  0  0  0  0  0  0  0  0
   -0.4429    1.8293    2.1683 N   0  0  0  0  0  0  0  0  0  0  0  0
    0.2668    1.2118    2.5263 H   0  0  0  0  0  0  0  0  0  0  0  0
   -0.5118    3.1863    2.7135 C   0  0  0  0  0  0  0  0  0  0  0  0
   -1.4470    3.3159    3.2625 H   0  0  0  0  0  0  0  0  0  0  0  0
    0.3243    3.3682    3.3896 H   0  0  0  0  0  0  0  0  0  0  0  0
   -0.4850    3.9172    1.9023 H   0  0  0  0  0  0  0  0  0  0  0  0
  5  6  2  0  0  0  0
  5  7  1  0  0  0  0
  2  3  1  0  0  0  0
  2  4  1  0  0  0  0
  2  5  1  0  0  0  0
  1  2  1  0  0  0  0
 27 28  2  0  0  0  0
 27 29  1  0  0  0  0
 23 24  1  0  0  0  0
 23 25  1  0  0  0  0
 23 26  1  0  0  0  0
 20 21  1  0  0  0  0
 20 22  1  0  0  0  0
 20 23  1  0  0  0  0
 17 18  1  0  0  0  0
 17 19  1  0  0  0  0
 17 20  1  0  0  0  0
 14 15  1  0  0  0  0
 14 16  1  0  0  0  0
 14 17  1  0  0  0  0
 11 12  1  0  0  0  0
 11 13  1  0  0  0  0
 11 14  1  0  0  0  0
  9 10  1  0  0  0  0
  9 11  1  0  0  0  0
  9 27  1  0  0  0  0
  7  8  1  0  0  0  0
  7  9  1  0  0  0  0
 31 32  1  0  0  0  0
 31 33  1  0  0  0  0
 31 34  1  0  0  0  0
 29 30  1  0  0  0  0
 29 31  1  0  0  0  0
M  CHG  1  23   1
M  END
$$$$
default_name
  -OEChem-02102213163D

 34 33  0     1  0  0  0  0  0999 V2000
   -3.8899   -3.6747    1.6490 H   0  0  0  0  0  0  0  0  0  0  0  0
   -3.9109   -2.6717    1.2250 C   0  0  0  0  0  0  0  0  0  0  0  0
   -4.6009   -2.0517    1.7950 H   0  0  0  0  0  0  0  0  0  0  0  0
   -4.2309   -2.7237    0.1860 H   0  0  0  0  0  0  0  0  0  0  0  0
   -2.5229   -2.0787    1.2980 C   0  0  0  0  0  0  0  0  0  0  0  0
   -1.5999   -2.7227    1.7810 O   0  0  0  0  0  0  0  0  0  0  0  0
   -2.3659   -0.8447    0.8120 N   0  0  0  0  0  0  0  0  0  0  0  0
   -3.1749   -0.3807    0.4220 H   0  0  0  0  0  0  0  0  0  0  0  0
   -1.0919   -0.1077    0.8170 C   0  0  1  0  0  0  0  0  0  0  0  0
   -0.4136   -0.6011    1.5155 H   0  0  0  0  0  0  0  0  0  0  0  0
   -0.4834   -0.1723   -0.5965 C   0  0  0  0  0  0  0  0  0  0  0  0
   -0.6155    0.7986   -1.0765 H   0  0  0  0  0  0  0  0  0  0  0  0
    0.5875   -0.3696   -0.5173 H   0  0  0  0  0  0  0  0  0  0  0  0
   -1.1308   -1.2436   -1.4873 C   0  0  0  0  0  0  0  0  0  0  0  0
   -1.9705   -0.8100   -2.0321 H   0  0  0  0  0  0  0  0  0  0  0  0
   -0.3925   -1.6101   -2.2032 H   0  0  0  0  0  0  0  0  0  0  0  0
   -1.6356   -2.4151   -0.6335 C   0  0  0  0  0  0  0  0  0  0  0  0
   -0.7951   -2.8376   -0.0778 H   0  0  0  0  0  0  0  0  0  0  0  0
   -2.3802   -2.0450    0.0742 H   0  0  0  0  0  0  0  0  0  0  0  0
   -2.2600   -3.4967   -1.5238 C   0  0  0  0  0  0  0  0  0  0  0  0
   -3.0938   -3.0522   -2.0770 H   0  0  0  0  0  0  0  0  0  0  0  0
   -1.5110   -3.8229   -2.2517 H   0  0  0  0  0  0  0  0  0  0  0  0
   -2.7359   -4.6540   -0.7246 N   0  3  0  0  0  0  0  0  0  0  0  0
   -3.4371   -4.3601   -0.0562 H   0  0  0  0  0  0  0  0  0  0  0  0
   -3.1444   -5.3583   -1.3263 H   0  0  0  0  0  0  0  0  0  0  0  0
   -1.9660   -5.0746   -0.2174 H   0  0  0  0  0  0  0  0  0  0  0  0
   -1.3103    1.3348    1.2791 C   0  0  0  0  0  0  0  0  0  0  0  0
   -2.2333    1.9891    0.8084 O   0  0  0  0  0  0  0  0  0  0  0  0
   -0.4429    1.8293    2.1683 N   0  0  0  0  0  0  0  0  0  0  0  0
    0.2668    1.2118    2.5263 H   0  0  0  0  0  0  0  0  0  0  0  0
   -0.5118    3.1863    2.7135 C   0  0  0  0  0  0  0  0  0  0  0  0
   -1.4470    3.3159    3.2625 H   0  0  0  0  0  0  0  0  0  0  0  0
    0.3243    3.3682    3.3896 H   0  0  0  0  0  0  0  0  0  0  0  0
   -0.4850    3.9172    1.9023 H   0  0  0  0  0  0  0  0  0  0  0  0
  5  6  2  0  0  0  0
  5  7  1  0  0  0  0
  2  3  1  0  0  0  0
  2  4  1  0  0  0  0
  2  5  1  0  0  0  0
  1  2  1  0  0  0  0
 27 28  2  0  0  0  0
 27 29  1  0  0  0  0
 23 24  1  0  0  0  0
 23 25  1  0  0  0  0
 23 26  1  0  0  0  0
 20 21  1  0  0  0  0
 20 22  1  0  0  0  0
 20 23  1  0  0  0  0
 17 18  1  0  0  0  0
 17 19  1  0  0  0  0
 17 20  1  0  0  0  0
 14 15  1  0  0  0  0
 14 16  1  0  0  0  0
 14 17  1  0  0  0  0
 11 12  1  0  0  0  0
 11 13  1  0  0  0  0
 11 14  1  0  0  0  0
  9 10  1  0  0  0  0
  9 11  1  0  0  0  0
  9 27  1  0  0  0  0
  7  8  1  0  0  0  0
  7  9  1  0  0  0  0
 31 32  1  0  0  0  0
 31 33  1  0  0  0  0
 31 34  1  0  0  0  0
 29 30  1  0  0  0  0
 29 31  1  0  0  0  0
M  CHG  1  23   1
M  END
$$$$
default_name
  -OEChem-02102213163D

 34 33  0     1  0  0  0  0  0999 V2000
   -3.8899   -3.6747    1.6490 H   0  0  0  0  0  0  0  0  0  0  0  0
   -3.9109   -2.6717    1.2250 C   0  0  0  0  0  0  0  0  0  0  0  0
   -4.6009   -2.0517    1.7950 H   0  0  0  0  0  0  0  0  0  0  0  0
   -4.2309   -2.7237    0.1860 H   0  0  0  0  0  0  0  0  0  0  0  0
   -2.5229   -2.0787    1.2980 C   0  0  0  0  0  0  0  0  0  0  0  0
   -1.5999   -2.7227    1.7810 O   0  0  0  0  0  0  0  0  0  0  0  0
   -2.3659   -0.8447    0.8120 N   0  0  0  0  0  0  0  0  0  0  0  0
   -3.1749   -0.3807    0.4220 H   0  0  0  0  0  0  0  0  0  0  0  0
   -1.0919   -0.1077    0.8170 C   0  0  1  0  0  0  0  0  0  0  0  0
   -0.4136   -0.6011    1.5155 H   0  0  0  0  0  0  0  0  0  0  0  0
   -0.4834   -0.1723   -0.5965 C   0  0  0  0  0  0  0  0  0  0  0  0
   -0.6155    0.7986   -1.0765 H   0  0  0  0  0  0  0  0  0  0  0  0
    0.5875   -0.3696   -0.5173 H   0  0  0  0  0  0  0  0  0  0  0  0
   -1.1308   -1.2436   -1.4873 C   0  0  0  0  0  0  0  0  0  0  0  0
   -1.7838   -0.7669   -2.2196 H   0  0  0  0  0  0  0  0  0  0  0  0
   -0.3486   -1.7950   -2.0126 H   0  0  0  0  0  0  0  0  0  0  0  0
   -1.9560   -2.2190   -0.6365 C   0  0  0  0  0  0  0  0  0  0  0  0
   -1.3023   -2.6835    0.1056 H   0  0  0  0  0  0  0  0  0  0  0  0
   -2.7423   -1.6642   -0.1207 H   0  0  0  0  0  0  0  0  0  0  0  0
   -2.5828   -3.3036   -1.5215 C   0  0  0  0  0  0  0  0  0  0  0  0
   -3.2268   -2.8181   -2.2619 H   0  0  0  0  0  0  0  0  0  0  0  0
   -1.7816   -3.8185   -2.0604 H   0  0  0  0  0  0  0  0  0  0  0  0
   -3.3681   -4.2758   -0.7199 N   0  3  0  0  0  0  0  0  0  0  0  0
   -4.1177   -3.8068   -0.2270 H   0  0  0  0  0  0  0  0  0  0  0  0
   -3.7744   -4.9844   -1.3180 H   0  0  0  0  0  0  0  0  0  0  0  0
   -2.7744   -4.7345   -0.0387 H   0  0  0  0  0  0  0  0  0  0  0  0
   -1.3103    1.3348    1.2791 C   0  0  0  0  0  0  0  0  0  0  0  0
   -2.2333    1.9891    0.8084 O   0  0  0  0  0  0  0  0  0  0  0  0
   -0.4429    1.8293    2.1683 N   0  0  0  0  0  0  0  0  0  0  0  0
    0.2668    1.2118    2.5263 H   0  0  0  0  0  0  0  0  0  0  0  0
   -0.5118    3.1863    2.7135 C   0  0  0  0  0  0  0  0  0  0  0  0
   -1.4470    3.3159    3.2625 H   0  0  0  0  0  0  0  0  0  0  0  0
    0.3243    3.3682    3.3896 H   0  0  0  0  0  0  0  0  0  0  0  0
   -0.4850    3.9172    1.9023 H   0  0  0  0  0  0  0  0  0  0  0  0
  5  6  2  0  0  0  0
  5  7  1  0  0  0  0
  2  3  1  0  0  0  0
  2  4  1  0  0  0  0
  2  5  1  0  0  0  0
  1  2  1  0  0  0  0
 27 28  2  0  0  0  0
 27 29  1  0  0  0  0
 23 24  1  0  0  0  0
 23 25  1  0  0  0  0
 23 26  1  0  0  0  0
 20 21  1  0  0  0  0
 20 22  1  0  0  0  0
 20 23  1  0  0  0  0
 17 18  1  0  0  0  0
 17 19  1  0  0  0  0
 17 20  1  0  0  0  0
 14 15  1  0  0  0  0
 14 16  1  0  0  0  0
 14 17  1  0  0  0  0
 11 12  1  0  0  0  0
 11 13  1  0  0  0  0
 11 14  1  0  0  0  0
  9 10  1  0  0  0  0
  9 11  1  0  0  0  0
  9 27  1  0  0  0  0
  7  8  1  0  0  0  0
  7  9  1  0  0  0  0
 31 32  1  0  0  0  0
 31 33  1  0  0  0  0
 31 34  1  0  0  0  0
 29 30  1  0  0  0  0
 29 31  1  0  0  0  0
M  CHG  1  23   1
M  END
$$$$
default_name
  -OEChem-02102213163D

 34 33  0     1  0  0  0  0  0999 V2000
   -3.8899   -3.6747    1.6490 H   0  0  0  0  0  0  0  0  0  0  0  0
   -3.9109   -2.6717    1.2250 C   0  0  0  0  0  0  0  0  0  0  0  0
   -4.6009   -2.0517    1.7950 H   0  0  0  0  0  0  0  0  0  0  0  0
   -4.2309   -2.7237    0.1860 H   0  0  0  0  0  0  0  0  0  0  0  0
   -2.5229   -2.0787    1.2980 C   0  0  0  0  0  0  0  0  0  0  0  0
   -1.5999   -2.7227    1.7810 O   0  0  0  0  0  0  0  0  0  0  0  0
   -2.3659   -0.8447    0.8120 N   0  0  0  0  0  0  0  0  0  0  0  0
   -3.1749   -0.3807    0.4220 H   0  0  0  0  0  0  0  0  0  0  0  0
   -1.0919   -0.1077    0.8170 C   0  0  1  0  0  0  0  0  0  0  0  0
   -0.4136   -0.6011    1.5155 H   0  0  0  0  0  0  0  0  0  0  0  0
   -0.4834   -0.1723   -0.5965 C   0  0  0  0  0  0  0  0  0  0  0  0
   -0.6155    0.7986   -1.0765 H   0  0  0  0  0  0  0  0  0  0  0  0
    0.5875   -0.3696   -0.5173 H   0  0  0  0  0  0  0  0  0  0  0  0
   -1.1308   -1.2436   -1.4873 C   0  0  0  0  0  0  0  0  0  0  0  0
   -1.5631   -0.7738   -2.3717 H   0  0  0  0  0  0  0  0  0  0  0  0
   -0.3683   -1.9594   -1.8005 H   0  0  0  0  0  0  0  0  0  0  0  0
   -2.2354   -1.9818   -0.7186 C   0  0  0  0  0  0  0  0  0  0  0  0
   -1.8022   -2.4386    0.1744 H   0  0  0  0  0  0  0  0  0  0  0  0
   -2.9997   -1.2633   -0.4157 H   0  0  0  0  0  0  0  0  0  0  0  0
   -2.8659   -3.0684   -1.5985 C   0  0  0  0  0  0  0  0  0  0  0  0
   -3.2867   -2.5921   -2.4901 H   0  0  0  0  0  0  0  0  0  0  0  0
   -2.0769   -3.7526   -1.9249 H   0  0  0  0  0  0  0  0  0  0  0  0
   -3.9229   -3.8151   -0.8707 N   0  3  0  0  0  0  0  0  0  0  0  0
   -4.6612   -3.1887   -0.5751 H   0  0  0  0  0  0  0  0  0  0  0  0
   -4.3283   -4.5279   -1.4644 H   0  0  0  0  0  0  0  0  0  0  0  0
   -3.5366   -4.2653   -0.0491 H   0  0  0  0  0  0  0  0  0  0  0  0
   -1.3103    1.3348    1.2791 C   0  0  0  0  0  0  0  0  0  0  0  0
   -2.2333    1.9891    0.8084 O   0  0  0  0  0  0  0  0  0  0  0  0
   -0.4429    1.8293    2.1683 N   0  0  0  0  0  0  0  0  0  0  0  0
    0.2668    1.2118    2.5263 H   0  0  0  0  0  0  0  0  0  0  0  0
   -0.5118    3.1863    2.7135 C   0  0  0  0  0  0  0  0  0  0  0  0
   -1.4470    3.3159    3.2625 H   0  0  0  0  0  0  0  0  0  0  0  0
    0.3243    3.3682    3.3896 H   0  0  0  0  0  0  0  0  0  0  0  0
   -0.4850    3.9172    1.9023 H   0  0  0  0  0  0  0  0  0  0  0  0
  5  6  2  0  0  0  0
  5  7  1  0  0  0  0
  2  3  1  0  0  0  0
  2  4  1  0  0  0  0
  2  5  1  0  0  0  0
  1  2  1  0  0  0  0
 27 28  2  0  0  0  0
 27 29  1  0  0  0  0
 23 24  1  0  0  0  0
 23 25  1  0  0  0  0
 23 26  1  0  0  0  0
 20 21  1  0  0  0  0
 20 22  1  0  0  0  0
 20 23  1  0  0  0  0
 17 18  1  0  0  0  0
 17 19  1  0  0  0  0
 17 20  1  0  0  0  0
 14 15  1  0  0  0  0
 14 16  1  0  0  0  0
 14 17  1  0  0  0  0
 11 12  1  0  0  0  0
 11 13  1  0  0  0  0
 11 14  1  0  0  0  0
  9 10  1  0  0  0  0
  9 11  1  0  0  0  0
  9 27  1  0  0  0  0
  7  8  1  0  0  0  0
  7  9  1  0  0  0  0
 31 32  1  0  0  0  0
 31 33  1  0  0  0  0
 31 34  1  0  0  0  0
 29 30  1  0  0  0  0
 29 31  1  0  0  0  0
M  CHG  1  23   1
M  END
$$$$
default_name
  -OEChem-02102213163D

 34 33  0     1  0  0  0  0  0999 V2000
   -3.8899   -3.6747    1.6490 H   0  0  0  0  0  0  0  0  0  0  0  0
   -3.9109   -2.6717    1.2250 C   0  0  0  0  0  0  0  0  0  0  0  0
   -4.6009   -2.0517    1.7950 H   0  0  0  0  0  0  0  0  0  0  0  0
   -4.2309   -2.7237    0.1860 H   0  0  0  0  0  0  0  0  0  0  0  0
   -2.5229   -2.0787    1.2980 C   0  0  0  0  0  0  0  0  0  0  0  0
   -1.5999   -2.7227    1.7810 O   0  0  0  0  0  0  0  0  0  0  0  0
   -2.3659   -0.8447    0.8120 N   0  0  0  0  0  0  0  0  0  0  0  0
   -3.1749   -0.3807    0.4220 H   0  0  0  0  0  0  0  0  0  0  0  0
   -1.0919   -0.1077    0.8170 C   0  0  1  0  0  0  0  0  0  0  0  0
   -0.4136   -0.6011    1.5155 H   0  0  0  0  0  0  0  0  0  0  0  0
   -0.4834   -0.1723   -0.5965 C   0  0  0  0  0  0  0  0  0  0  0  0
   -0.6155    0.7986   -1.0765 H   0  0  0  0  0  0  0  0  0  0  0  0
    0.5875   -0.3696   -0.5173 H   0  0  0  0  0  0  0  0  0  0  0  0
   -1.1308   -1.2436   -1.4873 C   0  0  0  0  0  0  0  0  0  0  0  0
   -1.3235   -0.8301   -2.4781 H   0  0  0  0  0  0  0  0  0  0  0  0
   -0.4504   -2.0922   -1.5813 H   0  0  0  0  0  0  0  0  0  0  0  0
   -2.4550   -1.7198   -0.8742 C   0  0  0  0  0  0  0  0  0  0  0  0
   -2.2608   -2.1195    0.1240 H   0  0  0  0  0  0  0  0  0  0  0  0
   -3.1349   -0.8695   -0.7909 H   0  0  0  0  0  0  0  0  0  0  0  0
   -3.0903   -2.8071   -1.7497 C   0  0  0  0  0  0  0  0  0  0  0  0
   -3.2696   -2.3898   -2.7459 H   0  0  0  0  0  0  0  0  0  0  0  0
   -2.3767   -3.6300   -1.8546 H   0  0  0  0  0  0  0  0  0  0  0  0
   -4.3624   -3.3033   -1.1667 N   0  3  0  0  0  0  0  0  0  0  0  0
   -5.0307   -2.5482   -1.0769 H   0  0  0  0  0  0  0  0  0  0  0  0
   -4.7683   -4.0198   -1.7556 H   0  0  0  0  0  0  0  0  0  0  0  0
   -4.2004   -3.6988   -0.2479 H   0  0  0  0  0  0  0  0  0  0  0  0
   -1.3103    1.3348    1.2791 C   0  0  0  0  0  0  0  0  0  0  0  0
   -2.2333    1.9891    0.8084 O   0  0  0  0  0  0  0  0  0  0  0  0
   -0.4429    1.8293    2.1683 N   0  0  0  0  0  0  0  0  0  0  0  0
    0.2668    1.2118    2.5263 H   0  0  0  0  0  0  0  0  0  0  0  0
   -0.5118    3.1863    2.7135 C   0  0  0  0  0  0  0  0  0  0  0  0
   -1.4470    3.3159    3.2625 H   0  0  0  0  0  0  0  0  0  0  0  0
    0.3243    3.3682    3.3896 H   0  0  0  0  0  0  0  0  0  0  0  0
   -0.4850    3.9172    1.9023 H   0  0  0  0  0  0  0  0  0  0  0  0
  5  6  2  0  0  0  0
  5  7  1  0  0  0  0
  2  3  1  0  0  0  0
  2  4  1  0  0  0  0
  2  5  1  0  0  0  0
  1  2  1  0  0  0  0
 27 28  2  0  0  0  0
 27 29  1  0  0  0  0
 23 24  1  0  0  0  0
 23 25  1  0  0  0  0
 23 26  1  0  0  0  0
 20 21  1  0  0  0  0
 20 22  1  0  0  0  0
 20 23  1  0  0  0  0
 17 18  1  0  0  0  0
 17 19  1  0  0  0  0
 17 20  1  0  0  0  0
 14 15  1  0  0  0  0
 14 16  1  0  0  0  0
 14 17  1  0  0  0  0
 11 12  1  0  0  0  0
 11 13  1  0  0  0  0
 11 14  1  0  0  0  0
  9 10  1  0  0  0  0
  9 11  1  0  0  0  0
  9 27  1  0  0  0  0
  7  8  1  0  0  0  0
  7  9  1  0  0  0  0
 31 32  1  0  0  0  0
 31 33  1  0  0  0  0
 31 34  1  0  0  0  0
 29 30  1  0  0  0  0
 29 31  1  0  0  0  0
M  CHG  1  23   1
M  END
$$$$
default_name
  -OEChem-02102213163D

 34 33  0     1  0  0  0  0  0999 V2000
   -3.8899   -3.6747    1.6490 H   0  0  0  0  0  0  0  0  0  0  0  0
   -3.9109   -2.6717    1.2250 C   0  0  0  0  0  0  0  0  0  0  0  0
   -4.6009   -2.0517    1.7950 H   0  0  0  0  0  0  0  0  0  0  0  0
   -4.2309   -2.7237    0.1860 H   0  0  0  0  0  0  0  0  0  0  0  0
   -2.5229   -2.0787    1.2980 C   0  0  0  0  0  0  0  0  0  0  0  0
   -1.5999   -2.7227    1.7810 O   0  0  0  0  0  0  0  0  0  0  0  0
   -2.3659   -0.8447    0.8120 N   0  0  0  0  0  0  0  0  0  0  0  0
   -3.1749   -0.3807    0.4220 H   0  0  0  0  0  0  0  0  0  0  0  0
   -1.0919   -0.1077    0.8170 C   0  0  1  0  0  0  0  0  0  0  0  0
   -0.4136   -0.6011    1.5155 H   0  0  0  0  0  0  0  0  0  0  0  0
   -0.4834   -0.1723   -0.5965 C   0  0  0  0  0  0  0  0  0  0  0  0
   -0.6155    0.7986   -1.0765 H   0  0  0  0  0  0  0  0  0  0  0  0
    0.5875   -0.3696   -0.5173 H   0  0  0  0  0  0  0  0  0  0  0  0
   -1.1308   -1.2436   -1.4873 C   0  0  0  0  0  0  0  0  0  0  0  0
   -1.0814   -0.9321   -2.5315 H   0  0  0  0  0  0  0  0  0  0  0  0
   -0.5891   -2.1842   -1.3698 H   0  0  0  0  0  0  0  0  0  0  0  0
   -2.5996   -1.4506   -1.0927 C   0  0  0  0  0  0  0  0  0  0  0  0
   -2.6467   -1.7480   -0.0423 H   0  0  0  0  0  0  0  0  0  0  0  0
   -3.1388   -0.5099   -1.2207 H   0  0  0  0  0  0  0  0  0  0  0  0
   -3.2405   -2.5376   -1.9647 C   0  0  0  0  0  0  0  0  0  0  0  0
   -3.1764   -2.2248   -3.0120 H   0  0  0  0  0  0  0  0  0  0  0  0
   -2.6606   -3.4588   -1.8541 H   0  0  0  0  0  0  0  0  0  0  0  0
   -4.6568   -2.7753   -1.5878 N   0  3  0  0  0  0  0  0  0  0  0  0
   -5.2009   -1.9287   -1.6982 H   0  0  0  0  0  0  0  0  0  0  0  0
   -5.0646   -3.4947   -2.1718 H   0  0  0  0  0  0  0  0  0  0  0  0
   -4.7208   -3.0736   -0.6215 H   0  0  0  0  0  0  0  0  0  0  0  0
   -1.3103    1.3348    1.2791 C   0  0  0  0  0  0  0  0  0  0  0  0
   -2.2333    1.9891    0.8084 O   0  0  0  0  0  0  0  0  0  0  0  0
   -0.4429    1.8293    2.1683 N   0  0  0  0  0  0  0  0  0  0  0  0
    0.2668    1.2118    2.5263 H   0  0  0  0  0  0  0  0  0  0  0  0
   -0.5118    3.1863    2.7135 C   0  0  0  0  0  0  0  0  0  0  0  0
   -1.4470    3.3159    3.2625 H   0  0  0  0  0  0  0  0  0  0  0  0
    0.3243    3.3682    3.3896 H   0  0  0  0  0  0  0  0  0  0  0  0
   -0.4850    3.9172    1.9023 H   0  0  0  0  0  0  0  0  0  0  0  0
  5  6  2  0  0  0  0
  5  7  1  0  0  0  0
  2  3  1  0  0  0  0
  2  4  1  0  0  0  0
  2  5  1  0  0  0  0
  1  2  1  0  0  0  0
 27 28  2  0  0  0  0
 27 29  1  0  0  0  0
 23 24  1  0  0  0  0
 23 25  1  0  0  0  0
 23 26  1  0  0  0  0
 20 21  1  0  0  0  0
 20 22  1  0  0  0  0
 20 23  1  0  0  0  0
 17 18  1  0  0  0  0
 17 19  1  0  0  0  0
 17 20  1  0  0  0  0
 14 15  1  0  0  0  0
 14 16  1  0  0  0  0
 14 17  1  0  0  0  0
 11 12  1  0  0  0  0
 11 13  1  0  0  0  0
 11 14  1  0  0  0  0
  9 10  1  0  0  0  0
  9 11  1  0  0  0  0
  9 27  1  0  0  0  0
  7  8  1  0  0  0  0
  7  9  1  0  0  0  0
 31 32  1  0  0  0  0
 31 33  1  0  0  0  0
 31 34  1  0  0  0  0
 29 30  1  0  0  0  0
 29 31  1  0  0  0  0
M  CHG  1  23   1
M  END
$$$$
default_name
  -OEChem-02102213163D

 34 33  0     1  0  0  0  0  0999 V2000
   -3.8899   -3.6747    1.6490 H   0  0  0  0  0  0  0  0  0  0  0  0
   -3.9109   -2.6717    1.2250 C   0  0  0  0  0  0  0  0  0  0  0  0
   -4.6009   -2.0517    1.7950 H   0  0  0  0  0  0  0  0  0  0  0  0
   -4.2309   -2.7237    0.1860 H   0  0  0  0  0  0  0  0  0  0  0  0
   -2.5229   -2.0787    1.2980 C   0  0  0  0  0  0  0  0  0  0  0  0
   -1.5999   -2.7227    1.7810 O   0  0  0  0  0  0  0  0  0  0  0  0
   -2.3659   -0.8447    0.8120 N   0  0  0  0  0  0  0  0  0  0  0  0
   -3.1749   -0.3807    0.4220 H   0  0  0  0  0  0  0  0  0  0  0  0
   -1.0919   -0.1077    0.8170 C   0  0  1  0  0  0  0  0  0  0  0  0
   -0.4136   -0.6011    1.5155 H   0  0  0  0  0  0  0  0  0  0  0  0
   -0.4834   -0.1723   -0.5965 C   0  0  0  0  0  0  0  0  0  0  0  0
   -0.6155    0.7986   -1.0765 H   0  0  0  0  0  0  0  0  0  0  0  0
    0.5875   -0.3696   -0.5173 H   0  0  0  0  0  0  0  0  0  0  0  0
   -1.1308   -1.2436   -1.4873 C   0  0  0  0  0  0  0  0  0  0  0  0
   -0.8531   -1.0728   -2.5282 H   0  0  0  0  0  0  0  0  0  0  0  0
   -0.7750   -2.2291   -1.1806 H   0  0  0  0  0  0  0  0  0  0  0  0
   -2.6596   -1.1928   -1.3592 C   0  0  0  0  0  0  0  0  0  0  0  0
   -2.9337   -1.3494   -0.3131 H   0  0  0  0  0  0  0  0  0  0  0  0
   -3.0109   -0.2088   -1.6758 H   0  0  0  0  0  0  0  0  0  0  0  0
   -3.3063   -2.2781   -2.2289 C   0  0  0  0  0  0  0  0  0  0  0  0
   -3.0137   -2.1084   -3.2702 H   0  0  0  0  0  0  0  0  0  0  0  0
   -2.9092   -3.2509   -1.9235 H   0  0  0  0  0  0  0  0  0  0  0  0
   -4.7859   -2.2670   -2.1053 N   0  3  0  0  0  0  0  0  0  0  0  0
   -5.1602   -1.3726   -2.3966 H   0  0  0  0  0  0  0  0  0  0  0  0
   -5.1969   -2.9884   -2.6845 H   0  0  0  0  0  0  0  0  0  0  0  0
   -5.0622   -2.4324   -1.1445 H   0  0  0  0  0  0  0  0  0  0  0  0
   -1.3103    1.3348    1.2791 C   0  0  0  0  0  0  0  0  0  0  0  0
   -2.2333    1.9891    0.8084 O   0  0  0  0  0  0  0  0  0  0  0  0
   -0.4429    1.8293    2.1683 N   0  0  0  0  0  0  0  0  0  0  0  0
    0.2668    1.2118    2.5263 H   0  0  0  0  0  0  0  0  0  0  0  0
   -0.5118    3.1863    2.7135 C   0  0  0  0  0  0  0  0  0  0  0  0
   -1.4470    3.3159    3.2625 H   0  0  0  0  0  0  0  0  0  0  0  0
    0.3243    3.3682    3.3896 H   0  0  0  0  0  0  0  0  0  0  0  0
   -0.4850    3.9172    1.9023 H   0  0  0  0  0  0  0  0  0  0  0  0
  5  6  2  0  0  0  0
  5  7  1  0  0  0  0
  2  3  1  0  0  0  0
  2  4  1  0  0  0  0
  2  5  1  0  0  0  0
  1  2  1  0  0  0  0
 27 28  2  0  0  0  0
 27 29  1  0  0  0  0
 23 24  1  0  0  0  0
 23 25  1  0  0  0  0
 23 26  1  0  0  0  0
 20 21  1  0  0  0  0
 20 22  1  0  0  0  0
 20 23  1  0  0  0  0
 17 18  1  0  0  0  0
 17 19  1  0  0  0  0
 17 20  1  0  0  0  0
 14 15  1  0  0  0  0
 14 16  1  0  0  0  0
 14 17  1  0  0  0  0
 11 12  1  0  0  0  0
 11 13  1  0  0  0  0
 11 14  1  0  0  0  0
  9 10  1  0  0  0  0
  9 11  1  0  0  0  0
  9 27  1  0  0  0  0
  7  8  1  0  0  0  0
  7  9  1  0  0  0  0
 31 32  1  0  0  0  0
 31 33  1  0  0  0  0
 31 34  1  0  0  0  0
 29 30  1  0  0  0  0
 29 31  1  0  0  0  0
M  CHG  1  23   1
M  END
$$$$
default_name
  -OEChem-02102213163D

 34 33  0     1  0  0  0  0  0999 V2000
   -3.8899   -3.6747    1.6490 H   0  0  0  0  0  0  0  0  0  0  0  0
   -3.9109   -2.6717    1.2250 C   0  0  0  0  0  0  0  0  0  0  0  0
   -4.6009   -2.0517    1.7950 H   0  0  0  0  0  0  0  0  0  0  0  0
   -4.2309   -2.7237    0.1860 H   0  0  0  0  0  0  0  0  0  0  0  0
   -2.5229   -2.0787    1.2980 C   0  0  0  0  0  0  0  0  0  0  0  0
   -1.5999   -2.7227    1.7810 O   0  0  0  0  0  0  0  0  0  0  0  0
   -2.3659   -0.8447    0.8120 N   0  0  0  0  0  0  0  0  0  0  0  0
   -3.1749   -0.3807    0.4220 H   0  0  0  0  0  0  0  0  0  0  0  0
   -1.0919   -0.1077    0.8170 C   0  0  1  0  0  0  0  0  0  0  0  0
   -0.4136   -0.6011    1.5155 H   0  0  0  0  0  0  0  0  0  0  0  0
   -0.4834   -0.1723   -0.5965 C   0  0  0  0  0  0  0  0  0  0  0  0
   -0.6155    0.7986   -1.0765 H   0  0  0  0  0  0  0  0  0  0  0  0
    0.5875   -0.3696   -0.5173 H   0  0  0  0  0  0  0  0  0  0  0  0
   -1.1308   -1.2436   -1.4873 C   0  0  0  0  0  0  0  0  0  0  0  0
   -0.6543   -1.2425   -2.4685 H   0  0  0  0  0  0  0  0  0  0  0  0
   -0.9956   -2.2240   -1.0264 H   0  0  0  0  0  0  0  0  0  0  0  0
   -2.6306   -0.9639   -1.6556 C   0  0  0  0  0  0  0  0  0  0  0  0
   -3.1022   -0.9508   -0.6700 H   0  0  0  0  0  0  0  0  0  0  0  0
   -2.7601    0.0133   -2.1251 H   0  0  0  0  0  0  0  0  0  0  0  0
   -3.2833   -2.0464   -2.5243 C   0  0  0  0  0  0  0  0  0  0  0  0
   -2.7924   -2.0486   -3.5030 H   0  0  0  0  0  0  0  0  0  0  0  0
   -3.1056   -3.0202   -2.0581 H   0  0  0  0  0  0  0  0  0  0  0  0
   -4.7409   -1.8131   -2.6839 N   0  3  0  0  0  0  0  0  0  0  0  0
   -4.9114   -0.9178   -3.1245 H   0  0  0  0  0  0  0  0  0  0  0  0
   -5.1562   -2.5355   -3.2588 H   0  0  0  0  0  0  0  0  0  0  0  0
   -5.2013   -1.8189   -1.7812 H   0  0  0  0  0  0  0  0  0  0  0  0
   -1.3103    1.3348    1.2791 C   0  0  0  0  0  0  0  0  0  0  0  0
   -2.2333    1.9891    0.8084 O   0  0  0  0  0  0  0  0  0  0  0  0
   -0.4429    1.8293    2.1683 N   0  0  0  0  0  0  0  0  0  0  0  0
    0.2668    1.2118    2.5263 H   0  0  0  0  0  0  0  0  0  0  0  0
   -0.5118    3.1863    2.7135 C   0  0  0  0  0  0  0  0  0  0  0  0
   -1.4470    3.3159    3.2625 H   0  0  0  0  0  0  0  0  0  0  0  0
    0.3243    3.3682    3.3896 H   0  0  0  0  0  0  0  0  0  0  0  0
   -0.4850    3.9172    1.9023 H   0  0  0  0  0  0  0  0  0  0  0  0
  5  6  2  0  0  0  0
  5  7  1  0  0  0  0
  2  3  1  0  0  0  0
  2  4  1  0  0  0  0
  2  5  1  0  0  0  0
  1  2  1  0  0  0  0
 27 28  2  0  0  0  0
 27 29  1  0  0  0  0
 23 24  1  0  0  0  0
 23 25  1  0  0  0  0
 23 26  1  0  0  0  0
 20 21  1  0  0  0  0
 20 22  1  0  0  0  0
 20 23  1  0  0  0  0
 17 18  1  0  0  0  0
 17 19  1  0  0  0  0
 17 20  1  0  0  0  0
 14 15  1  0  0  0  0
 14 16  1  0  0  0  0
 14 17  1  0  0  0  0
 11 12  1  0  0  0  0
 11 13  1  0  0  0  0
 11 14  1  0  0  0  0
  9 10  1  0  0  0  0
  9 11  1  0  0  0  0
  9 27  1  0  0  0  0
  7  8  1  0  0  0  0
  7  9  1  0  0  0  0
 31 32  1  0  0  0  0
 31 33  1  0  0  0  0
 31 34  1  0  0  0  0
 29 30  1  0  0  0  0
 29 31  1  0  0  0  0
M  CHG  1  23   1
M  END
$$$$
default_name
  -OEChem-02102213163D

 34 33  0     1  0  0  0  0  0999 V2000
   -3.8899   -3.6747    1.6490 H   0  0  0  0  0  0  0  0  0  0  0  0
   -3.9109   -2.6717    1.2250 C   0  0  0  0  0  0  0  0  0  0  0  0
   -4.6009   -2.0517    1.7950 H   0  0  0  0  0  0  0  0  0  0  0  0
   -4.2309   -2.7237    0.1860 H   0  0  0  0  0  0  0  0  0  0  0  0
   -2.5229   -2.0787    1.2980 C   0  0  0  0  0  0  0  0  0  0  0  0
   -1.5999   -2.7227    1.7810 O   0  0  0  0  0  0  0  0  0  0  0  0
   -2.3659   -0.8447    0.8120 N   0  0  0  0  0  0  0  0  0  0  0  0
   -3.1749   -0.3807    0.4220 H   0  0  0  0  0  0  0  0  0  0  0  0
   -1.0919   -0.1077    0.8170 C   0  0  1  0  0  0  0  0  0  0  0  0
   -0.4136   -0.6011    1.5155 H   0  0  0  0  0  0  0  0  0  0  0  0
   -0.4834   -0.1723   -0.5965 C   0  0  0  0  0  0  0  0  0  0  0  0
   -0.6155    0.7986   -1.0765 H   0  0  0  0  0  0  0  0  0  0  0  0
    0.5875   -0.3696   -0.5173 H   0  0  0  0  0  0  0  0  0  0  0  0
   -1.1308   -1.2436   -1.4873 C   0  0  0  0  0  0  0  0  0  0  0  0
   -0.4986   -1.4298   -2.3565 H   0  0  0  0  0  0  0  0  0  0  0  0
   -1.2356   -2.1692   -0.9179 H   0  0  0  0  0  0  0  0  0  0  0  0
   -2.5149   -0.7794   -1.9616 C   0  0  0  0  0  0  0  0  0  0  0  0
   -3.1408   -0.5794   -1.0886 H   0  0  0  0  0  0  0  0  0  0  0  0
   -2.4035    0.1411   -2.5381 H   0  0  0  0  0  0  0  0  0  0  0  0
   -3.1729   -1.8583   -2.8307 C   0  0  0  0  0  0  0  0  0  0  0  0
   -2.5277   -2.0494   -3.6944 H   0  0  0  0  0  0  0  0  0  0  0  0
   -3.2364   -2.7827   -2.2487 H   0  0  0  0  0  0  0  0  0  0  0  0
   -4.5249   -1.4445   -3.2841 N   0  3  0  0  0  0  0  0  0  0  0  0
   -4.4715   -0.5951   -3.8323 H   0  0  0  0  0  0  0  0  0  0  0  0
   -4.9452   -2.1668   -3.8556 H   0  0  0  0  0  0  0  0  0  0  0  0
   -5.1287   -1.2749   -2.4882 H   0  0  0  0  0  0  0  0  0  0  0  0
   -1.3103    1.3348    1.2791 C   0  0  0  0  0  0  0  0  0  0  0  0
   -2.2333    1.9891    0.8084 O   0  0  0  0  0  0  0  0  0  0  0  0
   -0.4429    1.8293    2.1683 N   0  0  0  0  0  0  0  0  0  0  0  0
    0.2668    1.2118    2.5263 H   0  0  0  0  0  0  0  0  0  0  0  0
   -0.5118    3.1863    2.7135 C   0  0  0  0  0  0  0  0  0  0  0  0
   -1.4470    3.3159    3.2625 H   0  0  0  0  0  0  0  0  0  0  0  0
    0.3243    3.3682    3.3896 H   0  0  0  0  0  0  0  0  0  0  0  0
   -0.4850    3.9172    1.9023 H   0  0  0  0  0  0  0  0  0  0  0  0
  5  6  2  0  0  0  0
  5  7  1  0  0  0  0
  2  3  1  0  0  0  0
  2  4  1  0  0  0  0
  2  5  1  0  0  0  0
  1  2  1  0  0  0  0
 27 28  2  0  0  0  0
 27 29  1  0  0  0  0
 23 24  1  0  0  0  0
 23 25  1  0  0  0  0
 23 26  1  0  0  0  0
 20 21  1  0  0  0  0
 20 22  1  0  0  0  0
 20 23  1  0  0  0  0
 17 18  1  0  0  0  0
 17 19  1  0  0  0  0
 17 20  1  0  0  0  0
 14 15  1  0  0  0  0
 14 16  1  0  0  0  0
 14 17  1  0  0  0  0
 11 12  1  0  0  0  0
 11 13  1  0  0  0  0
 11 14  1  0  0  0  0
  9 10  1  0  0  0  0
  9 11  1  0  0  0  0
  9 27  1  0  0  0  0
  7  8  1  0  0  0  0
  7  9  1  0  0  0  0
 31 32  1  0  0  0  0
 31 33  1  0  0  0  0
 31 34  1  0  0  0  0
 29 30  1  0  0  0  0
 29 31  1  0  0  0  0
M  CHG  1  23   1
M  END
$$$$
default_name
  -OEChem-02102213163D

 34 33  0     1  0  0  0  0  0999 V2000
   -3.8899   -3.6747    1.6490 H   0  0  0  0  0  0  0  0  0  0  0  0
   -3.9109   -2.6717    1.2250 C   0  0  0  0  0  0  0  0  0  0  0  0
   -4.6009   -2.0517    1.7950 H   0  0  0  0  0  0  0  0  0  0  0  0
   -4.2309   -2.7237    0.1860 H   0  0  0  0  0  0  0  0  0  0  0  0
   -2.5229   -2.0787    1.2980 C   0  0  0  0  0  0  0  0  0  0  0  0
   -1.5999   -2.7227    1.7810 O   0  0  0  0  0  0  0  0  0  0  0  0
   -2.3659   -0.8447    0.8120 N   0  0  0  0  0  0  0  0  0  0  0  0
   -3.1749   -0.3807    0.4220 H   0  0  0  0  0  0  0  0  0  0  0  0
   -1.0919   -0.1077    0.8170 C   0  0  1  0  0  0  0  0  0  0  0  0
   -0.4136   -0.6011    1.5155 H   0  0  0  0  0  0  0  0  0  0  0  0
   -0.4834   -0.1723   -0.5965 C   0  0  0  0  0  0  0  0  0  0  0  0
   -0.6155    0.7986   -1.0765 H   0  0  0  0  0  0  0  0  0  0  0  0
    0.5875   -0.3696   -0.5173 H   0  0  0  0  0  0  0  0  0  0  0  0
   -1.1308   -1.2436   -1.4873 C   0  0  0  0  0  0  0  0  0  0  0  0
   -0.3965   -1.6219   -2.1997 H   0  0  0  0  0  0  0  0  0  0  0  0
   -1.4789   -2.0684   -0.8623 H   0  0  0  0  0  0  0  0  0  0  0  0
   -2.3201   -0.6519   -2.2564 C   0  0  0  0  0  0  0  0  0  0  0  0
   -3.0468   -0.2605   -1.5404 H   0  0  0  0  0  0  0  0  0  0  0  0
   -1.9652    0.1660   -2.8865 H   0  0  0  0  0  0  0  0  0  0  0  0
   -2.9828   -1.7266   -3.1273 C   0  0  0  0  0  0  0  0  0  0  0  0
   -2.2376   -2.1108   -3.8314 H   0  0  0  0  0  0  0  0  0  0  0  0
   -3.2926   -2.5544   -2.4823 H   0  0  0  0  0  0  0  0  0  0  0  0
   -4.1526   -1.1864   -3.8651 N   0  3  0  0  0  0  0  0  0  0  0  0
   -3.8703   -0.4267   -4.4717 H   0  0  0  0  0  0  0  0  0  0  0  0
   -4.5784   -1.9073   -4.4342 H   0  0  0  0  0  0  0  0  0  0  0  0
   -4.8494   -0.8374   -3.2174 H   0  0  0  0  0  0  0  0  0  0  0  0
   -1.3103    1.3348    1.2791 C   0  0  0  0  0  0  0  0  0  0  0  0
   -2.2333    1.9891    0.8084 O   0  0  0  0  0  0  0  0  0  0  0  0
   -0.4429    1.8293    2.1683 N   0  0  0  0  0  0  0  0  0  0  0  0
    0.2668    1.2118    2.5263 H   0  0  0  0  0  0  0  0  0  0  0  0
   -0.5118    3.1863    2.7135 C   0  0  0  0  0  0  0  0  0  0  0  0
   -1.4470    3.3159    3.2625 H   0  0  0  0  0  0  0  0  0  0  0  0
    0.3243    3.3682    3.3896 H   0  0  0  0  0  0  0  0  0  0  0  0
   -0.4850    3.9172    1.9023 H   0  0  0  0  0  0  0  0  0  0  0  0
  5  6  2  0  0  0  0
  5  7  1  0  0  0  0
  2  3  1  0  0  0  0
  2  4  1  0  0  0  0
  2  5  1  0  0  0  0
  1  2  1  0  0  0  0
 27 28  2  0  0  0  0
 27 29  1  0  0  0  0
 23 24  1  0  0  0  0
 23 25  1  0  0  0  0
 23 26  1  0  0  0  0
 20 21  1  0  0  0  0
 20 22  1  0  0  0  0
 20 23  1  0  0  0  0
 17 18  1  0  0  0  0
 17 19  1  0  0  0  0
 17 20  1  0  0  0  0
 14 15  1  0  0  0  0
 14 16  1  0  0  0  0
 14 17  1  0  0  0  0
 11 12  1  0  0  0  0
 11 13  1  0  0  0  0
 11 14  1  0  0  0  0
  9 10  1  0  0  0  0
  9 11  1  0  0  0  0
  9 27  1  0  0  0  0
  7  8  1  0  0  0  0
  7  9  1  0  0  0  0
 31 32  1  0  0  0  0
 31 33  1  0  0  0  0
 31 34  1  0  0  0  0
 29 30  1  0  0  0  0
 29 31  1  0  0  0  0
M  CHG  1  23   1
M  END
$$$$
default_name
  -OEChem-02102213163D

 34 33  0     1  0  0  0  0  0999 V2000
   -3.8899   -3.6747    1.6490 H   0  0  0  0  0  0  0  0  0  0  0  0
   -3.9109   -2.6717    1.2250 C   0  0  0  0  0  0  0  0  0  0  0  0
   -4.6009   -2.0517    1.7950 H   0  0  0  0  0  0  0  0  0  0  0  0
   -4.2309   -2.7237    0.1860 H   0  0  0  0  0  0  0  0  0  0  0  0
   -2.5229   -2.0787    1.2980 C   0  0  0  0  0  0  0  0  0  0  0  0
   -1.5999   -2.7227    1.7810 O   0  0  0  0  0  0  0  0  0  0  0  0
   -2.3659   -0.8447    0.8120 N   0  0  0  0  0  0  0  0  0  0  0  0
   -3.1749   -0.3807    0.4220 H   0  0  0  0  0  0  0  0  0  0  0  0
   -1.0919   -0.1077    0.8170 C   0  0  1  0  0  0  0  0  0  0  0  0
   -0.4136   -0.6011    1.5155 H   0  0  0  0  0  0  0  0  0  0  0  0
   -0.4834   -0.1723   -0.5965 C   0  0  0  0  0  0  0  0  0  0  0  0
   -0.6155    0.7986   -1.0765 H   0  0  0  0  0  0  0  0  0  0  0  0
    0.5875   -0.3696   -0.5173 H   0  0  0  0  0  0  0  0  0  0  0  0
   -1.1308   -1.2436   -1.4873 C   0  0  0  0  0  0  0  0  0  0  0  0
   -0.3550   -1.8056   -2.0089 H   0  0  0  0  0  0  0  0  0  0  0  0
   -1.7087   -1.9284   -0.8636 H   0  0  0  0  0  0  0  0  0  0  0  0
   -2.0597   -0.5902   -2.5199 C   0  0  0  0  0  0  0  0  0  0  0  0
   -2.8266   -0.0159   -1.9946 H   0  0  0  0  0  0  0  0  0  0  0  0
   -1.4753    0.0863   -3.1467 H   0  0  0  0  0  0  0  0  0  0  0  0
   -2.7259   -1.6602   -3.3938 C   0  0  0  0  0  0  0  0  0  0  0  0
   -1.9419   -2.2286   -3.9047 H   0  0  0  0  0  0  0  0  0  0  0  0
   -3.2706   -2.3509   -2.7431 H   0  0  0  0  0  0  0  0  0  0  0  0
   -3.6494   -1.0563   -4.3873 N   0  3  0  0  0  0  0  0  0  0  0  0
   -3.1490   -0.4239   -4.9993 H   0  0  0  0  0  0  0  0  0  0  0  0
   -4.0807   -1.7749   -4.9552 H   0  0  0  0  0  0  0  0  0  0  0  0
   -4.3823   -0.5362   -3.9191 H   0  0  0  0  0  0  0  0  0  0  0  0
   -1.3103    1.3348    1.2791 C   0  0  0  0  0  0  0  0  0  0  0  0
   -2.2333    1.9891    0.8084 O   0  0  0  0  0  0  0  0  0  0  0  0
   -0.4429    1.8293    2.1683 N   0  0  0  0  0  0  0  0  0  0  0  0
    0.2668    1.2118    2.5263 H   0  0  0  0  0  0  0  0  0  0  0  0
   -0.5118    3.1863    2.7135 C   0  0  0  0  0  0  0  0  0  0  0  0
   -1.4470    3.3159    3.2625 H   0  0  0  0  0  0  0  0  0  0  0  0
    0.3243    3.3682    3.3896 H   0  0  0  0  0  0  0  0  0  0  0  0
   -0.4850    3.9172    1.9023 H   0  0  0  0  0  0  0  0  0  0  0  0
  5  6  2  0  0  0  0
  5  7  1  0  0  0  0
  2  3  1  0  0  0  0
  2  4  1  0  0  0  0
  2  5  1  0  0  0  0
  1  2  1  0  0  0  0
 27 28  2  0  0  0  0
 27 29  1  0  0  0  0
 23 24  1  0  0  0  0
 23 25  1  0  0  0  0
 23 26  1  0  0  0  0
 20 21  1  0  0  0  0
 20 22  1  0  0  0  0
 20 23  1  0  0  0  0
 17 18  1  0  0  0  0
 17 19  1  0  0  0  0
 17 20  1  0  0  0  0
 14 15  1  0  0  0  0
 14 16  1  0  0  0  0
 14 17  1  0  0  0  0
 11 12  1  0  0  0  0
 11 13  1  0  0  0  0
 11 14  1  0  0  0  0
  9 10  1  0  0  0  0
  9 11  1  0  0  0  0
  9 27  1  0  0  0  0
  7  8  1  0  0  0  0
  7  9  1  0  0  0  0
 31 32  1  0  0  0  0
 31 33  1  0  0  0  0
 31 34  1  0  0  0  0
 29 30  1  0  0  0  0
 29 31  1  0  0  0  0
M  CHG  1  23   1
M  END
$$$$
default_name
  -OEChem-02102213163D

 34 33  0     1  0  0  0  0  0999 V2000
   -3.8899   -3.6747    1.6490 H   0  0  0  0  0  0  0  0  0  0  0  0
   -3.9109   -2.6717    1.2250 C   0  0  0  0  0  0  0  0  0  0  0  0
   -4.6009   -2.0517    1.7950 H   0  0  0  0  0  0  0  0  0  0  0  0
   -4.2309   -2.7237    0.1860 H   0  0  0  0  0  0  0  0  0  0  0  0
   -2.5229   -2.0787    1.2980 C   0  0  0  0  0  0  0  0  0  0  0  0
   -1.5999   -2.7227    1.7810 O   0  0  0  0  0  0  0  0  0  0  0  0
   -2.3659   -0.8447    0.8120 N   0  0  0  0  0  0  0  0  0  0  0  0
   -3.1749   -0.3807    0.4220 H   0  0  0  0  0  0  0  0  0  0  0  0
   -1.0919   -0.1077    0.8170 C   0  0  1  0  0  0  0  0  0  0  0  0
   -0.4136   -0.6011    1.5155 H   0  0  0  0  0  0  0  0  0  0  0  0
   -0.4834   -0.1723   -0.5965 C   0  0  0  0  0  0  0  0  0  0  0  0
   -0.6155    0.7986   -1.0765 H   0  0  0  0  0  0  0  0  0  0  0  0
    0.5875   -0.3696   -0.5173 H   0  0  0  0  0  0  0  0  0  0  0  0
   -1.1308   -1.2436   -1.4873 C   0  0  0  0  0  0  0  0  0  0  0  0
   -0.3769   -1.9685   -1.7971 H   0  0  0  0  0  0  0  0  0  0  0  0
   -1.9095   -1.7589   -0.9216 H   0  0  0  0  0  0  0  0  0  0  0  0
   -1.7513   -0.5984   -2.7342 C   0  0  0  0  0  0  0  0  0  0  0  0
   -2.4952    0.1377   -2.4203 H   0  0  0  0  0  0  0  0  0  0  0  0
   -0.9671   -0.0926   -3.3010 H   0  0  0  0  0  0  0  0  0  0  0  0
   -2.4197   -1.6637   -3.6122 C   0  0  0  0  0  0  0  0  0  0  0  0
   -1.6607   -2.3947   -3.9093 H   0  0  0  0  0  0  0  0  0  0  0  0
   -3.1717   -2.1861   -3.0131 H   0  0  0  0  0  0  0  0  0  0  0  0
   -3.0496   -1.0631   -4.8151 N   0  3  0  0  0  0  0  0  0  0  0  0
   -2.3567   -0.5871   -5.3790 H   0  0  0  0  0  0  0  0  0  0  0  0
   -3.4861   -1.7785   -5.3831 H   0  0  0  0  0  0  0  0  0  0  0  0
   -3.7593   -0.3920   -4.5453 H   0  0  0  0  0  0  0  0  0  0  0  0
   -1.3103    1.3348    1.2791 C   0  0  0  0  0  0  0  0  0  0  0  0
   -2.2333    1.9891    0.8084 O   0  0  0  0  0  0  0  0  0  0  0  0
   -0.4429    1.8293    2.1683 N   0  0  0  0  0  0  0  0  0  0  0  0
    0.2668    1.2118    2.5263 H   0  0  0  0  0  0  0  0  0  0  0  0
   -0.5118    3.1863    2.7135 C   0  0  0  0  0  0  0  0  0  0  0  0
   -1.4470    3.3159    3.2625 H   0  0  0  0  0  0  0  0  0  0  0  0
    0.3243    3.3682    3.3896 H   0  0  0  0  0  0  0  0  0  0  0  0
   -0.4850    3.9172    1.9023 H   0  0  0  0  0  0  0  0  0  0  0  0
  5  6  2  0  0  0  0
  5  7  1  0  0  0  0
  2  3  1  0  0  0  0
  2  4  1  0  0  0  0
  2  5  1  0  0  0  0
  1  2  1  0  0  0  0
 27 28  2  0  0  0  0
 27 29  1  0  0  0  0
 23 24  1  0  0  0  0
 23 25  1  0  0  0  0
 23 26  1  0  0  0  0
 20 21  1  0  0  0  0
 20 22  1  0  0  0  0
 20 23  1  0  0  0  0
 17 18  1  0  0  0  0
 17 19  1  0  0  0  0
 17 20  1  0  0  0  0
 14 15  1  0  0  0  0
 14 16  1  0  0  0  0
 14 17  1  0  0  0  0
 11 12  1  0  0  0  0
 11 13  1  0  0  0  0
 11 14  1  0  0  0  0
  9 10  1  0  0  0  0
  9 11  1  0  0  0  0
  9 27  1  0  0  0  0
  7  8  1  0  0  0  0
  7  9  1  0  0  0  0
 31 32  1  0  0  0  0
 31 33  1  0  0  0  0
 31 34  1  0  0  0  0
 29 30  1  0  0  0  0
 29 31  1  0  0  0  0
M  CHG  1  23   1
M  END
$$$$
default_name
  -OEChem-02102213163D

 34 33  0     1  0  0  0  0  0999 V2000
   -3.8899   -3.6747    1.6490 H   0  0  0  0  0  0  0  0  0  0  0  0
   -3.9109   -2.6717    1.2250 C   0  0  0  0  0  0  0  0  0  0  0  0
   -4.6009   -2.0517    1.7950 H   0  0  0  0  0  0  0  0  0  0  0  0
   -4.2309   -2.7237    0.1860 H   0  0  0  0  0  0  0  0  0  0  0  0
   -2.5229   -2.0787    1.2980 C   0  0  0  0  0  0  0  0  0  0  0  0
   -1.5999   -2.7227    1.7810 O   0  0  0  0  0  0  0  0  0  0  0  0
   -2.3659   -0.8447    0.8120 N   0  0  0  0  0  0  0  0  0  0  0  0
   -3.1749   -0.3807    0.4220 H   0  0  0  0  0  0  0  0  0  0  0  0
   -1.0919   -0.1077    0.8170 C   0  0  1  0  0  0  0  0  0  0  0  0
   -0.4136   -0.6011    1.5155 H   0  0  0  0  0  0  0  0  0  0  0  0
   -0.4834   -0.1723   -0.5965 C   0  0  0  0  0  0  0  0  0  0  0  0
   -0.6155    0.7986   -1.0765 H   0  0  0  0  0  0  0  0  0  0  0  0
    0.5875   -0.3696   -0.5173 H   0  0  0  0  0  0  0  0  0  0  0  0
   -1.1308   -1.2436   -1.4873 C   0  0  0  0  0  0  0  0  0  0  0  0
   -0.4607   -2.0995   -1.5787 H   0  0  0  0  0  0  0  0  0  0  0  0
   -2.0676   -1.5713   -1.0323 H   0  0  0  0  0  0  0  0  0  0  0  0
   -1.4160   -0.6760   -2.8846 C   0  0  0  0  0  0  0  0  0  0  0  0
   -2.0752    0.1900   -2.7884 H   0  0  0  0  0  0  0  0  0  0  0  0
   -0.4752   -0.3585   -3.3388 H   0  0  0  0  0  0  0  0  0  0  0  0
   -2.0850   -1.7369   -3.7674 C   0  0  0  0  0  0  0  0  0  0  0  0
   -1.4132   -2.5979   -3.8449 H   0  0  0  0  0  0  0  0  0  0  0  0
   -3.0027   -2.0712   -3.2741 H   0  0  0  0  0  0  0  0  0  0  0  0
   -2.3941   -1.2063   -5.1193 N   0  3  0  0  0  0  0  0  0  0  0  0
   -1.5473   -0.9050   -5.5850 H   0  0  0  0  0  0  0  0  0  0  0  0
   -2.8351   -1.9178   -5.6887 H   0  0  0  0  0  0  0  0  0  0  0  0
   -3.0229   -0.4144   -5.0536 H   0  0  0  0  0  0  0  0  0  0  0  0
   -1.3103    1.3348    1.2791 C   0  0  0  0  0  0  0  0  0  0  0  0
   -2.2333    1.9891    0.8084 O   0  0  0  0  0  0  0  0  0  0  0  0
   -0.4429    1.8293    2.1683 N   0  0  0  0  0  0  0  0  0  0  0  0
    0.2668    1.2118    2.5263 H   0  0  0  0  0  0  0  0  0  0  0  0
   -0.5118    3.1863    2.7135 C   0  0  0  0  0  0  0  0  0  0  0  0
   -1.4470    3.3159    3.2625 H   0  0  0  0  0  0  0  0  0  0  0  0
    0.3243    3.3682    3.3896 H   0  0  0  0  0  0  0  0  0  0  0  0
   -0.4850    3.9172    1.9023 H   0  0  0  0  0  0  0  0  0  0  0  0
  5  6  2  0  0  0  0
  5  7  1  0  0  0  0
  2  3  1  0  0  0  0
  2  4  1  0  0  0  0
  2  5  1  0  0  0  0
  1  2  1  0  0  0  0
 27 28  2  0  0  0  0
 27 29  1  0  0  0  0
 23 24  1  0  0  0  0
 23 25  1  0  0  0  0
 23 26  1  0  0  0  0
 20 21  1  0  0  0  0
 20 22  1  0  0  0  0
 20 23  1  0  0  0  0
 17 18  1  0  0  0  0
 17 19  1  0  0  0  0
 17 20  1  0  0  0  0
 14 15  1  0  0  0  0
 14 16  1  0  0  0  0
 14 17  1  0  0  0  0
 11 12  1  0  0  0  0
 11 13  1  0  0  0  0
 11 14  1  0  0  0  0
  9 10  1  0  0  0  0
  9 11  1  0  0  0  0
  9 27  1  0  0  0  0
  7  8  1  0  0  0  0
  7  9  1  0  0  0  0
 31 32  1  0  0  0  0
 31 33  1  0  0  0  0
 31 34  1  0  0  0  0
 29 30  1  0  0  0  0
 29 31  1  0  0  0  0
M  CHG  1  23   1
M  END
$$$$
default_name
  -OEChem-02102213163D

 34 33  0     1  0  0  0  0  0999 V2000
   -3.8899   -3.6747    1.6490 H   0  0  0  0  0  0  0  0  0  0  0  0
   -3.9109   -2.6717    1.2250 C   0  0  0  0  0  0  0  0  0  0  0  0
   -4.6009   -2.0517    1.7950 H   0  0  0  0  0  0  0  0  0  0  0  0
   -4.2309   -2.7237    0.1860 H   0  0  0  0  0  0  0  0  0  0  0  0
   -2.5229   -2.0787    1.2980 C   0  0  0  0  0  0  0  0  0  0  0  0
   -1.5999   -2.7227    1.7810 O   0  0  0  0  0  0  0  0  0  0  0  0
   -2.3659   -0.8447    0.8120 N   0  0  0  0  0  0  0  0  0  0  0  0
   -3.1749   -0.3807    0.4220 H   0  0  0  0  0  0  0  0  0  0  0  0
   -1.0919   -0.1077    0.8170 C   0  0  1  0  0  0  0  0  0  0  0  0
   -0.4136   -0.6011    1.5155 H   0  0  0  0  0  0  0  0  0  0  0  0
   -0.4834   -0.1723   -0.5965 C   0  0  0  0  0  0  0  0  0  0  0  0
   -0.6155    0.7986   -1.0765 H   0  0  0  0  0  0  0  0  0  0  0  0
    0.5875   -0.3696   -0.5173 H   0  0  0  0  0  0  0  0  0  0  0  0
   -1.1308   -1.2436   -1.4873 C   0  0  0  0  0  0  0  0  0  0  0  0
   -0.6008   -2.1896   -1.3685 H   0  0  0  0  0  0  0  0  0  0  0  0
   -2.1721   -1.3785   -1.1882 H   0  0  0  0  0  0  0  0  0  0  0  0
   -1.0766   -0.8177   -2.9609 C   0  0  0  0  0  0  0  0  0  0  0  0
   -1.5953    0.1373   -3.0739 H   0  0  0  0  0  0  0  0  0  0  0  0
   -0.0332   -0.6932   -3.2574 H   0  0  0  0  0  0  0  0  0  0  0  0
   -1.7447   -1.8748   -3.8490 C   0  0  0  0  0  0  0  0  0  0  0  0
   -1.2162   -2.8243   -3.7158 H   0  0  0  0  0  0  0  0  0  0  0  0
   -2.7751   -2.0141   -3.5083 H   0  0  0  0  0  0  0  0  0  0  0  0
   -1.7275   -1.4762   -5.2792 N   0  3  0  0  0  0  0  0  0  0  0  0
   -0.7760   -1.3560   -5.6032 H   0  0  0  0  0  0  0  0  0  0  0  0
   -2.1720   -2.1835   -5.8512 H   0  0  0  0  0  0  0  0  0  0  0  0
   -2.2232   -0.6021   -5.4092 H   0  0  0  0  0  0  0  0  0  0  0  0
   -1.3103    1.3348    1.2791 C   0  0  0  0  0  0  0  0  0  0  0  0
   -2.2333    1.9891    0.8084 O   0  0  0  0  0  0  0  0  0  0  0  0
   -0.4429    1.8293    2.1683 N   0  0  0  0  0  0  0  0  0  0  0  0
    0.2668    1.2118    2.5263 H   0  0  0  0  0  0  0  0  0  0  0  0
   -0.5118    3.1863    2.7135 C   0  0  0  0  0  0  0  0  0  0  0  0
   -1.4470    3.3159    3.2625 H   0  0  0  0  0  0  0  0  0  0  0  0
    0.3243    3.3682    3.3896 H   0  0  0  0  0  0  0  0  0  0  0  0
   -0.4850    3.9172    1.9023 H   0  0  0  0  0  0  0  0  0  0  0  0
  5  6  2  0  0  0  0
  5  7  1  0  0  0  0
  2  3  1  0  0  0  0
  2  4  1  0  0  0  0
  2  5  1  0  0  0  0
  1  2  1  0  0  0  0
 27 28  2  0  0  0  0
 27 29  1  0  0  0  0
 23 24  1  0  0  0  0
 23 25  1  0  0  0  0
 23 26  1  0  0  0  0
 20 21  1  0  0  0  0
 20 22  1  0  0  0  0
 20 23  1  0  0  0  0
 17 18  1  0  0  0  0
 17 19  1  0  0  0  0
 17 20  1  0  0  0  0
 14 15  1  0  0  0  0
 14 16  1  0  0  0  0
 14 17  1  0  0  0  0
 11 12  1  0  0  0  0
 11 13  1  0  0  0  0
 11 14  1  0  0  0  0
  9 10  1  0  0  0  0
  9 11  1  0  0  0  0
  9 27  1  0  0  0  0
  7  8  1  0  0  0  0
  7  9  1  0  0  0  0
 31 32  1  0  0  0  0
 31 33  1  0  0  0  0
 31 34  1  0  0  0  0
 29 30  1  0  0  0  0
 29 31  1  0  0  0  0
M  CHG  1  23   1
M  END
$$$$
default_name
  -OEChem-02102213163D

 34 33  0     1  0  0  0  0  0999 V2000
   -3.8899   -3.6747    1.6490 H   0  0  0  0  0  0  0  0  0  0  0  0
   -3.9109   -2.6717    1.2250 C   0  0  0  0  0  0  0  0  0  0  0  0
   -4.6009   -2.0517    1.7950 H   0  0  0  0  0  0  0  0  0  0  0  0
   -4.2309   -2.7237    0.1860 H   0  0  0  0  0  0  0  0  0  0  0  0
   -2.5229   -2.0787    1.2980 C   0  0  0  0  0  0  0  0  0  0  0  0
   -1.5999   -2.7227    1.7810 O   0  0  0  0  0  0  0  0  0  0  0  0
   -2.3659   -0.8447    0.8120 N   0  0  0  0  0  0  0  0  0  0  0  0
   -3.1749   -0.3807    0.4220 H   0  0  0  0  0  0  0  0  0  0  0  0
   -1.0919   -0.1077    0.8170 C   0  0  1  0  0  0  0  0  0  0  0  0
   -0.4136   -0.6011    1.5155 H   0  0  0  0  0  0  0  0  0  0  0  0
   -0.4834   -0.1723   -0.5965 C   0  0  0  0  0  0  0  0  0  0  0  0
   -0.6155    0.7986   -1.0765 H   0  0  0  0  0  0  0  0  0  0  0  0
    0.5875   -0.3696   -0.5173 H   0  0  0  0  0  0  0  0  0  0  0  0
   -1.1308   -1.2436   -1.4873 C   0  0  0  0  0  0  0  0  0  0  0  0
   -0.7875   -2.2327   -1.1810 H   0  0  0  0  0  0  0  0  0  0  0  0
   -2.2160   -1.1935   -1.3787 H   0  0  0  0  0  0  0  0  0  0  0  0
   -0.7562   -1.0138   -2.9580 C   0  0  0  0  0  0  0  0  0  0  0  0
   -1.0880   -0.0167   -3.2573 H   0  0  0  0  0  0  0  0  0  0  0  0
    0.3289   -1.0741   -3.0626 H   0  0  0  0  0  0  0  0  0  0  0  0
   -1.4220   -2.0679   -3.8513 C   0  0  0  0  0  0  0  0  0  0  0  0
   -1.0832   -3.0584   -3.5309 H   0  0  0  0  0  0  0  0  0  0  0  0
   -2.5045   -2.0186   -3.6996 H   0  0  0  0  0  0  0  0  0  0  0  0
   -1.0952   -1.8544   -5.2839 N   0  3  0  0  0  0  0  0  0  0  0  0
   -0.0954   -1.9093   -5.4324 H   0  0  0  0  0  0  0  0  0  0  0  0
   -1.5420   -2.5573   -5.8594 H   0  0  0  0  0  0  0  0  0  0  0  0
   -1.4147   -0.9421   -5.5878 H   0  0  0  0  0  0  0  0  0  0  0  0
   -1.3103    1.3348    1.2791 C   0  0  0  0  0  0  0  0  0  0  0  0
   -2.2333    1.9891    0.8084 O   0  0  0  0  0  0  0  0  0  0  0  0
   -0.4429    1.8293    2.1683 N   0  0  0  0  0  0  0  0  0  0  0  0
    0.2668    1.2118    2.5263 H   0  0  0  0  0  0  0  0  0  0  0  0
   -0.5118    3.1863    2.7135 C   0  0  0  0  0  0  0  0  0  0  0  0
   -1.4470    3.3159    3.2625 H   0  0  0  0  0  0  0  0  0  0  0  0
    0.3243    3.3682    3.3896 H   0  0  0  0  0  0  0  0  0  0  0  0
   -0.4850    3.9172    1.9023 H   0  0  0  0  0  0  0  0  0  0  0  0
  5  6  2  0  0  0  0
  5  7  1  0  0  0  0
  2  3  1  0  0  0  0
  2  4  1  0  0  0  0
  2  5  1  0  0  0  0
  1  2  1  0  0  0  0
 27 28  2  0  0  0  0
 27 29  1  0  0  0  0
 23 24  1  0  0  0  0
 23 25  1  0  0  0  0
 23 26  1  0  0  0  0
 20 21  1  0  0  0  0
 20 22  1  0  0  0  0
 20 23  1  0  0  0  0
 17 18  1  0  0  0  0
 17 19  1  0  0  0  0
 17 20  1  0  0  0  0
 14 15  1  0  0  0  0
 14 16  1  0  0  0  0
 14 17  1  0  0  0  0
 11 12  1  0  0  0  0
 11 13  1  0  0  0  0
 11 14  1  0  0  0  0
  9 10  1  0  0  0  0
  9 11  1  0  0  0  0
  9 27  1  0  0  0  0
  7  8  1  0  0  0  0
  7  9  1  0  0  0  0
 31 32  1  0  0  0  0
 31 33  1  0  0  0  0
 31 34  1  0  0  0  0
 29 30  1  0  0  0  0
 29 31  1  0  0  0  0
M  CHG  1  23   1
M  END
$$$$
default_name
  -OEChem-02102213163D

 34 33  0     1  0  0  0  0  0999 V2000
   -3.8899   -3.6747    1.6490 H   0  0  0  0  0  0  0  0  0  0  0  0
   -3.9109   -2.6717    1.2250 C   0  0  0  0  0  0  0  0  0  0  0  0
   -4.6009   -2.0517    1.7950 H   0  0  0  0  0  0  0  0  0  0  0  0
   -4.2309   -2.7237    0.1860 H   0  0  0  0  0  0  0  0  0  0  0  0
   -2.5229   -2.0787    1.2980 C   0  0  0  0  0  0  0  0  0  0  0  0
   -1.5999   -2.7227    1.7810 O   0  0  0  0  0  0  0  0  0  0  0  0
   -2.3659   -0.8447    0.8120 N   0  0  0  0  0  0  0  0  0  0  0  0
   -3.1749   -0.3807    0.4220 H   0  0  0  0  0  0  0  0  0  0  0  0
   -1.0919   -0.1077    0.8170 C   0  0  1  0  0  0  0  0  0  0  0  0
   -0.4136   -0.6011    1.5155 H   0  0  0  0  0  0  0  0  0  0  0  0
   -0.4834   -0.1723   -0.5965 C   0  0  0  0  0  0  0  0  0  0  0  0
   -0.3705    0.8455   -0.9732 H   0  0  0  0  0  0  0  0  0  0  0  0
    0.5081   -0.6259   -0.5398 H   0  0  0  0  0  0  0  0  0  0  0  0
   -1.3454   -0.9631   -1.5925 C   0  0  0  0  0  0  0  0  0  0  0  0
   -1.4696   -1.9874   -1.2384 H   0  0  0  0  0  0  0  0  0  0  0  0
   -2.3269   -0.4918   -1.6717 H   0  0  0  0  0  0  0  0  0  0  0  0
   -0.6796   -0.9857   -2.9753 C   0  0  0  0  0  0  0  0  0  0  0  0
   -0.5429    0.0419   -3.3205 H   0  0  0  0  0  0  0  0  0  0  0  0
    0.2973   -1.4662   -2.8924 H   0  0  0  0  0  0  0  0  0  0  0  0
   -1.5511   -1.7537   -3.9769 C   0  0  0  0  0  0  0  0  0  0  0  0
   -1.6823   -2.7768   -3.6097 H   0  0  0  0  0  0  0  0  0  0  0  0
   -2.5375   -1.2816   -4.0131 H   0  0  0  0  0  0  0  0  0  0  0  0
   -0.9412   -1.7707   -5.3305 N   0  3  0  0  0  0  0  0  0  0  0  0
   -0.0324   -2.2160   -5.3054 H   0  0  0  0  0  0  0  0  0  0  0  0
   -1.5281   -2.2805   -5.9790 H   0  0  0  0  0  0  0  0  0  0  0  0
   -0.8257   -0.8261   -5.6787 H   0  0  0  0  0  0  0  0  0  0  0  0
   -1.3103    1.3348    1.2791 C   0  0  0  0  0  0  0  0  0  0  0  0
   -2.2333    1.9891    0.8084 O   0  0  0  0  0  0  0  0  0  0  0  0
   -0.4429    1.8293    2.1683 N   0  0  0  0  0  0  0  0  0  0  0  0
    0.2668    1.2118    2.5263 H   0  0  0  0  0  0  0  0  0  0  0  0
   -0.5118    3.1863    2.7135 C   0  0  0  0  0  0  0  0  0  0  0  0
   -1.4470    3.3159    3.2625 H   0  0  0  0  0  0  0  0  0  0  0  0
    0.3243    3.3682    3.3896 H   0  0  0  0  0  0  0  0  0  0  0  0
   -0.4850    3.9172    1.9023 H   0  0  0  0  0  0  0  0  0  0  0  0
  5  6  2  0  0  0  0
  5  7  1  0  0  0  0
  2  3  1  0  0  0  0
  2  4  1  0  0  0  0
  2  5  1  0  0  0  0
  1  2  1  0  0  0  0
 27 28  2  0  0  0  0
 27 29  1  0  0  0  0
 23 24  1  0  0  0  0
 23 25  1  0  0  0  0
 23 26  1  0  0  0  0
 20 21  1  0  0  0  0
 20 22  1  0  0  0  0
 20 23  1  0  0  0  0
 17 18  1  0  0  0  0
 17 19  1  0  0  0  0
 17 20  1  0  0  0  0
 14 15  1  0  0  0  0
 14 16  1  0  0  0  0
 14 17  1  0  0  0  0
 11 12  1  0  0  0  0
 11 13  1  0  0  0  0
 11 14  1  0  0  0  0
  9 10  1  0  0  0  0
  9 11  1  0  0  0  0
  9 27  1  0  0  0  0
  7  8  1  0  0  0  0
  7  9  1  0  0  0  0
 31 32  1  0  0  0  0
 31 33  1  0  0  0  0
 31 34  1  0  0  0  0
 29 30  1  0  0  0  0
 29 31  1  0  0  0  0
M  CHG  1  23   1
M  END
$$$$
default_name
  -OEChem-02102213163D

 34 33  0     1  0  0  0  0  0999 V2000
   -3.8899   -3.6747    1.6490 H   0  0  0  0  0  0  0  0  0  0  0  0
   -3.9109   -2.6717    1.2250 C   0  0  0  0  0  0  0  0  0  0  0  0
   -4.6009   -2.0517    1.7950 H   0  0  0  0  0  0  0  0  0  0  0  0
   -4.2309   -2.7237    0.1860 H   0  0  0  0  0  0  0  0  0  0  0  0
   -2.5229   -2.0787    1.2980 C   0  0  0  0  0  0  0  0  0  0  0  0
   -1.5999   -2.7227    1.7810 O   0  0  0  0  0  0  0  0  0  0  0  0
   -2.3659   -0.8447    0.8120 N   0  0  0  0  0  0  0  0  0  0  0  0
   -3.1749   -0.3807    0.4220 H   0  0  0  0  0  0  0  0  0  0  0  0
   -1.0919   -0.1077    0.8170 C   0  0  1  0  0  0  0  0  0  0  0  0
   -0.4136   -0.6011    1.5155 H   0  0  0  0  0  0  0  0  0  0  0  0
   -0.4834   -0.1723   -0.5965 C   0  0  0  0  0  0  0  0  0  0  0  0
   -0.3705    0.8455   -0.9732 H   0  0  0  0  0  0  0  0  0  0  0  0
    0.5081   -0.6259   -0.5398 H   0  0  0  0  0  0  0  0  0  0  0  0
   -1.3454   -0.9631   -1.5925 C   0  0  0  0  0  0  0  0  0  0  0  0
   -1.6914   -1.8866   -1.1264 H   0  0  0  0  0  0  0  0  0  0  0  0
   -2.2107   -0.3609   -1.8761 H   0  0  0  0  0  0  0  0  0  0  0  0
   -0.5321   -1.3068   -2.8480 C   0  0  0  0  0  0  0  0  0  0  0  0
   -0.1743   -0.3806   -3.3041 H   0  0  0  0  0  0  0  0  0  0  0  0
    0.3267   -1.9166   -2.5602 H   0  0  0  0  0  0  0  0  0  0  0  0
   -1.3986   -2.0748   -3.8540 C   0  0  0  0  0  0  0  0  0  0  0  0
   -1.7529   -2.9940   -3.3761 H   0  0  0  0  0  0  0  0  0  0  0  0
   -2.2737   -1.4643   -4.0962 H   0  0  0  0  0  0  0  0  0  0  0  0
   -0.6424   -2.3996   -5.0897 N   0  3  0  0  0  0  0  0  0  0  0  0
    0.1630   -2.9734   -4.8732 H   0  0  0  0  0  0  0  0  0  0  0  0
   -1.2279   -2.9055   -5.7427 H   0  0  0  0  0  0  0  0  0  0  0  0
   -0.3198   -1.5514   -5.5407 H   0  0  0  0  0  0  0  0  0  0  0  0
   -1.3103    1.3348    1.2791 C   0  0  0  0  0  0  0  0  0  0  0  0
   -2.2333    1.9891    0.8084 O   0  0  0  0  0  0  0  0  0  0  0  0
   -0.4429    1.8293    2.1683 N   0  0  0  0  0  0  0  0  0  0  0  0
    0.2668    1.2118    2.5263 H   0  0  0  0  0  0  0  0  0  0  0  0
   -0.5118    3.1863    2.7135 C   0  0  0  0  0  0  0  0  0  0  0  0
   -1.4470    3.3159    3.2625 H   0  0  0  0  0  0  0  0  0  0  0  0
    0.3243    3.3682    3.3896 H   0  0  0  0  0  0  0  0  0  0  0  0
   -0.4850    3.9172    1.9023 H   0  0  0  0  0  0  0  0  0  0  0  0
  5  6  2  0  0  0  0
  5  7  1  0  0  0  0
  2  3  1  0  0  0  0
  2  4  1  0  0  0  0
  2  5  1  0  0  0  0
  1  2  1  0  0  0  0
 27 28  2  0  0  0  0
 27 29  1  0  0  0  0
 23 24  1  0  0  0  0
 23 25  1  0  0  0  0
 23 26  1  0  0  0  0
 20 21  1  0  0  0  0
 20 22  1  0  0  0  0
 20 23  1  0  0  0  0
 17 18  1  0  0  0  0
 17 19  1  0  0  0  0
 17 20  1  0  0  0  0
 14 15  1  0  0  0  0
 14 16  1  0  0  0  0
 14 17  1  0  0  0  0
 11 12  1  0  0  0  0
 11 13  1  0  0  0  0
 11 14  1  0  0  0  0
  9 10  1  0  0  0  0
  9 11  1  0  0  0  0
  9 27  1  0  0  0  0
  7  8  1  0  0  0  0
  7  9  1  0  0  0  0
 31 32  1  0  0  0  0
 31 33  1  0  0  0  0
 31 34  1  0  0  0  0
 29 30  1  0  0  0  0
 29 31  1  0  0  0  0
M  CHG  1  23   1
M  END
$$$$
default_name
  -OEChem-02102213163D

 34 33  0     1  0  0  0  0  0999 V2000
   -3.8899   -3.6747    1.6490 H   0  0  0  0  0  0  0  0  0  0  0  0
   -3.9109   -2.6717    1.2250 C   0  0  0  0  0  0  0  0  0  0  0  0
   -4.6009   -2.0517    1.7950 H   0  0  0  0  0  0  0  0  0  0  0  0
   -4.2309   -2.7237    0.1860 H   0  0  0  0  0  0  0  0  0  0  0  0
   -2.5229   -2.0787    1.2980 C   0  0  0  0  0  0  0  0  0  0  0  0
   -1.5999   -2.7227    1.7810 O   0  0  0  0  0  0  0  0  0  0  0  0
   -2.3659   -0.8447    0.8120 N   0  0  0  0  0  0  0  0  0  0  0  0
   -3.1749   -0.3807    0.4220 H   0  0  0  0  0  0  0  0  0  0  0  0
   -1.0919   -0.1077    0.8170 C   0  0  1  0  0  0  0  0  0  0  0  0
   -0.4136   -0.6011    1.5155 H   0  0  0  0  0  0  0  0  0  0  0  0
   -0.4834   -0.1723   -0.5965 C   0  0  0  0  0  0  0  0  0  0  0  0
   -0.3705    0.8455   -0.9732 H   0  0  0  0  0  0  0  0  0  0  0  0
    0.5081   -0.6259   -0.5398 H   0  0  0  0  0  0  0  0  0  0  0  0
   -1.3454   -0.9631   -1.5925 C   0  0  0  0  0  0  0  0  0  0  0  0
   -1.9037   -1.7359   -1.0624 H   0  0  0  0  0  0  0  0  0  0  0  0
   -2.0493   -0.2837   -2.0771 H   0  0  0  0  0  0  0  0  0  0  0  0
   -0.4604   -1.6233   -2.6588 C   0  0  0  0  0  0  0  0  0  0  0  0
    0.1086   -0.8481   -3.1777 H   0  0  0  0  0  0  0  0  0  0  0  0
    0.2352   -2.3083   -2.1700 H   0  0  0  0  0  0  0  0  0  0  0  0
   -1.3216   -2.3927   -3.6682 C   0  0  0  0  0  0  0  0  0  0  0  0
   -1.8886   -3.1581   -3.1284 H   0  0  0  0  0  0  0  0  0  0  0  0
   -2.0386   -1.6972   -4.1149 H   0  0  0  0  0  0  0  0  0  0  0  0
   -0.4915   -3.0223   -4.7260 N   0  3  0  0  0  0  0  0  0  0  0  0
    0.1671   -3.6750   -4.3197 H   0  0  0  0  0  0  0  0  0  0  0  0
   -1.0742   -3.5253   -5.3836 H   0  0  0  0  0  0  0  0  0  0  0  0
    0.0288   -2.3169   -5.2346 H   0  0  0  0  0  0  0  0  0  0  0  0
   -1.3103    1.3348    1.2791 C   0  0  0  0  0  0  0  0  0  0  0  0
   -2.2333    1.9891    0.8084 O   0  0  0  0  0  0  0  0  0  0  0  0
   -0.4429    1.8293    2.1683 N   0  0  0  0  0  0  0  0  0  0  0  0
    0.2668    1.2118    2.5263 H   0  0  0  0  0  0  0  0  0  0  0  0
   -0.5118    3.1863    2.7135 C   0  0  0  0  0  0  0  0  0  0  0  0
   -1.4470    3.3159    3.2625 H   0  0  0  0  0  0  0  0  0  0  0  0
    0.3243    3.3682    3.3896 H   0  0  0  0  0  0  0  0  0  0  0  0
   -0.4850    3.9172    1.9023 H   0  0  0  0  0  0  0  0  0  0  0  0
  5  6  2  0  0  0  0
  5  7  1  0  0  0  0
  2  3  1  0  0  0  0
  2  4  1  0  0  0  0
  2  5  1  0  0  0  0
  1  2  1  0  0  0  0
 27 28  2  0  0  0  0
 27 29  1  0  0  0  0
 23 24  1  0  0  0  0
 23 25  1  0  0  0  0
 23 26  1  0  0  0  0
 20 21  1  0  0  0  0
 20 22  1  0  0  0  0
 20 23  1  0  0  0  0
 17 18  1  0  0  0  0
 17 19  1  0  0  0  0
 17 20  1  0  0  0  0
 14 15  1  0  0  0  0
 14 16  1  0  0  0  0
 14 17  1  0  0  0  0
 11 12  1  0  0  0  0
 11 13  1  0  0  0  0
 11 14  1  0  0  0  0
  9 10  1  0  0  0  0
  9 11  1  0  0  0  0
  9 27  1  0  0  0  0
  7  8  1  0  0  0  0
  7  9  1  0  0  0  0
 31 32  1  0  0  0  0
 31 33  1  0  0  0  0
 31 34  1  0  0  0  0
 29 30  1  0  0  0  0
 29 31  1  0  0  0  0
M  CHG  1  23   1
M  END
$$$$
default_name
  -OEChem-02102213163D

 34 33  0     1  0  0  0  0  0999 V2000
   -3.8899   -3.6747    1.6490 H   0  0  0  0  0  0  0  0  0  0  0  0
   -3.9109   -2.6717    1.2250 C   0  0  0  0  0  0  0  0  0  0  0  0
   -4.6009   -2.0517    1.7950 H   0  0  0  0  0  0  0  0  0  0  0  0
   -4.2309   -2.7237    0.1860 H   0  0  0  0  0  0  0  0  0  0  0  0
   -2.5229   -2.0787    1.2980 C   0  0  0  0  0  0  0  0  0  0  0  0
   -1.5999   -2.7227    1.7810 O   0  0  0  0  0  0  0  0  0  0  0  0
   -2.3659   -0.8447    0.8120 N   0  0  0  0  0  0  0  0  0  0  0  0
   -3.1749   -0.3807    0.4220 H   0  0  0  0  0  0  0  0  0  0  0  0
   -1.0919   -0.1077    0.8170 C   0  0  1  0  0  0  0  0  0  0  0  0
   -0.4136   -0.6011    1.5155 H   0  0  0  0  0  0  0  0  0  0  0  0
   -0.4834   -0.1723   -0.5965 C   0  0  0  0  0  0  0  0  0  0  0  0
   -0.3705    0.8455   -0.9732 H   0  0  0  0  0  0  0  0  0  0  0  0
    0.5081   -0.6259   -0.5398 H   0  0  0  0  0  0  0  0  0  0  0  0
   -1.3454   -0.9631   -1.5925 C   0  0  0  0  0  0  0  0  0  0  0  0
   -2.0920   -1.5453   -1.0508 H   0  0  0  0  0  0  0  0  0  0  0  0
   -1.8536   -0.2655   -2.2610 H   0  0  0  0  0  0  0  0  0  0  0  0
   -0.4695   -1.9135   -2.4205 C   0  0  0  0  0  0  0  0  0  0  0  0
    0.2866   -1.3289   -2.9501 H   0  0  0  0  0  0  0  0  0  0  0  0
    0.0291   -2.6147   -1.7484 H   0  0  0  0  0  0  0  0  0  0  0  0
   -1.3253   -2.6856   -3.4324 C   0  0  0  0  0  0  0  0  0  0  0  0
   -2.0802   -3.2578   -2.8834 H   0  0  0  0  0  0  0  0  0  0  0  0
   -1.8480   -1.9643   -4.0677 H   0  0  0  0  0  0  0  0  0  0  0  0
   -0.4985   -3.5962   -4.2642 N   0  3  0  0  0  0  0  0  0  0  0  0
   -0.0204   -4.2730   -3.6826 H   0  0  0  0  0  0  0  0  0  0  0  0
   -1.0776   -4.0975   -4.9263 H   0  0  0  0  0  0  0  0  0  0  0  0
    0.1963   -3.0703   -4.7814 H   0  0  0  0  0  0  0  0  0  0  0  0
   -1.3103    1.3348    1.2791 C   0  0  0  0  0  0  0  0  0  0  0  0
   -2.2333    1.9891    0.8084 O   0  0  0  0  0  0  0  0  0  0  0  0
   -0.4429    1.8293    2.1683 N   0  0  0  0  0  0  0  0  0  0  0  0
    0.2668    1.2118    2.5263 H   0  0  0  0  0  0  0  0  0  0  0  0
   -0.5118    3.1863    2.7135 C   0  0  0  0  0  0  0  0  0  0  0  0
   -1.4470    3.3159    3.2625 H   0  0  0  0  0  0  0  0  0  0  0  0
    0.3243    3.3682    3.3896 H   0  0  0  0  0  0  0  0  0  0  0  0
   -0.4850    3.9172    1.9023 H   0  0  0  0  0  0  0  0  0  0  0  0
  5  6  2  0  0  0  0
  5  7  1  0  0  0  0
  2  3  1  0  0  0  0
  2  4  1  0  0  0  0
  2  5  1  0  0  0  0
  1  2  1  0  0  0  0
 27 28  2  0  0  0  0
 27 29  1  0  0  0  0
 23 24  1  0  0  0  0
 23 25  1  0  0  0  0
 23 26  1  0  0  0  0
 20 21  1  0  0  0  0
 20 22  1  0  0  0  0
 20 23  1  0  0  0  0
 17 18  1  0  0  0  0
 17 19  1  0  0  0  0
 17 20  1  0  0  0  0
 14 15  1  0  0  0  0
 14 16  1  0  0  0  0
 14 17  1  0  0  0  0
 11 12  1  0  0  0  0
 11 13  1  0  0  0  0
 11 14  1  0  0  0  0
  9 10  1  0  0  0  0
  9 11  1  0  0  0  0
  9 27  1  0  0  0  0
  7  8  1  0  0  0  0
  7  9  1  0  0  0  0
 31 32  1  0  0  0  0
 31 33  1  0  0  0  0
 31 34  1  0  0  0  0
 29 30  1  0  0  0  0
 29 31  1  0  0  0  0
M  CHG  1  23   1
M  END
$$$$
default_name
  -OEChem-02102213163D

 34 33  0     1  0  0  0  0  0999 V2000
   -3.8899   -3.6747    1.6490 H   0  0  0  0  0  0  0  0  0  0  0  0
   -3.9109   -2.6717    1.2250 C   0  0  0  0  0  0  0  0  0  0  0  0
   -4.6009   -2.0517    1.7950 H   0  0  0  0  0  0  0  0  0  0  0  0
   -4.2309   -2.7237    0.1860 H   0  0  0  0  0  0  0  0  0  0  0  0
   -2.5229   -2.0787    1.2980 C   0  0  0  0  0  0  0  0  0  0  0  0
   -1.5999   -2.7227    1.7810 O   0  0  0  0  0  0  0  0  0  0  0  0
   -2.3659   -0.8447    0.8120 N   0  0  0  0  0  0  0  0  0  0  0  0
   -3.1749   -0.3807    0.4220 H   0  0  0  0  0  0  0  0  0  0  0  0
   -1.0919   -0.1077    0.8170 C   0  0  1  0  0  0  0  0  0  0  0  0
   -0.4136   -0.6011    1.5155 H   0  0  0  0  0  0  0  0  0  0  0  0
   -0.4834   -0.1723   -0.5965 C   0  0  0  0  0  0  0  0  0  0  0  0
   -0.3705    0.8455   -0.9732 H   0  0  0  0  0  0  0  0  0  0  0  0
    0.5081   -0.6259   -0.5398 H   0  0  0  0  0  0  0  0  0  0  0  0
   -1.3454   -0.9631   -1.5925 C   0  0  0  0  0  0  0  0  0  0  0  0
   -2.2434   -1.3280   -1.0922 H   0  0  0  0  0  0  0  0  0  0  0  0
   -1.6370   -0.3073   -2.4151 H   0  0  0  0  0  0  0  0  0  0  0  0
   -0.5587   -2.1577   -2.1494 C   0  0  0  0  0  0  0  0  0  0  0  0
    0.3476   -1.7901   -2.6367 H   0  0  0  0  0  0  0  0  0  0  0  0
   -0.2775   -2.8149   -1.3241 H   0  0  0  0  0  0  0  0  0  0  0  0
   -1.4094   -2.9338   -3.1626 C   0  0  0  0  0  0  0  0  0  0  0  0
   -2.3147   -3.2864   -2.6578 H   0  0  0  0  0  0  0  0  0  0  0  0
   -1.7150   -2.2474   -3.9580 H   0  0  0  0  0  0  0  0  0  0  0  0
   -0.6632   -4.0824   -3.7357 N   0  3  0  0  0  0  0  0  0  0  0  0
   -0.3867   -4.7266   -3.0054 H   0  0  0  0  0  0  0  0  0  0  0  0
   -1.2378   -4.5834   -4.4019 H   0  0  0  0  0  0  0  0  0  0  0  0
    0.1713   -3.7604   -4.2118 H   0  0  0  0  0  0  0  0  0  0  0  0
   -1.3103    1.3348    1.2791 C   0  0  0  0  0  0  0  0  0  0  0  0
   -2.2333    1.9891    0.8084 O   0  0  0  0  0  0  0  0  0  0  0  0
   -0.4429    1.8293    2.1683 N   0  0  0  0  0  0  0  0  0  0  0  0
    0.2668    1.2118    2.5263 H   0  0  0  0  0  0  0  0  0  0  0  0
   -0.5118    3.1863    2.7135 C   0  0  0  0  0  0  0  0  0  0  0  0
   -1.4470    3.3159    3.2625 H   0  0  0  0  0  0  0  0  0  0  0  0
    0.3243    3.3682    3.3896 H   0  0  0  0  0  0  0  0  0  0  0  0
   -0.4850    3.9172    1.9023 H   0  0  0  0  0  0  0  0  0  0  0  0
  5  6  2  0  0  0  0
  5  7  1  0  0  0  0
  2  3  1  0  0  0  0
  2  4  1  0  0  0  0
  2  5  1  0  0  0  0
  1  2  1  0  0  0  0
 27 28  2  0  0  0  0
 27 29  1  0  0  0  0
 23 24  1  0  0  0  0
 23 25  1  0  0  0  0
 23 26  1  0  0  0  0
 20 21  1  0  0  0  0
 20 22  1  0  0  0  0
 20 23  1  0  0  0  0
 17 18  1  0  0  0  0
 17 19  1  0  0  0  0
 17 20  1  0  0  0  0
 14 15  1  0  0  0  0
 14 16  1  0  0  0  0
 14 17  1  0  0  0  0
 11 12  1  0  0  0  0
 11 13  1  0  0  0  0
 11 14  1  0  0  0  0
  9 10  1  0  0  0  0
  9 11  1  0  0  0  0
  9 27  1  0  0  0  0
  7  8  1  0  0  0  0
  7  9  1  0  0  0  0
 31 32  1  0  0  0  0
 31 33  1  0  0  0  0
 31 34  1  0  0  0  0
 29 30  1  0  0  0  0
 29 31  1  0  0  0  0
M  CHG  1  23   1
M  END
$$$$
default_name
  -OEChem-02102213163D

 34 33  0     1  0  0  0  0  0999 V2000
   -3.8899   -3.6747    1.6490 H   0  0  0  0  0  0  0  0  0  0  0  0
   -3.9109   -2.6717    1.2250 C   0  0  0  0  0  0  0  0  0  0  0  0
   -4.6009   -2.0517    1.7950 H   0  0  0  0  0  0  0  0  0  0  0  0
   -4.2309   -2.7237    0.1860 H   0  0  0  0  0  0  0  0  0  0  0  0
   -2.5229   -2.0787    1.2980 C   0  0  0  0  0  0  0  0  0  0  0  0
   -1.5999   -2.7227    1.7810 O   0  0  0  0  0  0  0  0  0  0  0  0
   -2.3659   -0.8447    0.8120 N   0  0  0  0  0  0  0  0  0  0  0  0
   -3.1749   -0.3807    0.4220 H   0  0  0  0  0  0  0  0  0  0  0  0
   -1.0919   -0.1077    0.8170 C   0  0  1  0  0  0  0  0  0  0  0  0
   -0.4136   -0.6011    1.5155 H   0  0  0  0  0  0  0  0  0  0  0  0
   -0.4834   -0.1723   -0.5965 C   0  0  0  0  0  0  0  0  0  0  0  0
   -0.3705    0.8455   -0.9732 H   0  0  0  0  0  0  0  0  0  0  0  0
    0.5081   -0.6259   -0.5398 H   0  0  0  0  0  0  0  0  0  0  0  0
   -1.3454   -0.9631   -1.5925 C   0  0  0  0  0  0  0  0  0  0  0  0
   -2.3477   -1.0987   -1.1841 H   0  0  0  0  0  0  0  0  0  0  0  0
   -1.4143   -0.4065   -2.5291 H   0  0  0  0  0  0  0  0  0  0  0  0
   -0.7220   -2.3392   -1.8640 C   0  0  0  0  0  0  0  0  0  0  0  0
    0.2873   -2.2003   -2.2588 H   0  0  0  0  0  0  0  0  0  0  0  0
   -0.6638   -2.8951   -0.9261 H   0  0  0  0  0  0  0  0  0  0  0  0
   -1.5682   -3.1202   -2.8772 C   0  0  0  0  0  0  0  0  0  0  0  0
   -2.5760   -3.2419   -2.4669 H   0  0  0  0  0  0  0  0  0  0  0  0
   -1.6487   -2.5272   -3.7932 H   0  0  0  0  0  0  0  0  0  0  0  0
   -0.9743   -4.4476   -3.1765 N   0  3  0  0  0  0  0  0  0  0  0  0
   -0.9069   -5.0050   -2.3342 H   0  0  0  0  0  0  0  0  0  0  0  0
   -1.5439   -4.9496   -3.8462 H   0  0  0  0  0  0  0  0  0  0  0  0
   -0.0445   -4.3400   -3.5649 H   0  0  0  0  0  0  0  0  0  0  0  0
   -1.3103    1.3348    1.2791 C   0  0  0  0  0  0  0  0  0  0  0  0
   -2.2333    1.9891    0.8084 O   0  0  0  0  0  0  0  0  0  0  0  0
   -0.4429    1.8293    2.1683 N   0  0  0  0  0  0  0  0  0  0  0  0
    0.2668    1.2118    2.5263 H   0  0  0  0  0  0  0  0  0  0  0  0
   -0.5118    3.1863    2.7135 C   0  0  0  0  0  0  0  0  0  0  0  0
   -1.4470    3.3159    3.2625 H   0  0  0  0  0  0  0  0  0  0  0  0
    0.3243    3.3682    3.3896 H   0  0  0  0  0  0  0  0  0  0  0  0
   -0.4850    3.9172    1.9023 H   0  0  0  0  0  0  0  0  0  0  0  0
  5  6  2  0  0  0  0
  5  7  1  0  0  0  0
  2  3  1  0  0  0  0
  2  4  1  0  0  0  0
  2  5  1  0  0  0  0
  1  2  1  0  0  0  0
 27 28  2  0  0  0  0
 27 29  1  0  0  0  0
 23 24  1  0  0  0  0
 23 25  1  0  0  0  0
 23 26  1  0  0  0  0
 20 21  1  0  0  0  0
 20 22  1  0  0  0  0
 20 23  1  0  0  0  0
 17 18  1  0  0  0  0
 17 19  1  0  0  0  0
 17 20  1  0  0  0  0
 14 15  1  0  0  0  0
 14 16  1  0  0  0  0
 14 17  1  0  0  0  0
 11 12  1  0  0  0  0
 11 13  1  0  0  0  0
 11 14  1  0  0  0  0
  9 10  1  0  0  0  0
  9 11  1  0  0  0  0
  9 27  1  0  0  0  0
  7  8  1  0  0  0  0
  7  9  1  0  0  0  0
 31 32  1  0  0  0  0
 31 33  1  0  0  0  0
 31 34  1  0  0  0  0
 29 30  1  0  0  0  0
 29 31  1  0  0  0  0
M  CHG  1  23   1
M  END
$$$$
default_name
  -OEChem-02102213163D

 34 33  0     1  0  0  0  0  0999 V2000
   -3.8899   -3.6747    1.6490 H   0  0  0  0  0  0  0  0  0  0  0  0
   -3.9109   -2.6717    1.2250 C   0  0  0  0  0  0  0  0  0  0  0  0
   -4.6009   -2.0517    1.7950 H   0  0  0  0  0  0  0  0  0  0  0  0
   -4.2309   -2.7237    0.1860 H   0  0  0  0  0  0  0  0  0  0  0  0
   -2.5229   -2.0787    1.2980 C   0  0  0  0  0  0  0  0  0  0  0  0
   -1.5999   -2.7227    1.7810 O   0  0  0  0  0  0  0  0  0  0  0  0
   -2.3659   -0.8447    0.8120 N   0  0  0  0  0  0  0  0  0  0  0  0
   -3.1749   -0.3807    0.4220 H   0  0  0  0  0  0  0  0  0  0  0  0
   -1.0919   -0.1077    0.8170 C   0  0  1  0  0  0  0  0  0  0  0  0
   -0.4136   -0.6011    1.5155 H   0  0  0  0  0  0  0  0  0  0  0  0
   -0.4834   -0.1723   -0.5965 C   0  0  0  0  0  0  0  0  0  0  0  0
   -0.3705    0.8455   -0.9732 H   0  0  0  0  0  0  0  0  0  0  0  0
    0.5081   -0.6259   -0.5398 H   0  0  0  0  0  0  0  0  0  0  0  0
   -1.3454   -0.9631   -1.5925 C   0  0  0  0  0  0  0  0  0  0  0  0
   -2.3977   -0.8730   -1.3199 H   0  0  0  0  0  0  0  0  0  0  0  0
   -1.2007   -0.5562   -2.5952 H   0  0  0  0  0  0  0  0  0  0  0  0
   -0.9482   -2.4457   -1.5837 C   0  0  0  0  0  0  0  0  0  0  0  0
    0.1099   -2.5315   -1.8424 H   0  0  0  0  0  0  0  0  0  0  0  0
   -1.1034   -2.8500   -0.5814 H   0  0  0  0  0  0  0  0  0  0  0  0
   -1.7910   -3.2321   -2.5955 C   0  0  0  0  0  0  0  0  0  0  0  0
   -2.8464   -3.1274   -2.3238 H   0  0  0  0  0  0  0  0  0  0  0  0
   -1.6536   -2.7847   -3.5846 H   0  0  0  0  0  0  0  0  0  0  0  0
   -1.4105   -4.6670   -2.6248 N   0  3  0  0  0  0  0  0  0  0  0  0
   -1.5455   -5.0892   -1.7147 H   0  0  0  0  0  0  0  0  0  0  0  0
   -1.9751   -5.1713   -3.2970 H   0  0  0  0  0  0  0  0  0  0  0  0
   -0.4364   -4.7698   -2.8845 H   0  0  0  0  0  0  0  0  0  0  0  0
   -1.3103    1.3348    1.2791 C   0  0  0  0  0  0  0  0  0  0  0  0
   -2.2333    1.9891    0.8084 O   0  0  0  0  0  0  0  0  0  0  0  0
   -0.4429    1.8293    2.1683 N   0  0  0  0  0  0  0  0  0  0  0  0
    0.2668    1.2118    2.5263 H   0  0  0  0  0  0  0  0  0  0  0  0
   -0.5118    3.1863    2.7135 C   0  0  0  0  0  0  0  0  0  0  0  0
   -1.4470    3.3159    3.2625 H   0  0  0  0  0  0  0  0  0  0  0  0
    0.3243    3.3682    3.3896 H   0  0  0  0  0  0  0  0  0  0  0  0
   -0.4850    3.9172    1.9023 H   0  0  0  0  0  0  0  0  0  0  0  0
  5  6  2  0  0  0  0
  5  7  1  0  0  0  0
  2  3  1  0  0  0  0
  2  4  1  0  0  0  0
  2  5  1  0  0  0  0
  1  2  1  0  0  0  0
 27 28  2  0  0  0  0
 27 29  1  0  0  0  0
 23 24  1  0  0  0  0
 23 25  1  0  0  0  0
 23 26  1  0  0  0  0
 20 21  1  0  0  0  0
 20 22  1  0  0  0  0
 20 23  1  0  0  0  0
 17 18  1  0  0  0  0
 17 19  1  0  0  0  0
 17 20  1  0  0  0  0
 14 15  1  0  0  0  0
 14 16  1  0  0  0  0
 14 17  1  0  0  0  0
 11 12  1  0  0  0  0
 11 13  1  0  0  0  0
 11 14  1  0  0  0  0
  9 10  1  0  0  0  0
  9 11  1  0  0  0  0
  9 27  1  0  0  0  0
  7  8  1  0  0  0  0
  7  9  1  0  0  0  0
 31 32  1  0  0  0  0
 31 33  1  0  0  0  0
 31 34  1  0  0  0  0
 29 30  1  0  0  0  0
 29 31  1  0  0  0  0
M  CHG  1  23   1
M  END
$$$$
default_name
  -OEChem-02102213163D

 34 33  0     1  0  0  0  0  0999 V2000
   -3.8899   -3.6747    1.6490 H   0  0  0  0  0  0  0  0  0  0  0  0
   -3.9109   -2.6717    1.2250 C   0  0  0  0  0  0  0  0  0  0  0  0
   -4.6009   -2.0517    1.7950 H   0  0  0  0  0  0  0  0  0  0  0  0
   -4.2309   -2.7237    0.1860 H   0  0  0  0  0  0  0  0  0  0  0  0
   -2.5229   -2.0787    1.2980 C   0  0  0  0  0  0  0  0  0  0  0  0
   -1.5999   -2.7227    1.7810 O   0  0  0  0  0  0  0  0  0  0  0  0
   -2.3659   -0.8447    0.8120 N   0  0  0  0  0  0  0  0  0  0  0  0
   -3.1749   -0.3807    0.4220 H   0  0  0  0  0  0  0  0  0  0  0  0
   -1.0919   -0.1077    0.8170 C   0  0  1  0  0  0  0  0  0  0  0  0
   -0.4136   -0.6011    1.5155 H   0  0  0  0  0  0  0  0  0  0  0  0
   -0.4834   -0.1723   -0.5965 C   0  0  0  0  0  0  0  0  0  0  0  0
   -0.3705    0.8455   -0.9732 H   0  0  0  0  0  0  0  0  0  0  0  0
    0.5081   -0.6259   -0.5398 H   0  0  0  0  0  0  0  0  0  0  0  0
   -1.3454   -0.9631   -1.5925 C   0  0  0  0  0  0  0  0  0  0  0  0
   -2.3901   -0.6664   -1.4906 H   0  0  0  0  0  0  0  0  0  0  0  0
   -1.0106   -0.7463   -2.6088 H   0  0  0  0  0  0  0  0  0  0  0  0
   -1.2218   -2.4700   -1.3276 C   0  0  0  0  0  0  0  0  0  0  0  0
   -0.1724   -2.7612   -1.4156 H   0  0  0  0  0  0  0  0  0  0  0  0
   -1.5664   -2.6827   -0.3136 H   0  0  0  0  0  0  0  0  0  0  0  0
   -2.0624   -3.2619   -2.3369 C   0  0  0  0  0  0  0  0  0  0  0  0
   -3.1074   -2.9506   -2.2383 H   0  0  0  0  0  0  0  0  0  0  0  0
   -1.7292   -3.0024   -3.3463 H   0  0  0  0  0  0  0  0  0  0  0  0
   -1.9421   -4.7256   -2.1182 N   0  3  0  0  0  0  0  0  0  0  0  0
   -2.2589   -4.9734   -1.1892 H   0  0  0  0  0  0  0  0  0  0  0  0
   -2.5019   -5.2333   -2.7918 H   0  0  0  0  0  0  0  0  0  0  0  0
   -0.9777   -5.0203   -2.2171 H   0  0  0  0  0  0  0  0  0  0  0  0
   -1.3103    1.3348    1.2791 C   0  0  0  0  0  0  0  0  0  0  0  0
   -2.2333    1.9891    0.8084 O   0  0  0  0  0  0  0  0  0  0  0  0
   -0.4429    1.8293    2.1683 N   0  0  0  0  0  0  0  0  0  0  0  0
    0.2668    1.2118    2.5263 H   0  0  0  0  0  0  0  0  0  0  0  0
   -0.5118    3.1863    2.7135 C   0  0  0  0  0  0  0  0  0  0  0  0
   -1.4470    3.3159    3.2625 H   0  0  0  0  0  0  0  0  0  0  0  0
    0.3243    3.3682    3.3896 H   0  0  0  0  0  0  0  0  0  0  0  0
   -0.4850    3.9172    1.9023 H   0  0  0  0  0  0  0  0  0  0  0  0
  5  6  2  0  0  0  0
  5  7  1  0  0  0  0
  2  3  1  0  0  0  0
  2  4  1  0  0  0  0
  2  5  1  0  0  0  0
  1  2  1  0  0  0  0
 27 28  2  0  0  0  0
 27 29  1  0  0  0  0
 23 24  1  0  0  0  0
 23 25  1  0  0  0  0
 23 26  1  0  0  0  0
 20 21  1  0  0  0  0
 20 22  1  0  0  0  0
 20 23  1  0  0  0  0
 17 18  1  0  0  0  0
 17 19  1  0  0  0  0
 17 20  1  0  0  0  0
 14 15  1  0  0  0  0
 14 16  1  0  0  0  0
 14 17  1  0  0  0  0
 11 12  1  0  0  0  0
 11 13  1  0  0  0  0
 11 14  1  0  0  0  0
  9 10  1  0  0  0  0
  9 11  1  0  0  0  0
  9 27  1  0  0  0  0
  7  8  1  0  0  0  0
  7  9  1  0  0  0  0
 31 32  1  0  0  0  0
 31 33  1  0  0  0  0
 31 34  1  0  0  0  0
 29 30  1  0  0  0  0
 29 31  1  0  0  0  0
M  CHG  1  23   1
M  END
$$$$
default_name
  -OEChem-02102213163D

 34 33  0     1  0  0  0  0  0999 V2000
   -3.8899   -3.6747    1.6490 H   0  0  0  0  0  0  0  0  0  0  0  0
   -3.9109   -2.6717    1.2250 C   0  0  0  0  0  0  0  0  0  0  0  0
   -4.6009   -2.0517    1.7950 H   0  0  0  0  0  0  0  0  0  0  0  0
   -4.2309   -2.7237    0.1860 H   0  0  0  0  0  0  0  0  0  0  0  0
   -2.5229   -2.0787    1.2980 C   0  0  0  0  0  0  0  0  0  0  0  0
   -1.5999   -2.7227    1.7810 O   0  0  0  0  0  0  0  0  0  0  0  0
   -2.3659   -0.8447    0.8120 N   0  0  0  0  0  0  0  0  0  0  0  0
   -3.1749   -0.3807    0.4220 H   0  0  0  0  0  0  0  0  0  0  0  0
   -1.0919   -0.1077    0.8170 C   0  0  1  0  0  0  0  0  0  0  0  0
   -0.4136   -0.6011    1.5155 H   0  0  0  0  0  0  0  0  0  0  0  0
   -0.4834   -0.1723   -0.5965 C   0  0  0  0  0  0  0  0  0  0  0  0
   -0.3705    0.8455   -0.9732 H   0  0  0  0  0  0  0  0  0  0  0  0
    0.5081   -0.6259   -0.5398 H   0  0  0  0  0  0  0  0  0  0  0  0
   -1.3454   -0.9631   -1.5925 C   0  0  0  0  0  0  0  0  0  0  0  0
   -2.3253   -0.4928   -1.6845 H   0  0  0  0  0  0  0  0  0  0  0  0
   -0.8571   -0.9637   -2.5690 H   0  0  0  0  0  0  0  0  0  0  0  0
   -1.5244   -2.4102   -1.1131 C   0  0  0  0  0  0  0  0  0  0  0  0
   -0.5406   -2.8737   -1.0076 H   0  0  0  0  0  0  0  0  0  0  0  0
   -2.0212   -2.4044   -0.1409 H   0  0  0  0  0  0  0  0  0  0  0  0
   -2.3641   -3.2077   -2.1189 C   0  0  0  0  0  0  0  0  0  0  0  0
   -3.3413   -2.7236   -2.2161 H   0  0  0  0  0  0  0  0  0  0  0  0
   -1.8706   -3.1653   -3.0946 H   0  0  0  0  0  0  0  0  0  0  0  0
   -2.5330   -4.6194   -1.6911 N   0  3  0  0  0  0  0  0  0  0  0  0
   -2.9987   -4.6655   -0.7934 H   0  0  0  0  0  0  0  0  0  0  0  0
   -3.0885   -5.1315   -2.3650 H   0  0  0  0  0  0  0  0  0  0  0  0
   -1.6315   -5.0746   -1.6082 H   0  0  0  0  0  0  0  0  0  0  0  0
   -1.3103    1.3348    1.2791 C   0  0  0  0  0  0  0  0  0  0  0  0
   -2.2333    1.9891    0.8084 O   0  0  0  0  0  0  0  0  0  0  0  0
   -0.4429    1.8293    2.1683 N   0  0  0  0  0  0  0  0  0  0  0  0
    0.2668    1.2118    2.5263 H   0  0  0  0  0  0  0  0  0  0  0  0
   -0.5118    3.1863    2.7135 C   0  0  0  0  0  0  0  0  0  0  0  0
   -1.4470    3.3159    3.2625 H   0  0  0  0  0  0  0  0  0  0  0  0
    0.3243    3.3682    3.3896 H   0  0  0  0  0  0  0  0  0  0  0  0
   -0.4850    3.9172    1.9023 H   0  0  0  0  0  0  0  0  0  0  0  0
  5  6  2  0  0  0  0
  5  7  1  0  0  0  0
  2  3  1  0  0  0  0
  2  4  1  0  0  0  0
  2  5  1  0  0  0  0
  1  2  1  0  0  0  0
 27 28  2  0  0  0  0
 27 29  1  0  0  0  0
 23 24  1  0  0  0  0
 23 25  1  0  0  0  0
 23 26  1  0  0  0  0
 20 21  1  0  0  0  0
 20 22  1  0  0  0  0
 20 23  1  0  0  0  0
 17 18  1  0  0  0  0
 17 19  1  0  0  0  0
 17 20  1  0  0  0  0
 14 15  1  0  0  0  0
 14 16  1  0  0  0  0
 14 17  1  0  0  0  0
 11 12  1  0  0  0  0
 11 13  1  0  0  0  0
 11 14  1  0  0  0  0
  9 10  1  0  0  0  0
  9 11  1  0  0  0  0
  9 27  1  0  0  0  0
  7  8  1  0  0  0  0
  7  9  1  0  0  0  0
 31 32  1  0  0  0  0
 31 33  1  0  0  0  0
 31 34  1  0  0  0  0
 29 30  1  0  0  0  0
 29 31  1  0  0  0  0
M  CHG  1  23   1
M  END
$$$$
default_name
  -OEChem-02102213163D

 34 33  0     1  0  0  0  0  0999 V2000
   -3.8899   -3.6747    1.6490 H   0  0  0  0  0  0  0  0  0  0  0  0
   -3.9109   -2.6717    1.2250 C   0  0  0  0  0  0  0  0  0  0  0  0
   -4.6009   -2.0517    1.7950 H   0  0  0  0  0  0  0  0  0  0  0  0
   -4.2309   -2.7237    0.1860 H   0  0  0  0  0  0  0  0  0  0  0  0
   -2.5229   -2.0787    1.2980 C   0  0  0  0  0  0  0  0  0  0  0  0
   -1.5999   -2.7227    1.7810 O   0  0  0  0  0  0  0  0  0  0  0  0
   -2.3659   -0.8447    0.8120 N   0  0  0  0  0  0  0  0  0  0  0  0
   -3.1749   -0.3807    0.4220 H   0  0  0  0  0  0  0  0  0  0  0  0
   -1.0919   -0.1077    0.8170 C   0  0  1  0  0  0  0  0  0  0  0  0
   -0.4136   -0.6011    1.5155 H   0  0  0  0  0  0  0  0  0  0  0  0
   -0.4834   -0.1723   -0.5965 C   0  0  0  0  0  0  0  0  0  0  0  0
   -0.3705    0.8455   -0.9732 H   0  0  0  0  0  0  0  0  0  0  0  0
    0.5081   -0.6259   -0.5398 H   0  0  0  0  0  0  0  0  0  0  0  0
   -1.3454   -0.9631   -1.5925 C   0  0  0  0  0  0  0  0  0  0  0  0
   -2.2078   -0.3642   -1.8883 H   0  0  0  0  0  0  0  0  0  0  0  0
   -0.7507   -1.1937   -2.4785 H   0  0  0  0  0  0  0  0  0  0  0  0
   -1.8352   -2.2707   -0.9550 C   0  0  0  0  0  0  0  0  0  0  0  0
   -0.9694   -2.8614   -0.6463 H   0  0  0  0  0  0  0  0  0  0  0  0
   -2.4368   -2.0343   -0.0750 H   0  0  0  0  0  0  0  0  0  0  0  0
   -2.6754   -3.0730   -1.9564 C   0  0  0  0  0  0  0  0  0  0  0  0
   -3.5321   -2.4619   -2.2588 H   0  0  0  0  0  0  0  0  0  0  0  0
   -2.0680   -3.2624   -2.8467 H   0  0  0  0  0  0  0  0  0  0  0  0
   -3.1428   -4.3556   -1.3727 N   0  3  0  0  0  0  0  0  0  0  0  0
   -3.7143   -4.1865   -0.5544 H   0  0  0  0  0  0  0  0  0  0  0  0
   -3.6949   -4.8727   -2.0456 H   0  0  0  0  0  0  0  0  0  0  0  0
   -2.3532   -4.9289   -1.0992 H   0  0  0  0  0  0  0  0  0  0  0  0
   -1.3103    1.3348    1.2791 C   0  0  0  0  0  0  0  0  0  0  0  0
   -2.2333    1.9891    0.8084 O   0  0  0  0  0  0  0  0  0  0  0  0
   -0.4429    1.8293    2.1683 N   0  0  0  0  0  0  0  0  0  0  0  0
    0.2668    1.2118    2.5263 H   0  0  0  0  0  0  0  0  0  0  0  0
   -0.5118    3.1863    2.7135 C   0  0  0  0  0  0  0  0  0  0  0  0
   -1.4470    3.3159    3.2625 H   0  0  0  0  0  0  0  0  0  0  0  0
    0.3243    3.3682    3.3896 H   0  0  0  0  0  0  0  0  0  0  0  0
   -0.4850    3.9172    1.9023 H   0  0  0  0  0  0  0  0  0  0  0  0
  5  6  2  0  0  0  0
  5  7  1  0  0  0  0
  2  3  1  0  0  0  0
  2  4  1  0  0  0  0
  2  5  1  0  0  0  0
  1  2  1  0  0  0  0
 27 28  2  0  0  0  0
 27 29  1  0  0  0  0
 23 24  1  0  0  0  0
 23 25  1  0  0  0  0
 23 26  1  0  0  0  0
 20 21  1  0  0  0  0
 20 22  1  0  0  0  0
 20 23  1  0  0  0  0
 17 18  1  0  0  0  0
 17 19  1  0  0  0  0
 17 20  1  0  0  0  0
 14 15  1  0  0  0  0
 14 16  1  0  0  0  0
 14 17  1  0  0  0  0
 11 12  1  0  0  0  0
 11 13  1  0  0  0  0
 11 14  1  0  0  0  0
  9 10  1  0  0  0  0
  9 11  1  0  0  0  0
  9 27  1  0  0  0  0
  7  8  1  0  0  0  0
  7  9  1  0  0  0  0
 31 32  1  0  0  0  0
 31 33  1  0  0  0  0
 31 34  1  0  0  0  0
 29 30  1  0  0  0  0
 29 31  1  0  0  0  0
M  CHG  1  23   1
M  END
$$$$
default_name
  -OEChem-02102213163D

 34 33  0     1  0  0  0  0  0999 V2000
   -3.8899   -3.6747    1.6490 H   0  0  0  0  0  0  0  0  0  0  0  0
   -3.9109   -2.6717    1.2250 C   0  0  0  0  0  0  0  0  0  0  0  0
   -4.6009   -2.0517    1.7950 H   0  0  0  0  0  0  0  0  0  0  0  0
   -4.2309   -2.7237    0.1860 H   0  0  0  0  0  0  0  0  0  0  0  0
   -2.5229   -2.0787    1.2980 C   0  0  0  0  0  0  0  0  0  0  0  0
   -1.5999   -2.7227    1.7810 O   0  0  0  0  0  0  0  0  0  0  0  0
   -2.3659   -0.8447    0.8120 N   0  0  0  0  0  0  0  0  0  0  0  0
   -3.1749   -0.3807    0.4220 H   0  0  0  0  0  0  0  0  0  0  0  0
   -1.0919   -0.1077    0.8170 C   0  0  1  0  0  0  0  0  0  0  0  0
   -0.4136   -0.6011    1.5155 H   0  0  0  0  0  0  0  0  0  0  0  0
   -0.4834   -0.1723   -0.5965 C   0  0  0  0  0  0  0  0  0  0  0  0
   -0.3705    0.8455   -0.9732 H   0  0  0  0  0  0  0  0  0  0  0  0
    0.5081   -0.6259   -0.5398 H   0  0  0  0  0  0  0  0  0  0  0  0
   -1.3454   -0.9631   -1.5925 C   0  0  0  0  0  0  0  0  0  0  0  0
   -2.0455   -0.2894   -2.0882 H   0  0  0  0  0  0  0  0  0  0  0  0
   -0.6985   -1.4206   -2.3436 H   0  0  0  0  0  0  0  0  0  0  0  0
   -2.1330   -2.0607   -0.8639 C   0  0  0  0  0  0  0  0  0  0  0  0
   -1.4297   -2.7251   -0.3561 H   0  0  0  0  0  0  0  0  0  0  0  0
   -2.7849   -1.5975   -0.1206 H   0  0  0  0  0  0  0  0  0  0  0  0
   -2.9751   -2.8671   -1.8605 C   0  0  0  0  0  0  0  0  0  0  0  0
   -3.6667   -2.1833   -2.3634 H   0  0  0  0  0  0  0  0  0  0  0  0
   -2.3080   -3.2870   -2.6194 H   0  0  0  0  0  0  0  0  0  0  0  0
   -3.7300   -3.9524   -1.1847 N   0  3  0  0  0  0  0  0  0  0  0  0
   -4.3569   -3.5690   -0.4884 H   0  0  0  0  0  0  0  0  0  0  0  0
   -4.2798   -4.4746   -1.8555 H   0  0  0  0  0  0  0  0  0  0  0  0
   -3.0937   -4.5931   -0.7249 H   0  0  0  0  0  0  0  0  0  0  0  0
   -1.3103    1.3348    1.2791 C   0  0  0  0  0  0  0  0  0  0  0  0
   -2.2333    1.9891    0.8084 O   0  0  0  0  0  0  0  0  0  0  0  0
   -0.4429    1.8293    2.1683 N   0  0  0  0  0  0  0  0  0  0  0  0
    0.2668    1.2118    2.5263 H   0  0  0  0  0  0  0  0  0  0  0  0
   -0.5118    3.1863    2.7135 C   0  0  0  0  0  0  0  0  0  0  0  0
   -1.4470    3.3159    3.2625 H   0  0  0  0  0  0  0  0  0  0  0  0
    0.3243    3.3682    3.3896 H   0  0  0  0  0  0  0  0  0  0  0  0
   -0.4850    3.9172    1.9023 H   0  0  0  0  0  0  0  0  0  0  0  0
  5  6  2  0  0  0  0
  5  7  1  0  0  0  0
  2  3  1  0  0  0  0
  2  4  1  0  0  0  0
  2  5  1  0  0  0  0
  1  2  1  0  0  0  0
 27 28  2  0  0  0  0
 27 29  1  0  0  0  0
 23 24  1  0  0  0  0
 23 25  1  0  0  0  0
 23 26  1  0  0  0  0
 20 21  1  0  0  0  0
 20 22  1  0  0  0  0
 20 23  1  0  0  0  0
 17 18  1  0  0  0  0
 17 19  1  0  0  0  0
 17 20  1  0  0  0  0
 14 15  1  0  0  0  0
 14 16  1  0  0  0  0
 14 17  1  0  0  0  0
 11 12  1  0  0  0  0
 11 13  1  0  0  0  0
 11 14  1  0  0  0  0
  9 10  1  0  0  0  0
  9 11  1  0  0  0  0
  9 27  1  0  0  0  0
  7  8  1  0  0  0  0
  7  9  1  0  0  0  0
 31 32  1  0  0  0  0
 31 33  1  0  0  0  0
 31 34  1  0  0  0  0
 29 30  1  0  0  0  0
 29 31  1  0  0  0  0
M  CHG  1  23   1
M  END
$$$$
default_name
  -OEChem-02102213163D

 34 33  0     1  0  0  0  0  0999 V2000
   -3.8899   -3.6747    1.6490 H   0  0  0  0  0  0  0  0  0  0  0  0
   -3.9109   -2.6717    1.2250 C   0  0  0  0  0  0  0  0  0  0  0  0
   -4.6009   -2.0517    1.7950 H   0  0  0  0  0  0  0  0  0  0  0  0
   -4.2309   -2.7237    0.1860 H   0  0  0  0  0  0  0  0  0  0  0  0
   -2.5229   -2.0787    1.2980 C   0  0  0  0  0  0  0  0  0  0  0  0
   -1.5999   -2.7227    1.7810 O   0  0  0  0  0  0  0  0  0  0  0  0
   -2.3659   -0.8447    0.8120 N   0  0  0  0  0  0  0  0  0  0  0  0
   -3.1749   -0.3807    0.4220 H   0  0  0  0  0  0  0  0  0  0  0  0
   -1.0919   -0.1077    0.8170 C   0  0  1  0  0  0  0  0  0  0  0  0
   -0.4136   -0.6011    1.5155 H   0  0  0  0  0  0  0  0  0  0  0  0
   -0.4834   -0.1723   -0.5965 C   0  0  0  0  0  0  0  0  0  0  0  0
   -0.3705    0.8455   -0.9732 H   0  0  0  0  0  0  0  0  0  0  0  0
    0.5081   -0.6259   -0.5398 H   0  0  0  0  0  0  0  0  0  0  0  0
   -1.3454   -0.9631   -1.5925 C   0  0  0  0  0  0  0  0  0  0  0  0
   -1.8496   -0.2733   -2.2705 H   0  0  0  0  0  0  0  0  0  0  0  0
   -0.7041   -1.6289   -2.1733 H   0  0  0  0  0  0  0  0  0  0  0  0
   -2.3976   -1.7947   -0.8461 C   0  0  0  0  0  0  0  0  0  0  0  0
   -1.8901   -2.4740   -0.1570 H   0  0  0  0  0  0  0  0  0  0  0  0
   -3.0418   -1.1237   -0.2744 H   0  0  0  0  0  0  0  0  0  0  0  0
   -3.2429   -2.6039   -1.8377 C   0  0  0  0  0  0  0  0  0  0  0  0
   -3.7361   -1.9068   -2.5229 H   0  0  0  0  0  0  0  0  0  0  0  0
   -2.5743   -3.2376   -2.4282 H   0  0  0  0  0  0  0  0  0  0  0  0
   -4.2546   -3.4370   -1.1399 N   0  3  0  0  0  0  0  0  0  0  0  0
   -4.8829   -2.8552   -0.6000 H   0  0  0  0  0  0  0  0  0  0  0  0
   -4.8032   -3.9644   -1.8076 H   0  0  0  0  0  0  0  0  0  0  0  0
   -3.8025   -4.0902   -0.5108 H   0  0  0  0  0  0  0  0  0  0  0  0
   -1.3103    1.3348    1.2791 C   0  0  0  0  0  0  0  0  0  0  0  0
   -2.2333    1.9891    0.8084 O   0  0  0  0  0  0  0  0  0  0  0  0
   -0.4429    1.8293    2.1683 N   0  0  0  0  0  0  0  0  0  0  0  0
    0.2668    1.2118    2.5263 H   0  0  0  0  0  0  0  0  0  0  0  0
   -0.5118    3.1863    2.7135 C   0  0  0  0  0  0  0  0  0  0  0  0
   -1.4470    3.3159    3.2625 H   0  0  0  0  0  0  0  0  0  0  0  0
    0.3243    3.3682    3.3896 H   0  0  0  0  0  0  0  0  0  0  0  0
   -0.4850    3.9172    1.9023 H   0  0  0  0  0  0  0  0  0  0  0  0
  5  6  2  0  0  0  0
  5  7  1  0  0  0  0
  2  3  1  0  0  0  0
  2  4  1  0  0  0  0
  2  5  1  0  0  0  0
  1  2  1  0  0  0  0
 27 28  2  0  0  0  0
 27 29  1  0  0  0  0
 23 24  1  0  0  0  0
 23 25  1  0  0  0  0
 23 26  1  0  0  0  0
 20 21  1  0  0  0  0
 20 22  1  0  0  0  0
 20 23  1  0  0  0  0
 17 18  1  0  0  0  0
 17 19  1  0  0  0  0
 17 20  1  0  0  0  0
 14 15  1  0  0  0  0
 14 16  1  0  0  0  0
 14 17  1  0  0  0  0
 11 12  1  0  0  0  0
 11 13  1  0  0  0  0
 11 14  1  0  0  0  0
  9 10  1  0  0  0  0
  9 11  1  0  0  0  0
  9 27  1  0  0  0  0
  7  8  1  0  0  0  0
  7  9  1  0  0  0  0
 31 32  1  0  0  0  0
 31 33  1  0  0  0  0
 31 34  1  0  0  0  0
 29 30  1  0  0  0  0
 29 31  1  0  0  0  0
M  CHG  1  23   1
M  END
$$$$
default_name
  -OEChem-02102213163D

 34 33  0     1  0  0  0  0  0999 V2000
   -3.8899   -3.6747    1.6490 H   0  0  0  0  0  0  0  0  0  0  0  0
   -3.9109   -2.6717    1.2250 C   0  0  0  0  0  0  0  0  0  0  0  0
   -4.6009   -2.0517    1.7950 H   0  0  0  0  0  0  0  0  0  0  0  0
   -4.2309   -2.7237    0.1860 H   0  0  0  0  0  0  0  0  0  0  0  0
   -2.5229   -2.0787    1.2980 C   0  0  0  0  0  0  0  0  0  0  0  0
   -1.5999   -2.7227    1.7810 O   0  0  0  0  0  0  0  0  0  0  0  0
   -2.3659   -0.8447    0.8120 N   0  0  0  0  0  0  0  0  0  0  0  0
   -3.1749   -0.3807    0.4220 H   0  0  0  0  0  0  0  0  0  0  0  0
   -1.0919   -0.1077    0.8170 C   0  0  1  0  0  0  0  0  0  0  0  0
   -0.4136   -0.6011    1.5155 H   0  0  0  0  0  0  0  0  0  0  0  0
   -0.4834   -0.1723   -0.5965 C   0  0  0  0  0  0  0  0  0  0  0  0
   -0.3705    0.8455   -0.9732 H   0  0  0  0  0  0  0  0  0  0  0  0
    0.5081   -0.6259   -0.5398 H   0  0  0  0  0  0  0  0  0  0  0  0
   -1.3454   -0.9631   -1.5925 C   0  0  0  0  0  0  0  0  0  0  0  0
   -1.6334   -0.3171   -2.4229 H   0  0  0  0  0  0  0  0  0  0  0  0
   -0.7671   -1.8045   -1.9793 H   0  0  0  0  0  0  0  0  0  0  0  0
   -2.6110   -1.4908   -0.9027 C   0  0  0  0  0  0  0  0  0  0  0  0
   -2.3192   -2.1254   -0.0625 H   0  0  0  0  0  0  0  0  0  0  0  0
   -3.1900   -0.6453   -0.5259 H   0  0  0  0  0  0  0  0  0  0  0  0
   -3.4604   -2.3015   -1.8895 C   0  0  0  0  0  0  0  0  0  0  0  0
   -3.7355   -1.6512   -2.7263 H   0  0  0  0  0  0  0  0  0  0  0  0
   -2.8486   -3.1174   -2.2862 H   0  0  0  0  0  0  0  0  0  0  0  0
   -4.6808   -2.8447   -1.2414 N   0  3  0  0  0  0  0  0  0  0  0  0
   -5.2563   -2.0936   -0.8814 H   0  0  0  0  0  0  0  0  0  0  0  0
   -5.2296   -3.3768   -1.9051 H   0  0  0  0  0  0  0  0  0  0  0  0
   -4.4313   -3.4544   -0.4714 H   0  0  0  0  0  0  0  0  0  0  0  0
   -1.3103    1.3348    1.2791 C   0  0  0  0  0  0  0  0  0  0  0  0
   -2.2333    1.9891    0.8084 O   0  0  0  0  0  0  0  0  0  0  0  0
   -0.4429    1.8293    2.1683 N   0  0  0  0  0  0  0  0  0  0  0  0
    0.2668    1.2118    2.5263 H   0  0  0  0  0  0  0  0  0  0  0  0
   -0.5118    3.1863    2.7135 C   0  0  0  0  0  0  0  0  0  0  0  0
   -1.4470    3.3159    3.2625 H   0  0  0  0  0  0  0  0  0  0  0  0
    0.3243    3.3682    3.3896 H   0  0  0  0  0  0  0  0  0  0  0  0
   -0.4850    3.9172    1.9023 H   0  0  0  0  0  0  0  0  0  0  0  0
  5  6  2  0  0  0  0
  5  7  1  0  0  0  0
  2  3  1  0  0  0  0
  2  4  1  0  0  0  0
  2  5  1  0  0  0  0
  1  2  1  0  0  0  0
 27 28  2  0  0  0  0
 27 29  1  0  0  0  0
 23 24  1  0  0  0  0
 23 25  1  0  0  0  0
 23 26  1  0  0  0  0
 20 21  1  0  0  0  0
 20 22  1  0  0  0  0
 20 23  1  0  0  0  0
 17 18  1  0  0  0  0
 17 19  1  0  0  0  0
 17 20  1  0  0  0  0
 14 15  1  0  0  0  0
 14 16  1  0  0  0  0
 14 17  1  0  0  0  0
 11 12  1  0  0  0  0
 11 13  1  0  0  0  0
 11 14  1  0  0  0  0
  9 10  1  0  0  0  0
  9 11  1  0  0  0  0
  9 27  1  0  0  0  0
  7  8  1  0  0  0  0
  7  9  1  0  0  0  0
 31 32  1  0  0  0  0
 31 33  1  0  0  0  0
 31 34  1  0  0  0  0
 29 30  1  0  0  0  0
 29 31  1  0  0  0  0
M  CHG  1  23   1
M  END
$$$$
default_name
  -OEChem-02102213163D

 34 33  0     1  0  0  0  0  0999 V2000
   -3.8899   -3.6747    1.6490 H   0  0  0  0  0  0  0  0  0  0  0  0
   -3.9109   -2.6717    1.2250 C   0  0  0  0  0  0  0  0  0  0  0  0
   -4.6009   -2.0517    1.7950 H   0  0  0  0  0  0  0  0  0  0  0  0
   -4.2309   -2.7237    0.1860 H   0  0  0  0  0  0  0  0  0  0  0  0
   -2.5229   -2.0787    1.2980 C   0  0  0  0  0  0  0  0  0  0  0  0
   -1.5999   -2.7227    1.7810 O   0  0  0  0  0  0  0  0  0  0  0  0
   -2.3659   -0.8447    0.8120 N   0  0  0  0  0  0  0  0  0  0  0  0
   -3.1749   -0.3807    0.4220 H   0  0  0  0  0  0  0  0  0  0  0  0
   -1.0919   -0.1077    0.8170 C   0  0  1  0  0  0  0  0  0  0  0  0
   -0.4136   -0.6011    1.5155 H   0  0  0  0  0  0  0  0  0  0  0  0
   -0.4834   -0.1723   -0.5965 C   0  0  0  0  0  0  0  0  0  0  0  0
   -0.3705    0.8455   -0.9732 H   0  0  0  0  0  0  0  0  0  0  0  0
    0.5081   -0.6259   -0.5398 H   0  0  0  0  0  0  0  0  0  0  0  0
   -1.3454   -0.9631   -1.5925 C   0  0  0  0  0  0  0  0  0  0  0  0
   -1.4116   -0.4178   -2.5349 H   0  0  0  0  0  0  0  0  0  0  0  0
   -0.8833   -1.9353   -1.7749 H   0  0  0  0  0  0  0  0  0  0  0  0
   -2.7585   -1.1697   -1.0300 C   0  0  0  0  0  0  0  0  0  0  0  0
   -2.6878   -1.7029   -0.0789 H   0  0  0  0  0  0  0  0  0  0  0  0
   -3.2194   -0.1949   -0.8581 H   0  0  0  0  0  0  0  0  0  0  0  0
   -3.6129   -1.9804   -2.0125 C   0  0  0  0  0  0  0  0  0  0  0  0
   -3.6650   -1.4340   -2.9599 H   0  0  0  0  0  0  0  0  0  0  0  0
   -3.1123   -2.9346   -2.2031 H   0  0  0  0  0  0  0  0  0  0  0  0
   -4.9795   -2.2157   -1.4821 N   0  3  0  0  0  0  0  0  0  0  0  0
   -5.4517   -1.3363   -1.3136 H   0  0  0  0  0  0  0  0  0  0  0  0
   -5.5299   -2.7517   -2.1415 H   0  0  0  0  0  0  0  0  0  0  0  0
   -4.9372   -2.7291   -0.6095 H   0  0  0  0  0  0  0  0  0  0  0  0
   -1.3103    1.3348    1.2791 C   0  0  0  0  0  0  0  0  0  0  0  0
   -2.2333    1.9891    0.8084 O   0  0  0  0  0  0  0  0  0  0  0  0
   -0.4429    1.8293    2.1683 N   0  0  0  0  0  0  0  0  0  0  0  0
    0.2668    1.2118    2.5263 H   0  0  0  0  0  0  0  0  0  0  0  0
   -0.5118    3.1863    2.7135 C   0  0  0  0  0  0  0  0  0  0  0  0
   -1.4470    3.3159    3.2625 H   0  0  0  0  0  0  0  0  0  0  0  0
    0.3243    3.3682    3.3896 H   0  0  0  0  0  0  0  0  0  0  0  0
   -0.4850    3.9172    1.9023 H   0  0  0  0  0  0  0  0  0  0  0  0
  5  6  2  0  0  0  0
  5  7  1  0  0  0  0
  2  3  1  0  0  0  0
  2  4  1  0  0  0  0
  2  5  1  0  0  0  0
  1  2  1  0  0  0  0
 27 28  2  0  0  0  0
 27 29  1  0  0  0  0
 23 24  1  0  0  0  0
 23 25  1  0  0  0  0
 23 26  1  0  0  0  0
 20 21  1  0  0  0  0
 20 22  1  0  0  0  0
 20 23  1  0  0  0  0
 17 18  1  0  0  0  0
 17 19  1  0  0  0  0
 17 20  1  0  0  0  0
 14 15  1  0  0  0  0
 14 16  1  0  0  0  0
 14 17  1  0  0  0  0
 11 12  1  0  0  0  0
 11 13  1  0  0  0  0
 11 14  1  0  0  0  0
  9 10  1  0  0  0  0
  9 11  1  0  0  0  0
  9 27  1  0  0  0  0
  7  8  1  0  0  0  0
  7  9  1  0  0  0  0
 31 32  1  0  0  0  0
 31 33  1  0  0  0  0
 31 34  1  0  0  0  0
 29 30  1  0  0  0  0
 29 31  1  0  0  0  0
M  CHG  1  23   1
M  END
$$$$
default_name
  -OEChem-02102213163D

 34 33  0     1  0  0  0  0  0999 V2000
   -3.8899   -3.6747    1.6490 H   0  0  0  0  0  0  0  0  0  0  0  0
   -3.9109   -2.6717    1.2250 C   0  0  0  0  0  0  0  0  0  0  0  0
   -4.6009   -2.0517    1.7950 H   0  0  0  0  0  0  0  0  0  0  0  0
   -4.2309   -2.7237    0.1860 H   0  0  0  0  0  0  0  0  0  0  0  0
   -2.5229   -2.0787    1.2980 C   0  0  0  0  0  0  0  0  0  0  0  0
   -1.5999   -2.7227    1.7810 O   0  0  0  0  0  0  0  0  0  0  0  0
   -2.3659   -0.8447    0.8120 N   0  0  0  0  0  0  0  0  0  0  0  0
   -3.1749   -0.3807    0.4220 H   0  0  0  0  0  0  0  0  0  0  0  0
   -1.0919   -0.1077    0.8170 C   0  0  1  0  0  0  0  0  0  0  0  0
   -0.4136   -0.6011    1.5155 H   0  0  0  0  0  0  0  0  0  0  0  0
   -0.4834   -0.1723   -0.5965 C   0  0  0  0  0  0  0  0  0  0  0  0
   -0.3705    0.8455   -0.9732 H   0  0  0  0  0  0  0  0  0  0  0  0
    0.5081   -0.6259   -0.5398 H   0  0  0  0  0  0  0  0  0  0  0  0
   -1.3454   -0.9631   -1.5925 C   0  0  0  0  0  0  0  0  0  0  0  0
   -1.1993   -0.5686   -2.5989 H   0  0  0  0  0  0  0  0  0  0  0  0
   -1.0448   -2.0125   -1.5739 H   0  0  0  0  0  0  0  0  0  0  0  0
   -2.8302   -0.8532   -1.2192 C   0  0  0  0  0  0  0  0  0  0  0  0
   -2.9707   -1.2353   -0.2053 H   0  0  0  0  0  0  0  0  0  0  0  0
   -3.1279    0.1968   -1.2483 H   0  0  0  0  0  0  0  0  0  0  0  0
   -3.6899   -1.6626   -2.1982 C   0  0  0  0  0  0  0  0  0  0  0  0
   -3.5292   -1.2700   -3.2076 H   0  0  0  0  0  0  0  0  0  0  0  0
   -3.3475   -2.7017   -2.1844 H   0  0  0  0  0  0  0  0  0  0  0  0
   -5.1305   -1.5931   -1.8458 N   0  3  0  0  0  0  0  0  0  0  0  0
   -5.4558   -0.6347   -1.8671 H   0  0  0  0  0  0  0  0  0  0  0  0
   -5.6835   -2.1320   -2.5006 H   0  0  0  0  0  0  0  0  0  0  0  0
   -5.2858   -1.9636   -0.9155 H   0  0  0  0  0  0  0  0  0  0  0  0
   -1.3103    1.3348    1.2791 C   0  0  0  0  0  0  0  0  0  0  0  0
   -2.2333    1.9891    0.8084 O   0  0  0  0  0  0  0  0  0  0  0  0
   -0.4429    1.8293    2.1683 N   0  0  0  0  0  0  0  0  0  0  0  0
    0.2668    1.2118    2.5263 H   0  0  0  0  0  0  0  0  0  0  0  0
   -0.5118    3.1863    2.7135 C   0  0  0  0  0  0  0  0  0  0  0  0
   -1.4470    3.3159    3.2625 H   0  0  0  0  0  0  0  0  0  0  0  0
    0.3243    3.3682    3.3896 H   0  0  0  0  0  0  0  0  0  0  0  0
   -0.4850    3.9172    1.9023 H   0  0  0  0  0  0  0  0  0  0  0  0
  5  6  2  0  0  0  0
  5  7  1  0  0  0  0
  2  3  1  0  0  0  0
  2  4  1  0  0  0  0
  2  5  1  0  0  0  0
  1  2  1  0  0  0  0
 27 28  2  0  0  0  0
 27 29  1  0  0  0  0
 23 24  1  0  0  0  0
 23 25  1  0  0  0  0
 23 26  1  0  0  0  0
 20 21  1  0  0  0  0
 20 22  1  0  0  0  0
 20 23  1  0  0  0  0
 17 18  1  0  0  0  0
 17 19  1  0  0  0  0
 17 20  1  0  0  0  0
 14 15  1  0  0  0  0
 14 16  1  0  0  0  0
 14 17  1  0  0  0  0
 11 12  1  0  0  0  0
 11 13  1  0  0  0  0
 11 14  1  0  0  0  0
  9 10  1  0  0  0  0
  9 11  1  0  0  0  0
  9 27  1  0  0  0  0
  7  8  1  0  0  0  0
  7  9  1  0  0  0  0
 31 32  1  0  0  0  0
 31 33  1  0  0  0  0
 31 34  1  0  0  0  0
 29 30  1  0  0  0  0
 29 31  1  0  0  0  0
M  CHG  1  23   1
M  END
$$$$
default_name
  -OEChem-02102213163D

 34 33  0     1  0  0  0  0  0999 V2000
   -3.8899   -3.6747    1.6490 H   0  0  0  0  0  0  0  0  0  0  0  0
   -3.9109   -2.6717    1.2250 C   0  0  0  0  0  0  0  0  0  0  0  0
   -4.6009   -2.0517    1.7950 H   0  0  0  0  0  0  0  0  0  0  0  0
   -4.2309   -2.7237    0.1860 H   0  0  0  0  0  0  0  0  0  0  0  0
   -2.5229   -2.0787    1.2980 C   0  0  0  0  0  0  0  0  0  0  0  0
   -1.5999   -2.7227    1.7810 O   0  0  0  0  0  0  0  0  0  0  0  0
   -2.3659   -0.8447    0.8120 N   0  0  0  0  0  0  0  0  0  0  0  0
   -3.1749   -0.3807    0.4220 H   0  0  0  0  0  0  0  0  0  0  0  0
   -1.0919   -0.1077    0.8170 C   0  0  1  0  0  0  0  0  0  0  0  0
   -0.4136   -0.6011    1.5155 H   0  0  0  0  0  0  0  0  0  0  0  0
   -0.4834   -0.1723   -0.5965 C   0  0  0  0  0  0  0  0  0  0  0  0
   -0.3705    0.8455   -0.9732 H   0  0  0  0  0  0  0  0  0  0  0  0
    0.5081   -0.6259   -0.5398 H   0  0  0  0  0  0  0  0  0  0  0  0
   -1.3454   -0.9631   -1.5925 C   0  0  0  0  0  0  0  0  0  0  0  0
   -1.0110   -0.7591   -2.6106 H   0  0  0  0  0  0  0  0  0  0  0  0
   -1.2404   -2.0308   -1.3900 H   0  0  0  0  0  0  0  0  0  0  0  0
   -2.8211   -0.5630   -1.4575 C   0  0  0  0  0  0  0  0  0  0  0  0
   -3.1487   -0.7546   -0.4329 H   0  0  0  0  0  0  0  0  0  0  0  0
   -2.9218    0.5032   -1.6700 H   0  0  0  0  0  0  0  0  0  0  0  0
   -3.6862   -1.3696   -2.4340 C   0  0  0  0  0  0  0  0  0  0  0  0
   -3.3376   -1.1702   -3.4526 H   0  0  0  0  0  0  0  0  0  0  0  0
   -3.5381   -2.4346   -2.2316 H   0  0  0  0  0  0  0  0  0  0  0  0
   -5.1234   -1.0191   -2.3077 N   0  3  0  0  0  0  0  0  0  0  0  0
   -5.2683   -0.0366   -2.5042 H   0  0  0  0  0  0  0  0  0  0  0  0
   -5.6802   -1.5597   -2.9579 H   0  0  0  0  0  0  0  0  0  0  0  0
   -5.4533   -1.2101   -1.3688 H   0  0  0  0  0  0  0  0  0  0  0  0
   -1.3103    1.3348    1.2791 C   0  0  0  0  0  0  0  0  0  0  0  0
   -2.2333    1.9891    0.8084 O   0  0  0  0  0  0  0  0  0  0  0  0
   -0.4429    1.8293    2.1683 N   0  0  0  0  0  0  0  0  0  0  0  0
    0.2668    1.2118    2.5263 H   0  0  0  0  0  0  0  0  0  0  0  0
   -0.5118    3.1863    2.7135 C   0  0  0  0  0  0  0  0  0  0  0  0
   -1.4470    3.3159    3.2625 H   0  0  0  0  0  0  0  0  0  0  0  0
    0.3243    3.3682    3.3896 H   0  0  0  0  0  0  0  0  0  0  0  0
   -0.4850    3.9172    1.9023 H   0  0  0  0  0  0  0  0  0  0  0  0
  5  6  2  0  0  0  0
  5  7  1  0  0  0  0
  2  3  1  0  0  0  0
  2  4  1  0  0  0  0
  2  5  1  0  0  0  0
  1  2  1  0  0  0  0
 27 28  2  0  0  0  0
 27 29  1  0  0  0  0
 23 24  1  0  0  0  0
 23 25  1  0  0  0  0
 23 26  1  0  0  0  0
 20 21  1  0  0  0  0
 20 22  1  0  0  0  0
 20 23  1  0  0  0  0
 17 18  1  0  0  0  0
 17 19  1  0  0  0  0
 17 20  1  0  0  0  0
 14 15  1  0  0  0  0
 14 16  1  0  0  0  0
 14 17  1  0  0  0  0
 11 12  1  0  0  0  0
 11 13  1  0  0  0  0
 11 14  1  0  0  0  0
  9 10  1  0  0  0  0
  9 11  1  0  0  0  0
  9 27  1  0  0  0  0
  7  8  1  0  0  0  0
  7  9  1  0  0  0  0
 31 32  1  0  0  0  0
 31 33  1  0  0  0  0
 31 34  1  0  0  0  0
 29 30  1  0  0  0  0
 29 31  1  0  0  0  0
M  CHG  1  23   1
M  END
$$$$
default_name
  -OEChem-02102213163D

 34 33  0     1  0  0  0  0  0999 V2000
   -3.8899   -3.6747    1.6490 H   0  0  0  0  0  0  0  0  0  0  0  0
   -3.9109   -2.6717    1.2250 C   0  0  0  0  0  0  0  0  0  0  0  0
   -4.6009   -2.0517    1.7950 H   0  0  0  0  0  0  0  0  0  0  0  0
   -4.2309   -2.7237    0.1860 H   0  0  0  0  0  0  0  0  0  0  0  0
   -2.5229   -2.0787    1.2980 C   0  0  0  0  0  0  0  0  0  0  0  0
   -1.5999   -2.7227    1.7810 O   0  0  0  0  0  0  0  0  0  0  0  0
   -2.3659   -0.8447    0.8120 N   0  0  0  0  0  0  0  0  0  0  0  0
   -3.1749   -0.3807    0.4220 H   0  0  0  0  0  0  0  0  0  0  0  0
   -1.0919   -0.1077    0.8170 C   0  0  1  0  0  0  0  0  0  0  0  0
   -0.4136   -0.6011    1.5155 H   0  0  0  0  0  0  0  0  0  0  0  0
   -0.4834   -0.1723   -0.5965 C   0  0  0  0  0  0  0  0  0  0  0  0
   -0.3705    0.8455   -0.9732 H   0  0  0  0  0  0  0  0  0  0  0  0
    0.5081   -0.6259   -0.5398 H   0  0  0  0  0  0  0  0  0  0  0  0
   -1.3454   -0.9631   -1.5925 C   0  0  0  0  0  0  0  0  0  0  0  0
   -0.8596   -0.9764   -2.5691 H   0  0  0  0  0  0  0  0  0  0  0  0
   -1.4570   -1.9889   -1.2358 H   0  0  0  0  0  0  0  0  0  0  0  0
   -2.7319   -0.3188   -1.7286 C   0  0  0  0  0  0  0  0  0  0  0  0
   -3.2097   -0.2934   -0.7463 H   0  0  0  0  0  0  0  0  0  0  0  0
   -2.6152    0.7033   -2.0942 H   0  0  0  0  0  0  0  0  0  0  0  0
   -3.6021   -1.1215   -2.7038 C   0  0  0  0  0  0  0  0  0  0  0  0
   -3.1031   -1.1416   -3.6782 H   0  0  0  0  0  0  0  0  0  0  0  0
   -3.6710   -2.1515   -2.3413 H   0  0  0  0  0  0  0  0  0  0  0  0
   -4.9588   -0.5329   -2.8362 N   0  3  0  0  0  0  0  0  0  0  0  0
   -4.9020    0.4170   -3.1814 H   0  0  0  0  0  0  0  0  0  0  0  0
   -5.5199   -1.0739   -3.4823 H   0  0  0  0  0  0  0  0  0  0  0  0
   -5.4283   -0.5201   -1.9383 H   0  0  0  0  0  0  0  0  0  0  0  0
   -1.3103    1.3348    1.2791 C   0  0  0  0  0  0  0  0  0  0  0  0
   -2.2333    1.9891    0.8084 O   0  0  0  0  0  0  0  0  0  0  0  0
   -0.4429    1.8293    2.1683 N   0  0  0  0  0  0  0  0  0  0  0  0
    0.2668    1.2118    2.5263 H   0  0  0  0  0  0  0  0  0  0  0  0
   -0.5118    3.1863    2.7135 C   0  0  0  0  0  0  0  0  0  0  0  0
   -1.4470    3.3159    3.2625 H   0  0  0  0  0  0  0  0  0  0  0  0
    0.3243    3.3682    3.3896 H   0  0  0  0  0  0  0  0  0  0  0  0
   -0.4850    3.9172    1.9023 H   0  0  0  0  0  0  0  0  0  0  0  0
  5  6  2  0  0  0  0
  5  7  1  0  0  0  0
  2  3  1  0  0  0  0
  2  4  1  0  0  0  0
  2  5  1  0  0  0  0
  1  2  1  0  0  0  0
 27 28  2  0  0  0  0
 27 29  1  0  0  0  0
 23 24  1  0  0  0  0
 23 25  1  0  0  0  0
 23 26  1  0  0  0  0
 20 21  1  0  0  0  0
 20 22  1  0  0  0  0
 20 23  1  0  0  0  0
 17 18  1  0  0  0  0
 17 19  1  0  0  0  0
 17 20  1  0  0  0  0
 14 15  1  0  0  0  0
 14 16  1  0  0  0  0
 14 17  1  0  0  0  0
 11 12  1  0  0  0  0
 11 13  1  0  0  0  0
 11 14  1  0  0  0  0
  9 10  1  0  0  0  0
  9 11  1  0  0  0  0
  9 27  1  0  0  0  0
  7  8  1  0  0  0  0
  7  9  1  0  0  0  0
 31 32  1  0  0  0  0
 31 33  1  0  0  0  0
 31 34  1  0  0  0  0
 29 30  1  0  0  0  0
 29 31  1  0  0  0  0
M  CHG  1  23   1
M  END
$$$$
default_name
  -OEChem-02102213163D

 34 33  0     1  0  0  0  0  0999 V2000
   -3.8899   -3.6747    1.6490 H   0  0  0  0  0  0  0  0  0  0  0  0
   -3.9109   -2.6717    1.2250 C   0  0  0  0  0  0  0  0  0  0  0  0
   -4.6009   -2.0517    1.7950 H   0  0  0  0  0  0  0  0  0  0  0  0
   -4.2309   -2.7237    0.1860 H   0  0  0  0  0  0  0  0  0  0  0  0
   -2.5229   -2.0787    1.2980 C   0  0  0  0  0  0  0  0  0  0  0  0
   -1.5999   -2.7227    1.7810 O   0  0  0  0  0  0  0  0  0  0  0  0
   -2.3659   -0.8447    0.8120 N   0  0  0  0  0  0  0  0  0  0  0  0
   -3.1749   -0.3807    0.4220 H   0  0  0  0  0  0  0  0  0  0  0  0
   -1.0919   -0.1077    0.8170 C   0  0  1  0  0  0  0  0  0  0  0  0
   -0.4136   -0.6011    1.5155 H   0  0  0  0  0  0  0  0  0  0  0  0
   -0.4834   -0.1723   -0.5965 C   0  0  0  0  0  0  0  0  0  0  0  0
   -0.3705    0.8455   -0.9732 H   0  0  0  0  0  0  0  0  0  0  0  0
    0.5081   -0.6259   -0.5398 H   0  0  0  0  0  0  0  0  0  0  0  0
   -1.3454   -0.9631   -1.5925 C   0  0  0  0  0  0  0  0  0  0  0  0
   -0.7553   -1.2057   -2.4773 H   0  0  0  0  0  0  0  0  0  0  0  0
   -1.6797   -1.8897   -1.1219 H   0  0  0  0  0  0  0  0  0  0  0  0
   -2.5686   -0.1373   -2.0141 C   0  0  0  0  0  0  0  0  0  0  0  0
   -3.1494    0.1168   -1.1241 H   0  0  0  0  0  0  0  0  0  0  0  0
   -2.2289    0.7836   -2.4923 H   0  0  0  0  0  0  0  0  0  0  0  0
   -3.4432   -0.9351   -2.9893 C   0  0  0  0  0  0  0  0  0  0  0  0
   -2.8418   -1.1861   -3.8691 H   0  0  0  0  0  0  0  0  0  0  0  0
   -3.7374   -1.8717   -2.5061 H   0  0  0  0  0  0  0  0  0  0  0  0
   -4.6477   -0.1677   -3.3954 N   0  3  0  0  0  0  0  0  0  0  0  0
   -4.3818    0.6954   -3.8527 H   0  0  0  0  0  0  0  0  0  0  0  0
   -5.2138   -0.7076   -4.0380 H   0  0  0  0  0  0  0  0  0  0  0  0
   -5.2125    0.0596   -2.5853 H   0  0  0  0  0  0  0  0  0  0  0  0
   -1.3103    1.3348    1.2791 C   0  0  0  0  0  0  0  0  0  0  0  0
   -2.2333    1.9891    0.8084 O   0  0  0  0  0  0  0  0  0  0  0  0
   -0.4429    1.8293    2.1683 N   0  0  0  0  0  0  0  0  0  0  0  0
    0.2668    1.2118    2.5263 H   0  0  0  0  0  0  0  0  0  0  0  0
   -0.5118    3.1863    2.7135 C   0  0  0  0  0  0  0  0  0  0  0  0
   -1.4470    3.3159    3.2625 H   0  0  0  0  0  0  0  0  0  0  0  0
    0.3243    3.3682    3.3896 H   0  0  0  0  0  0  0  0  0  0  0  0
   -0.4850    3.9172    1.9023 H   0  0  0  0  0  0  0  0  0  0  0  0
  5  6  2  0  0  0  0
  5  7  1  0  0  0  0
  2  3  1  0  0  0  0
  2  4  1  0  0  0  0
  2  5  1  0  0  0  0
  1  2  1  0  0  0  0
 27 28  2  0  0  0  0
 27 29  1  0  0  0  0
 23 24  1  0  0  0  0
 23 25  1  0  0  0  0
 23 26  1  0  0  0  0
 20 21  1  0  0  0  0
 20 22  1  0  0  0  0
 20 23  1  0  0  0  0
 17 18  1  0  0  0  0
 17 19  1  0  0  0  0
 17 20  1  0  0  0  0
 14 15  1  0  0  0  0
 14 16  1  0  0  0  0
 14 17  1  0  0  0  0
 11 12  1  0  0  0  0
 11 13  1  0  0  0  0
 11 14  1  0  0  0  0
  9 10  1  0  0  0  0
  9 11  1  0  0  0  0
  9 27  1  0  0  0  0
  7  8  1  0  0  0  0
  7  9  1  0  0  0  0
 31 32  1  0  0  0  0
 31 33  1  0  0  0  0
 31 34  1  0  0  0  0
 29 30  1  0  0  0  0
 29 31  1  0  0  0  0
M  CHG  1  23   1
M  END
$$$$
default_name
  -OEChem-02102213163D

 34 33  0     1  0  0  0  0  0999 V2000
   -3.8899   -3.6747    1.6490 H   0  0  0  0  0  0  0  0  0  0  0  0
   -3.9109   -2.6717    1.2250 C   0  0  0  0  0  0  0  0  0  0  0  0
   -4.6009   -2.0517    1.7950 H   0  0  0  0  0  0  0  0  0  0  0  0
   -4.2309   -2.7237    0.1860 H   0  0  0  0  0  0  0  0  0  0  0  0
   -2.5229   -2.0787    1.2980 C   0  0  0  0  0  0  0  0  0  0  0  0
   -1.5999   -2.7227    1.7810 O   0  0  0  0  0  0  0  0  0  0  0  0
   -2.3659   -0.8447    0.8120 N   0  0  0  0  0  0  0  0  0  0  0  0
   -3.1749   -0.3807    0.4220 H   0  0  0  0  0  0  0  0  0  0  0  0
   -1.0919   -0.1077    0.8170 C   0  0  1  0  0  0  0  0  0  0  0  0
   -0.4136   -0.6011    1.5155 H   0  0  0  0  0  0  0  0  0  0  0  0
   -0.4834   -0.1723   -0.5965 C   0  0  0  0  0  0  0  0  0  0  0  0
   -0.3705    0.8455   -0.9732 H   0  0  0  0  0  0  0  0  0  0  0  0
    0.5081   -0.6259   -0.5398 H   0  0  0  0  0  0  0  0  0  0  0  0
   -1.3454   -0.9631   -1.5925 C   0  0  0  0  0  0  0  0  0  0  0  0
   -0.7052   -1.4314   -2.3414 H   0  0  0  0  0  0  0  0  0  0  0  0
   -1.8934   -1.7400   -1.0558 H   0  0  0  0  0  0  0  0  0  0  0  0
   -2.3424   -0.0308   -2.2944 C   0  0  0  0  0  0  0  0  0  0  0  0
   -2.9721    0.4480   -1.5406 H   0  0  0  0  0  0  0  0  0  0  0  0
   -1.7893    0.7385   -2.8369 H   0  0  0  0  0  0  0  0  0  0  0  0
   -3.2205   -0.8232   -3.2709 C   0  0  0  0  0  0  0  0  0  0  0  0
   -2.5714   -1.3007   -4.0122 H   0  0  0  0  0  0  0  0  0  0  0  0
   -3.7325   -1.6142   -2.7147 H   0  0  0  0  0  0  0  0  0  0  0  0
   -4.2115    0.0516   -3.9471 N   0  3  0  0  0  0  0  0  0  0  0  0
   -3.7433    0.7796   -4.4722 H   0  0  0  0  0  0  0  0  0  0  0  0
   -4.7827   -0.4860   -4.5872 H   0  0  0  0  0  0  0  0  0  0  0  0
   -4.8206    0.4893   -3.2657 H   0  0  0  0  0  0  0  0  0  0  0  0
   -1.3103    1.3348    1.2791 C   0  0  0  0  0  0  0  0  0  0  0  0
   -2.2333    1.9891    0.8084 O   0  0  0  0  0  0  0  0  0  0  0  0
   -0.4429    1.8293    2.1683 N   0  0  0  0  0  0  0  0  0  0  0  0
    0.2668    1.2118    2.5263 H   0  0  0  0  0  0  0  0  0  0  0  0
   -0.5118    3.1863    2.7135 C   0  0  0  0  0  0  0  0  0  0  0  0
   -1.4470    3.3159    3.2625 H   0  0  0  0  0  0  0  0  0  0  0  0
    0.3243    3.3682    3.3896 H   0  0  0  0  0  0  0  0  0  0  0  0
   -0.4850    3.9172    1.9023 H   0  0  0  0  0  0  0  0  0  0  0  0
  5  6  2  0  0  0  0
  5  7  1  0  0  0  0
  2  3  1  0  0  0  0
  2  4  1  0  0  0  0
  2  5  1  0  0  0  0
  1  2  1  0  0  0  0
 27 28  2  0  0  0  0
 27 29  1  0  0  0  0
 23 24  1  0  0  0  0
 23 25  1  0  0  0  0
 23 26  1  0  0  0  0
 20 21  1  0  0  0  0
 20 22  1  0  0  0  0
 20 23  1  0  0  0  0
 17 18  1  0  0  0  0
 17 19  1  0  0  0  0
 17 20  1  0  0  0  0
 14 15  1  0  0  0  0
 14 16  1  0  0  0  0
 14 17  1  0  0  0  0
 11 12  1  0  0  0  0
 11 13  1  0  0  0  0
 11 14  1  0  0  0  0
  9 10  1  0  0  0  0
  9 11  1  0  0  0  0
  9 27  1  0  0  0  0
  7  8  1  0  0  0  0
  7  9  1  0  0  0  0
 31 32  1  0  0  0  0
 31 33  1  0  0  0  0
 31 34  1  0  0  0  0
 29 30  1  0  0  0  0
 29 31  1  0  0  0  0
M  CHG  1  23   1
M  END
$$$$
default_name
  -OEChem-02102213163D

 34 33  0     1  0  0  0  0  0999 V2000
   -3.8899   -3.6747    1.6490 H   0  0  0  0  0  0  0  0  0  0  0  0
   -3.9109   -2.6717    1.2250 C   0  0  0  0  0  0  0  0  0  0  0  0
   -4.6009   -2.0517    1.7950 H   0  0  0  0  0  0  0  0  0  0  0  0
   -4.2309   -2.7237    0.1860 H   0  0  0  0  0  0  0  0  0  0  0  0
   -2.5229   -2.0787    1.2980 C   0  0  0  0  0  0  0  0  0  0  0  0
   -1.5999   -2.7227    1.7810 O   0  0  0  0  0  0  0  0  0  0  0  0
   -2.3659   -0.8447    0.8120 N   0  0  0  0  0  0  0  0  0  0  0  0
   -3.1749   -0.3807    0.4220 H   0  0  0  0  0  0  0  0  0  0  0  0
   -1.0919   -0.1077    0.8170 C   0  0  1  0  0  0  0  0  0  0  0  0
   -0.4136   -0.6011    1.5155 H   0  0  0  0  0  0  0  0  0  0  0  0
   -0.4834   -0.1723   -0.5965 C   0  0  0  0  0  0  0  0  0  0  0  0
   -0.3705    0.8455   -0.9732 H   0  0  0  0  0  0  0  0  0  0  0  0
    0.5081   -0.6259   -0.5398 H   0  0  0  0  0  0  0  0  0  0  0  0
   -1.3454   -0.9631   -1.5925 C   0  0  0  0  0  0  0  0  0  0  0  0
   -0.7129   -1.6381   -2.1707 H   0  0  0  0  0  0  0  0  0  0  0  0
   -2.0834   -1.5500   -1.0422 H   0  0  0  0  0  0  0  0  0  0  0  0
   -2.0687   -0.0065   -2.5505 C   0  0  0  0  0  0  0  0  0  0  0  0
   -2.6897    0.6777   -1.9674 H   0  0  0  0  0  0  0  0  0  0  0  0
   -1.3263    0.5711   -3.1048 H   0  0  0  0  0  0  0  0  0  0  0  0
   -2.9491   -0.7933   -3.5296 C   0  0  0  0  0  0  0  0  0  0  0  0
   -2.3104   -1.4774   -4.0977 H   0  0  0  0  0  0  0  0  0  0  0  0
   -3.6568   -1.3965   -2.9530 H   0  0  0  0  0  0  0  0  0  0  0  0
   -3.6798    0.1102   -4.4537 N   0  3  0  0  0  0  0  0  0  0  0  0
   -3.0298    0.6637   -4.9977 H   0  0  0  0  0  0  0  0  0  0  0  0
   -4.2558   -0.4239   -5.0924 H   0  0  0  0  0  0  0  0  0  0  0  0
   -4.2793    0.7398   -3.9330 H   0  0  0  0  0  0  0  0  0  0  0  0
   -1.3103    1.3348    1.2791 C   0  0  0  0  0  0  0  0  0  0  0  0
   -2.2333    1.9891    0.8084 O   0  0  0  0  0  0  0  0  0  0  0  0
   -0.4429    1.8293    2.1683 N   0  0  0  0  0  0  0  0  0  0  0  0
    0.2668    1.2118    2.5263 H   0  0  0  0  0  0  0  0  0  0  0  0
   -0.5118    3.1863    2.7135 C   0  0  0  0  0  0  0  0  0  0  0  0
   -1.4470    3.3159    3.2625 H   0  0  0  0  0  0  0  0  0  0  0  0
    0.3243    3.3682    3.3896 H   0  0  0  0  0  0  0  0  0  0  0  0
   -0.4850    3.9172    1.9023 H   0  0  0  0  0  0  0  0  0  0  0  0
  5  6  2  0  0  0  0
  5  7  1  0  0  0  0
  2  3  1  0  0  0  0
  2  4  1  0  0  0  0
  2  5  1  0  0  0  0
  1  2  1  0  0  0  0
 27 28  2  0  0  0  0
 27 29  1  0  0  0  0
 23 24  1  0  0  0  0
 23 25  1  0  0  0  0
 23 26  1  0  0  0  0
 20 21  1  0  0  0  0
 20 22  1  0  0  0  0
 20 23  1  0  0  0  0
 17 18  1  0  0  0  0
 17 19  1  0  0  0  0
 17 20  1  0  0  0  0
 14 15  1  0  0  0  0
 14 16  1  0  0  0  0
 14 17  1  0  0  0  0
 11 12  1  0  0  0  0
 11 13  1  0  0  0  0
 11 14  1  0  0  0  0
  9 10  1  0  0  0  0
  9 11  1  0  0  0  0
  9 27  1  0  0  0  0
  7  8  1  0  0  0  0
  7  9  1  0  0  0  0
 31 32  1  0  0  0  0
 31 33  1  0  0  0  0
 31 34  1  0  0  0  0
 29 30  1  0  0  0  0
 29 31  1  0  0  0  0
M  CHG  1  23   1
M  END
$$$$
default_name
  -OEChem-02102213163D

 34 33  0     1  0  0  0  0  0999 V2000
   -3.8899   -3.6747    1.6490 H   0  0  0  0  0  0  0  0  0  0  0  0
   -3.9109   -2.6717    1.2250 C   0  0  0  0  0  0  0  0  0  0  0  0
   -4.6009   -2.0517    1.7950 H   0  0  0  0  0  0  0  0  0  0  0  0
   -4.2309   -2.7237    0.1860 H   0  0  0  0  0  0  0  0  0  0  0  0
   -2.5229   -2.0787    1.2980 C   0  0  0  0  0  0  0  0  0  0  0  0
   -1.5999   -2.7227    1.7810 O   0  0  0  0  0  0  0  0  0  0  0  0
   -2.3659   -0.8447    0.8120 N   0  0  0  0  0  0  0  0  0  0  0  0
   -3.1749   -0.3807    0.4220 H   0  0  0  0  0  0  0  0  0  0  0  0
   -1.0919   -0.1077    0.8170 C   0  0  1  0  0  0  0  0  0  0  0  0
   -0.4136   -0.6011    1.5155 H   0  0  0  0  0  0  0  0  0  0  0  0
   -0.4834   -0.1723   -0.5965 C   0  0  0  0  0  0  0  0  0  0  0  0
   -0.3705    0.8455   -0.9732 H   0  0  0  0  0  0  0  0  0  0  0  0
    0.5081   -0.6259   -0.5398 H   0  0  0  0  0  0  0  0  0  0  0  0
   -1.3454   -0.9631   -1.5925 C   0  0  0  0  0  0  0  0  0  0  0  0
   -0.7777   -1.8116   -1.9768 H   0  0  0  0  0  0  0  0  0  0  0  0
   -2.2369   -1.3325   -1.0820 H   0  0  0  0  0  0  0  0  0  0  0  0
   -1.7662   -0.0663   -2.7649 C   0  0  0  0  0  0  0  0  0  0  0  0
   -2.3215    0.7903   -2.3754 H   0  0  0  0  0  0  0  0  0  0  0  0
   -0.8715    0.2929   -3.2775 H   0  0  0  0  0  0  0  0  0  0  0  0
   -2.6474   -0.8476   -3.7475 C   0  0  0  0  0  0  0  0  0  0  0  0
   -2.0765   -1.7044   -4.1199 H   0  0  0  0  0  0  0  0  0  0  0  0
   -3.5155   -1.2336   -3.2047 H   0  0  0  0  0  0  0  0  0  0  0  0
   -3.0890    0.0040   -4.8808 N   0  3  0  0  0  0  0  0  0  0  0  0
   -2.2901    0.3558   -5.3934 H   0  0  0  0  0  0  0  0  0  0  0  0
   -3.6692   -0.5257   -5.5192 H   0  0  0  0  0  0  0  0  0  0  0  0
   -3.6255    0.7941   -4.5419 H   0  0  0  0  0  0  0  0  0  0  0  0
   -1.3103    1.3348    1.2791 C   0  0  0  0  0  0  0  0  0  0  0  0
   -2.2333    1.9891    0.8084 O   0  0  0  0  0  0  0  0  0  0  0  0
   -0.4429    1.8293    2.1683 N   0  0  0  0  0  0  0  0  0  0  0  0
    0.2668    1.2118    2.5263 H   0  0  0  0  0  0  0  0  0  0  0  0
   -0.5118    3.1863    2.7135 C   0  0  0  0  0  0  0  0  0  0  0  0
   -1.4470    3.3159    3.2625 H   0  0  0  0  0  0  0  0  0  0  0  0
    0.3243    3.3682    3.3896 H   0  0  0  0  0  0  0  0  0  0  0  0
   -0.4850    3.9172    1.9023 H   0  0  0  0  0  0  0  0  0  0  0  0
  5  6  2  0  0  0  0
  5  7  1  0  0  0  0
  2  3  1  0  0  0  0
  2  4  1  0  0  0  0
  2  5  1  0  0  0  0
  1  2  1  0  0  0  0
 27 28  2  0  0  0  0
 27 29  1  0  0  0  0
 23 24  1  0  0  0  0
 23 25  1  0  0  0  0
 23 26  1  0  0  0  0
 20 21  1  0  0  0  0
 20 22  1  0  0  0  0
 20 23  1  0  0  0  0
 17 18  1  0  0  0  0
 17 19  1  0  0  0  0
 17 20  1  0  0  0  0
 14 15  1  0  0  0  0
 14 16  1  0  0  0  0
 14 17  1  0  0  0  0
 11 12  1  0  0  0  0
 11 13  1  0  0  0  0
 11 14  1  0  0  0  0
  9 10  1  0  0  0  0
  9 11  1  0  0  0  0
  9 27  1  0  0  0  0
  7  8  1  0  0  0  0
  7  9  1  0  0  0  0
 31 32  1  0  0  0  0
 31 33  1  0  0  0  0
 31 34  1  0  0  0  0
 29 30  1  0  0  0  0
 29 31  1  0  0  0  0
M  CHG  1  23   1
M  END
$$$$
default_name
  -OEChem-02102213163D

 34 33  0     1  0  0  0  0  0999 V2000
   -3.8899   -3.6747    1.6490 H   0  0  0  0  0  0  0  0  0  0  0  0
   -3.9109   -2.6717    1.2250 C   0  0  0  0  0  0  0  0  0  0  0  0
   -4.6009   -2.0517    1.7950 H   0  0  0  0  0  0  0  0  0  0  0  0
   -4.2309   -2.7237    0.1860 H   0  0  0  0  0  0  0  0  0  0  0  0
   -2.5229   -2.0787    1.2980 C   0  0  0  0  0  0  0  0  0  0  0  0
   -1.5999   -2.7227    1.7810 O   0  0  0  0  0  0  0  0  0  0  0  0
   -2.3659   -0.8447    0.8120 N   0  0  0  0  0  0  0  0  0  0  0  0
   -3.1749   -0.3807    0.4220 H   0  0  0  0  0  0  0  0  0  0  0  0
   -1.0919   -0.1077    0.8170 C   0  0  1  0  0  0  0  0  0  0  0  0
   -0.4136   -0.6011    1.5155 H   0  0  0  0  0  0  0  0  0  0  0  0
   -0.4834   -0.1723   -0.5965 C   0  0  0  0  0  0  0  0  0  0  0  0
   -0.3705    0.8455   -0.9732 H   0  0  0  0  0  0  0  0  0  0  0  0
    0.5081   -0.6259   -0.5398 H   0  0  0  0  0  0  0  0  0  0  0  0
   -1.3454   -0.9631   -1.5925 C   0  0  0  0  0  0  0  0  0  0  0  0
   -0.8952   -1.9402   -1.7730 H   0  0  0  0  0  0  0  0  0  0  0  0
   -2.3434   -1.1025   -1.1725 H   0  0  0  0  0  0  0  0  0  0  0  0
   -1.4554   -0.2059   -2.9231 C   0  0  0  0  0  0  0  0  0  0  0  0
   -1.8927    0.7780   -2.7367 H   0  0  0  0  0  0  0  0  0  0  0  0
   -0.4559   -0.0772   -3.3433 H   0  0  0  0  0  0  0  0  0  0  0  0
   -2.3361   -0.9823   -3.9100 C   0  0  0  0  0  0  0  0  0  0  0  0
   -1.8858   -1.9661   -4.0772 H   0  0  0  0  0  0  0  0  0  0  0  0
   -3.3181   -1.1365   -3.4526 H   0  0  0  0  0  0  0  0  0  0  0  0
   -2.4792   -0.2597   -5.1992 N   0  3  0  0  0  0  0  0  0  0  0  0
   -1.5745   -0.1231   -5.6325 H   0  0  0  0  0  0  0  0  0  0  0  0
   -3.0628   -0.7845   -5.8386 H   0  0  0  0  0  0  0  0  0  0  0  0
   -2.9038    0.6484   -5.0509 H   0  0  0  0  0  0  0  0  0  0  0  0
   -1.3103    1.3348    1.2791 C   0  0  0  0  0  0  0  0  0  0  0  0
   -2.2333    1.9891    0.8084 O   0  0  0  0  0  0  0  0  0  0  0  0
   -0.4429    1.8293    2.1683 N   0  0  0  0  0  0  0  0  0  0  0  0
    0.2668    1.2118    2.5263 H   0  0  0  0  0  0  0  0  0  0  0  0
   -0.5118    3.1863    2.7135 C   0  0  0  0  0  0  0  0  0  0  0  0
   -1.4470    3.3159    3.2625 H   0  0  0  0  0  0  0  0  0  0  0  0
    0.3243    3.3682    3.3896 H   0  0  0  0  0  0  0  0  0  0  0  0
   -0.4850    3.9172    1.9023 H   0  0  0  0  0  0  0  0  0  0  0  0
  5  6  2  0  0  0  0
  5  7  1  0  0  0  0
  2  3  1  0  0  0  0
  2  4  1  0  0  0  0
  2  5  1  0  0  0  0
  1  2  1  0  0  0  0
 27 28  2  0  0  0  0
 27 29  1  0  0  0  0
 23 24  1  0  0  0  0
 23 25  1  0  0  0  0
 23 26  1  0  0  0  0
 20 21  1  0  0  0  0
 20 22  1  0  0  0  0
 20 23  1  0  0  0  0
 17 18  1  0  0  0  0
 17 19  1  0  0  0  0
 17 20  1  0  0  0  0
 14 15  1  0  0  0  0
 14 16  1  0  0  0  0
 14 17  1  0  0  0  0
 11 12  1  0  0  0  0
 11 13  1  0  0  0  0
 11 14  1  0  0  0  0
  9 10  1  0  0  0  0
  9 11  1  0  0  0  0
  9 27  1  0  0  0  0
  7  8  1  0  0  0  0
  7  9  1  0  0  0  0
 31 32  1  0  0  0  0
 31 33  1  0  0  0  0
 31 34  1  0  0  0  0
 29 30  1  0  0  0  0
 29 31  1  0  0  0  0
M  CHG  1  23   1
M  END
$$$$
default_name
  -OEChem-02102213163D

 34 33  0     1  0  0  0  0  0999 V2000
   -3.8899   -3.6747    1.6490 H   0  0  0  0  0  0  0  0  0  0  0  0
   -3.9109   -2.6717    1.2250 C   0  0  0  0  0  0  0  0  0  0  0  0
   -4.6009   -2.0517    1.7950 H   0  0  0  0  0  0  0  0  0  0  0  0
   -4.2309   -2.7237    0.1860 H   0  0  0  0  0  0  0  0  0  0  0  0
   -2.5229   -2.0787    1.2980 C   0  0  0  0  0  0  0  0  0  0  0  0
   -1.5999   -2.7227    1.7810 O   0  0  0  0  0  0  0  0  0  0  0  0
   -2.3659   -0.8447    0.8120 N   0  0  0  0  0  0  0  0  0  0  0  0
   -3.1749   -0.3807    0.4220 H   0  0  0  0  0  0  0  0  0  0  0  0
   -1.0919   -0.1077    0.8170 C   0  0  1  0  0  0  0  0  0  0  0  0
   -0.4136   -0.6011    1.5155 H   0  0  0  0  0  0  0  0  0  0  0  0
   -0.4834   -0.1723   -0.5965 C   0  0  0  0  0  0  0  0  0  0  0  0
   -0.3705    0.8455   -0.9732 H   0  0  0  0  0  0  0  0  0  0  0  0
    0.5081   -0.6259   -0.5398 H   0  0  0  0  0  0  0  0  0  0  0  0
   -1.3454   -0.9631   -1.5925 C   0  0  0  0  0  0  0  0  0  0  0  0
   -1.0575   -2.0151   -1.5731 H   0  0  0  0  0  0  0  0  0  0  0  0
   -2.3956   -0.8756   -1.3074 H   0  0  0  0  0  0  0  0  0  0  0  0
   -1.1575   -0.4158   -3.0142 C   0  0  0  0  0  0  0  0  0  0  0  0
   -1.4324    0.6416   -3.0268 H   0  0  0  0  0  0  0  0  0  0  0  0
   -0.1078   -0.5141   -3.2978 H   0  0  0  0  0  0  0  0  0  0  0  0
   -2.0364   -1.1882   -4.0059 C   0  0  0  0  0  0  0  0  0  0  0  0
   -1.7511   -2.2447   -3.9726 H   0  0  0  0  0  0  0  0  0  0  0  0
   -3.0780   -1.1119   -3.6799 H   0  0  0  0  0  0  0  0  0  0  0  0
   -1.8920   -0.6630   -5.3872 N   0  3  0  0  0  0  0  0  0  0  0  0
   -0.9318   -0.7406   -5.6984 H   0  0  0  0  0  0  0  0  0  0  0  0
   -2.4780   -1.1826   -6.0287 H   0  0  0  0  0  0  0  0  0  0  0  0
   -2.1633    0.3126   -5.4252 H   0  0  0  0  0  0  0  0  0  0  0  0
   -1.3103    1.3348    1.2791 C   0  0  0  0  0  0  0  0  0  0  0  0
   -2.2333    1.9891    0.8084 O   0  0  0  0  0  0  0  0  0  0  0  0
   -0.4429    1.8293    2.1683 N   0  0  0  0  0  0  0  0  0  0  0  0
    0.2668    1.2118    2.5263 H   0  0  0  0  0  0  0  0  0  0  0  0
   -0.5118    3.1863    2.7135 C   0  0  0  0  0  0  0  0  0  0  0  0
   -1.4470    3.3159    3.2625 H   0  0  0  0  0  0  0  0  0  0  0  0
    0.3243    3.3682    3.3896 H   0  0  0  0  0  0  0  0  0  0  0  0
   -0.4850    3.9172    1.9023 H   0  0  0  0  0  0  0  0  0  0  0  0
  5  6  2  0  0  0  0
  5  7  1  0  0  0  0
  2  3  1  0  0  0  0
  2  4  1  0  0  0  0
  2  5  1  0  0  0  0
  1  2  1  0  0  0  0
 27 28  2  0  0  0  0
 27 29  1  0  0  0  0
 23 24  1  0  0  0  0
 23 25  1  0  0  0  0
 23 26  1  0  0  0  0
 20 21  1  0  0  0  0
 20 22  1  0  0  0  0
 20 23  1  0  0  0  0
 17 18  1  0  0  0  0
 17 19  1  0  0  0  0
 17 20  1  0  0  0  0
 14 15  1  0  0  0  0
 14 16  1  0  0  0  0
 14 17  1  0  0  0  0
 11 12  1  0  0  0  0
 11 13  1  0  0  0  0
 11 14  1  0  0  0  0
  9 10  1  0  0  0  0
  9 11  1  0  0  0  0
  9 27  1  0  0  0  0
  7  8  1  0  0  0  0
  7  9  1  0  0  0  0
 31 32  1  0  0  0  0
 31 33  1  0  0  0  0
 31 34  1  0  0  0  0
 29 30  1  0  0  0  0
 29 31  1  0  0  0  0
M  CHG  1  23   1
M  END
$$$$
default_name
  -OEChem-02102213163D

 34 33  0     1  0  0  0  0  0999 V2000
   -3.8899   -3.6747    1.6490 H   0  0  0  0  0  0  0  0  0  0  0  0
   -3.9109   -2.6717    1.2250 C   0  0  0  0  0  0  0  0  0  0  0  0
   -4.6009   -2.0517    1.7950 H   0  0  0  0  0  0  0  0  0  0  0  0
   -4.2309   -2.7237    0.1860 H   0  0  0  0  0  0  0  0  0  0  0  0
   -2.5229   -2.0787    1.2980 C   0  0  0  0  0  0  0  0  0  0  0  0
   -1.5999   -2.7227    1.7810 O   0  0  0  0  0  0  0  0  0  0  0  0
   -2.3659   -0.8447    0.8120 N   0  0  0  0  0  0  0  0  0  0  0  0
   -3.1749   -0.3807    0.4220 H   0  0  0  0  0  0  0  0  0  0  0  0
   -1.0919   -0.1077    0.8170 C   0  0  1  0  0  0  0  0  0  0  0  0
   -0.4136   -0.6011    1.5155 H   0  0  0  0  0  0  0  0  0  0  0  0
   -0.4834   -0.1723   -0.5965 C   0  0  0  0  0  0  0  0  0  0  0  0
   -0.3705    0.8455   -0.9732 H   0  0  0  0  0  0  0  0  0  0  0  0
    0.5081   -0.6259   -0.5398 H   0  0  0  0  0  0  0  0  0  0  0  0
   -1.3454   -0.9631   -1.5925 C   0  0  0  0  0  0  0  0  0  0  0  0
   -1.2534   -2.0312   -1.3908 H   0  0  0  0  0  0  0  0  0  0  0  0
   -2.3900   -0.6673   -1.4777 H   0  0  0  0  0  0  0  0  0  0  0  0
   -0.8929   -0.6818   -3.0320 C   0  0  0  0  0  0  0  0  0  0  0  0
   -0.9720    0.3906   -3.2260 H   0  0  0  0  0  0  0  0  0  0  0  0
    0.1492   -0.9878   -3.1440 H   0  0  0  0  0  0  0  0  0  0  0  0
   -1.7686   -1.4513   -4.0288 C   0  0  0  0  0  0  0  0  0  0  0  0
   -1.6817   -2.5212   -3.8131 H   0  0  0  0  0  0  0  0  0  0  0  0
   -2.8118   -1.1613   -3.8711 H   0  0  0  0  0  0  0  0  0  0  0  0
   -1.3674   -1.1783   -5.4320 N   0  3  0  0  0  0  0  0  0  0  0  0
   -0.4058   -1.4544   -5.5869 H   0  0  0  0  0  0  0  0  0  0  0  0
   -1.9545   -1.6928   -6.0766 H   0  0  0  0  0  0  0  0  0  0  0  0
   -1.4545   -0.1903   -5.6393 H   0  0  0  0  0  0  0  0  0  0  0  0
   -1.3103    1.3348    1.2791 C   0  0  0  0  0  0  0  0  0  0  0  0
   -2.2333    1.9891    0.8084 O   0  0  0  0  0  0  0  0  0  0  0  0
   -0.4429    1.8293    2.1683 N   0  0  0  0  0  0  0  0  0  0  0  0
    0.2668    1.2118    2.5263 H   0  0  0  0  0  0  0  0  0  0  0  0
   -0.5118    3.1863    2.7135 C   0  0  0  0  0  0  0  0  0  0  0  0
   -1.4470    3.3159    3.2625 H   0  0  0  0  0  0  0  0  0  0  0  0
    0.3243    3.3682    3.3896 H   0  0  0  0  0  0  0  0  0  0  0  0
   -0.4850    3.9172    1.9023 H   0  0  0  0  0  0  0  0  0  0  0  0
  5  6  2  0  0  0  0
  5  7  1  0  0  0  0
  2  3  1  0  0  0  0
  2  4  1  0  0  0  0
  2  5  1  0  0  0  0
  1  2  1  0  0  0  0
 27 28  2  0  0  0  0
 27 29  1  0  0  0  0
 23 24  1  0  0  0  0
 23 25  1  0  0  0  0
 23 26  1  0  0  0  0
 20 21  1  0  0  0  0
 20 22  1  0  0  0  0
 20 23  1  0  0  0  0
 17 18  1  0  0  0  0
 17 19  1  0  0  0  0
 17 20  1  0  0  0  0
 14 15  1  0  0  0  0
 14 16  1  0  0  0  0
 14 17  1  0  0  0  0
 11 12  1  0  0  0  0
 11 13  1  0  0  0  0
 11 14  1  0  0  0  0
  9 10  1  0  0  0  0
  9 11  1  0  0  0  0
  9 27  1  0  0  0  0
  7  8  1  0  0  0  0
  7  9  1  0  0  0  0
 31 32  1  0  0  0  0
 31 33  1  0  0  0  0
 31 34  1  0  0  0  0
 29 30  1  0  0  0  0
 29 31  1  0  0  0  0
M  CHG  1  23   1
M  END
$$$$
default_name
  -OEChem-02102213163D

 34 33  0     1  0  0  0  0  0999 V2000
   -3.8899   -3.6747    1.6490 H   0  0  0  0  0  0  0  0  0  0  0  0
   -3.9109   -2.6717    1.2250 C   0  0  0  0  0  0  0  0  0  0  0  0
   -4.6009   -2.0517    1.7950 H   0  0  0  0  0  0  0  0  0  0  0  0
   -4.2309   -2.7237    0.1860 H   0  0  0  0  0  0  0  0  0  0  0  0
   -2.5229   -2.0787    1.2980 C   0  0  0  0  0  0  0  0  0  0  0  0
   -1.5999   -2.7227    1.7810 O   0  0  0  0  0  0  0  0  0  0  0  0
   -2.3659   -0.8447    0.8120 N   0  0  0  0  0  0  0  0  0  0  0  0
   -3.1749   -0.3807    0.4220 H   0  0  0  0  0  0  0  0  0  0  0  0
   -1.0919   -0.1077    0.8170 C   0  0  1  0  0  0  0  0  0  0  0  0
   -0.4136   -0.6011    1.5155 H   0  0  0  0  0  0  0  0  0  0  0  0
   -0.4834   -0.1723   -0.5965 C   0  0  0  0  0  0  0  0  0  0  0  0
   -0.1239    0.8220   -0.8659 H   0  0  0  0  0  0  0  0  0  0  0  0
    0.3708   -0.8522   -0.5886 H   0  0  0  0  0  0  0  0  0  0  0  0
   -1.4848   -0.6304   -1.6677 C   0  0  0  0  0  0  0  0  0  0  0  0
   -1.8564   -1.6260   -1.4215 H   0  0  0  0  0  0  0  0  0  0  0  0
   -2.3246    0.0666   -1.6962 H   0  0  0  0  0  0  0  0  0  0  0  0
   -0.8114   -0.6712   -3.0465 C   0  0  0  0  0  0  0  0  0  0  0  0
   -0.4272    0.3238   -3.2836 H   0  0  0  0  0  0  0  0  0  0  0  0
    0.0216   -1.3763   -3.0152 H   0  0  0  0  0  0  0  0  0  0  0  0
   -1.8166   -1.1045   -4.1209 C   0  0  0  0  0  0  0  0  0  0  0  0
   -2.1950   -2.0986   -3.8614 H   0  0  0  0  0  0  0  0  0  0  0  0
   -2.6619   -0.4099   -4.1065 H   0  0  0  0  0  0  0  0  0  0  0  0
   -1.1969   -1.1294   -5.4699 N   0  3  0  0  0  0  0  0  0  0  0  0
   -0.4203   -1.7784   -5.4924 H   0  0  0  0  0  0  0  0  0  0  0  0
   -1.8727   -1.4167   -6.1669 H   0  0  0  0  0  0  0  0  0  0  0  0
   -0.8528   -0.2093   -5.7186 H   0  0  0  0  0  0  0  0  0  0  0  0
   -1.3103    1.3348    1.2791 C   0  0  0  0  0  0  0  0  0  0  0  0
   -2.2333    1.9891    0.8084 O   0  0  0  0  0  0  0  0  0  0  0  0
   -0.4429    1.8293    2.1683 N   0  0  0  0  0  0  0  0  0  0  0  0
    0.2668    1.2118    2.5263 H   0  0  0  0  0  0  0  0  0  0  0  0
   -0.5118    3.1863    2.7135 C   0  0  0  0  0  0  0  0  0  0  0  0
   -1.4470    3.3159    3.2625 H   0  0  0  0  0  0  0  0  0  0  0  0
    0.3243    3.3682    3.3896 H   0  0  0  0  0  0  0  0  0  0  0  0
   -0.4850    3.9172    1.9023 H   0  0  0  0  0  0  0  0  0  0  0  0
  5  6  2  0  0  0  0
  5  7  1  0  0  0  0
  2  3  1  0  0  0  0
  2  4  1  0  0  0  0
  2  5  1  0  0  0  0
  1  2  1  0  0  0  0
 27 28  2  0  0  0  0
 27 29  1  0  0  0  0
 23 24  1  0  0  0  0
 23 25  1  0  0  0  0
 23 26  1  0  0  0  0
 20 21  1  0  0  0  0
 20 22  1  0  0  0  0
 20 23  1  0  0  0  0
 17 18  1  0  0  0  0
 17 19  1  0  0  0  0
 17 20  1  0  0  0  0
 14 15  1  0  0  0  0
 14 16  1  0  0  0  0
 14 17  1  0  0  0  0
 11 12  1  0  0  0  0
 11 13  1  0  0  0  0
 11 14  1  0  0  0  0
  9 10  1  0  0  0  0
  9 11  1  0  0  0  0
  9 27  1  0  0  0  0
  7  8  1  0  0  0  0
  7  9  1  0  0  0  0
 31 32  1  0  0  0  0
 31 33  1  0  0  0  0
 31 34  1  0  0  0  0
 29 30  1  0  0  0  0
 29 31  1  0  0  0  0
M  CHG  1  23   1
M  END
$$$$
default_name
  -OEChem-02102213163D

 34 33  0     1  0  0  0  0  0999 V2000
   -3.8899   -3.6747    1.6490 H   0  0  0  0  0  0  0  0  0  0  0  0
   -3.9109   -2.6717    1.2250 C   0  0  0  0  0  0  0  0  0  0  0  0
   -4.6009   -2.0517    1.7950 H   0  0  0  0  0  0  0  0  0  0  0  0
   -4.2309   -2.7237    0.1860 H   0  0  0  0  0  0  0  0  0  0  0  0
   -2.5229   -2.0787    1.2980 C   0  0  0  0  0  0  0  0  0  0  0  0
   -1.5999   -2.7227    1.7810 O   0  0  0  0  0  0  0  0  0  0  0  0
   -2.3659   -0.8447    0.8120 N   0  0  0  0  0  0  0  0  0  0  0  0
   -3.1749   -0.3807    0.4220 H   0  0  0  0  0  0  0  0  0  0  0  0
   -1.0919   -0.1077    0.8170 C   0  0  1  0  0  0  0  0  0  0  0  0
   -0.4136   -0.6011    1.5155 H   0  0  0  0  0  0  0  0  0  0  0  0
   -0.4834   -0.1723   -0.5965 C   0  0  0  0  0  0  0  0  0  0  0  0
   -0.1239    0.8220   -0.8659 H   0  0  0  0  0  0  0  0  0  0  0  0
    0.3708   -0.8522   -0.5886 H   0  0  0  0  0  0  0  0  0  0  0  0
   -1.4848   -0.6304   -1.6677 C   0  0  0  0  0  0  0  0  0  0  0  0
   -2.0506   -1.4872   -1.2993 H   0  0  0  0  0  0  0  0  0  0  0  0
   -2.1760    0.1859   -1.8862 H   0  0  0  0  0  0  0  0  0  0  0  0
   -0.7472   -1.0293   -2.9534 C   0  0  0  0  0  0  0  0  0  0  0  0
   -0.1697   -0.1737   -3.3115 H   0  0  0  0  0  0  0  0  0  0  0  0
   -0.0643   -1.8519   -2.7315 H   0  0  0  0  0  0  0  0  0  0  0  0
   -1.7475   -1.4633   -4.0321 C   0  0  0  0  0  0  0  0  0  0  0  0
   -2.3204   -2.3152   -3.6515 H   0  0  0  0  0  0  0  0  0  0  0  0
   -2.4471   -0.6408   -4.2085 H   0  0  0  0  0  0  0  0  0  0  0  0
   -1.0613   -1.8324   -5.2960 N   0  3  0  0  0  0  0  0  0  0  0  0
   -0.4200   -2.6002   -5.1413 H   0  0  0  0  0  0  0  0  0  0  0  0
   -1.7346   -2.1158   -5.9970 H   0  0  0  0  0  0  0  0  0  0  0  0
   -0.5365   -1.0443   -5.6572 H   0  0  0  0  0  0  0  0  0  0  0  0
   -1.3103    1.3348    1.2791 C   0  0  0  0  0  0  0  0  0  0  0  0
   -2.2333    1.9891    0.8084 O   0  0  0  0  0  0  0  0  0  0  0  0
   -0.4429    1.8293    2.1683 N   0  0  0  0  0  0  0  0  0  0  0  0
    0.2668    1.2118    2.5263 H   0  0  0  0  0  0  0  0  0  0  0  0
   -0.5118    3.1863    2.7135 C   0  0  0  0  0  0  0  0  0  0  0  0
   -1.4470    3.3159    3.2625 H   0  0  0  0  0  0  0  0  0  0  0  0
    0.3243    3.3682    3.3896 H   0  0  0  0  0  0  0  0  0  0  0  0
   -0.4850    3.9172    1.9023 H   0  0  0  0  0  0  0  0  0  0  0  0
  5  6  2  0  0  0  0
  5  7  1  0  0  0  0
  2  3  1  0  0  0  0
  2  4  1  0  0  0  0
  2  5  1  0  0  0  0
  1  2  1  0  0  0  0
 27 28  2  0  0  0  0
 27 29  1  0  0  0  0
 23 24  1  0  0  0  0
 23 25  1  0  0  0  0
 23 26  1  0  0  0  0
 20 21  1  0  0  0  0
 20 22  1  0  0  0  0
 20 23  1  0  0  0  0
 17 18  1  0  0  0  0
 17 19  1  0  0  0  0
 17 20  1  0  0  0  0
 14 15  1  0  0  0  0
 14 16  1  0  0  0  0
 14 17  1  0  0  0  0
 11 12  1  0  0  0  0
 11 13  1  0  0  0  0
 11 14  1  0  0  0  0
  9 10  1  0  0  0  0
  9 11  1  0  0  0  0
  9 27  1  0  0  0  0
  7  8  1  0  0  0  0
  7  9  1  0  0  0  0
 31 32  1  0  0  0  0
 31 33  1  0  0  0  0
 31 34  1  0  0  0  0
 29 30  1  0  0  0  0
 29 31  1  0  0  0  0
M  CHG  1  23   1
M  END
$$$$
default_name
  -OEChem-02102213163D

 34 33  0     1  0  0  0  0  0999 V2000
   -3.8899   -3.6747    1.6490 H   0  0  0  0  0  0  0  0  0  0  0  0
   -3.9109   -2.6717    1.2250 C   0  0  0  0  0  0  0  0  0  0  0  0
   -4.6009   -2.0517    1.7950 H   0  0  0  0  0  0  0  0  0  0  0  0
   -4.2309   -2.7237    0.1860 H   0  0  0  0  0  0  0  0  0  0  0  0
   -2.5229   -2.0787    1.2980 C   0  0  0  0  0  0  0  0  0  0  0  0
   -1.5999   -2.7227    1.7810 O   0  0  0  0  0  0  0  0  0  0  0  0
   -2.3659   -0.8447    0.8120 N   0  0  0  0  0  0  0  0  0  0  0  0
   -3.1749   -0.3807    0.4220 H   0  0  0  0  0  0  0  0  0  0  0  0
   -1.0919   -0.1077    0.8170 C   0  0  1  0  0  0  0  0  0  0  0  0
   -0.4136   -0.6011    1.5155 H   0  0  0  0  0  0  0  0  0  0  0  0
   -0.4834   -0.1723   -0.5965 C   0  0  0  0  0  0  0  0  0  0  0  0
   -0.1239    0.8220   -0.8659 H   0  0  0  0  0  0  0  0  0  0  0  0
    0.3708   -0.8522   -0.5886 H   0  0  0  0  0  0  0  0  0  0  0  0
   -1.4848   -0.6304   -1.6677 C   0  0  0  0  0  0  0  0  0  0  0  0
   -2.2225   -1.2975   -1.2197 H   0  0  0  0  0  0  0  0  0  0  0  0
   -1.9963    0.2423   -2.0783 H   0  0  0  0  0  0  0  0  0  0  0  0
   -0.7570   -1.3712   -2.7980 C   0  0  0  0  0  0  0  0  0  0  0  0
   -0.0086   -0.7055   -3.2347 H   0  0  0  0  0  0  0  0  0  0  0  0
   -0.2551   -2.2479   -2.3838 H   0  0  0  0  0  0  0  0  0  0  0  0
   -1.7523   -1.8075   -3.8804 C   0  0  0  0  0  0  0  0  0  0  0  0
   -2.4969   -2.4664   -3.4219 H   0  0  0  0  0  0  0  0  0  0  0  0
   -2.2735   -0.9199   -4.2515 H   0  0  0  0  0  0  0  0  0  0  0  0
   -1.0706   -2.5065   -4.9990 N   0  3  0  0  0  0  0  0  0  0  0  0
   -0.5951   -3.3348   -4.6634 H   0  0  0  0  0  0  0  0  0  0  0  0
   -1.7405   -2.7873   -5.7042 H   0  0  0  0  0  0  0  0  0  0  0  0
   -0.3864   -1.8977   -5.4325 H   0  0  0  0  0  0  0  0  0  0  0  0
   -1.3103    1.3348    1.2791 C   0  0  0  0  0  0  0  0  0  0  0  0
   -2.2333    1.9891    0.8084 O   0  0  0  0  0  0  0  0  0  0  0  0
   -0.4429    1.8293    2.1683 N   0  0  0  0  0  0  0  0  0  0  0  0
    0.2668    1.2118    2.5263 H   0  0  0  0  0  0  0  0  0  0  0  0
   -0.5118    3.1863    2.7135 C   0  0  0  0  0  0  0  0  0  0  0  0
   -1.4470    3.3159    3.2625 H   0  0  0  0  0  0  0  0  0  0  0  0
    0.3243    3.3682    3.3896 H   0  0  0  0  0  0  0  0  0  0  0  0
   -0.4850    3.9172    1.9023 H   0  0  0  0  0  0  0  0  0  0  0  0
  5  6  2  0  0  0  0
  5  7  1  0  0  0  0
  2  3  1  0  0  0  0
  2  4  1  0  0  0  0
  2  5  1  0  0  0  0
  1  2  1  0  0  0  0
 27 28  2  0  0  0  0
 27 29  1  0  0  0  0
 23 24  1  0  0  0  0
 23 25  1  0  0  0  0
 23 26  1  0  0  0  0
 20 21  1  0  0  0  0
 20 22  1  0  0  0  0
 20 23  1  0  0  0  0
 17 18  1  0  0  0  0
 17 19  1  0  0  0  0
 17 20  1  0  0  0  0
 14 15  1  0  0  0  0
 14 16  1  0  0  0  0
 14 17  1  0  0  0  0
 11 12  1  0  0  0  0
 11 13  1  0  0  0  0
 11 14  1  0  0  0  0
  9 10  1  0  0  0  0
  9 11  1  0  0  0  0
  9 27  1  0  0  0  0
  7  8  1  0  0  0  0
  7  9  1  0  0  0  0
 31 32  1  0  0  0  0
 31 33  1  0  0  0  0
 31 34  1  0  0  0  0
 29 30  1  0  0  0  0
 29 31  1  0  0  0  0
M  CHG  1  23   1
M  END
$$$$
default_name
  -OEChem-02102213163D

 34 33  0     1  0  0  0  0  0999 V2000
   -3.8899   -3.6747    1.6490 H   0  0  0  0  0  0  0  0  0  0  0  0
   -3.9109   -2.6717    1.2250 C   0  0  0  0  0  0  0  0  0  0  0  0
   -4.6009   -2.0517    1.7950 H   0  0  0  0  0  0  0  0  0  0  0  0
   -4.2309   -2.7237    0.1860 H   0  0  0  0  0  0  0  0  0  0  0  0
   -2.5229   -2.0787    1.2980 C   0  0  0  0  0  0  0  0  0  0  0  0
   -1.5999   -2.7227    1.7810 O   0  0  0  0  0  0  0  0  0  0  0  0
   -2.3659   -0.8447    0.8120 N   0  0  0  0  0  0  0  0  0  0  0  0
   -3.1749   -0.3807    0.4220 H   0  0  0  0  0  0  0  0  0  0  0  0
   -1.0919   -0.1077    0.8170 C   0  0  1  0  0  0  0  0  0  0  0  0
   -0.4136   -0.6011    1.5155 H   0  0  0  0  0  0  0  0  0  0  0  0
   -0.4834   -0.1723   -0.5965 C   0  0  0  0  0  0  0  0  0  0  0  0
   -0.1239    0.8220   -0.8659 H   0  0  0  0  0  0  0  0  0  0  0  0
    0.3708   -0.8522   -0.5886 H   0  0  0  0  0  0  0  0  0  0  0  0
   -1.4848   -0.6304   -1.6677 C   0  0  0  0  0  0  0  0  0  0  0  0
   -2.3605   -1.0698   -1.1881 H   0  0  0  0  0  0  0  0  0  0  0  0
   -1.7976    0.2320   -2.2596 H   0  0  0  0  0  0  0  0  0  0  0  0
   -0.8401   -1.6734   -2.5911 C   0  0  0  0  0  0  0  0  0  0  0  0
    0.0451   -1.2353   -3.0584 H   0  0  0  0  0  0  0  0  0  0  0  0
   -0.5376   -2.5374   -1.9959 H   0  0  0  0  0  0  0  0  0  0  0  0
   -1.8308   -2.1134   -3.6762 C   0  0  0  0  0  0  0  0  0  0  0  0
   -2.7123   -2.5418   -3.1883 H   0  0  0  0  0  0  0  0  0  0  0  0
   -2.1528   -1.2280   -4.2326 H   0  0  0  0  0  0  0  0  0  0  0  0
   -1.2243   -3.1059   -4.5991 N   0  3  0  0  0  0  0  0  0  0  0  0
   -0.9337   -3.9322   -4.0914 H   0  0  0  0  0  0  0  0  0  0  0  0
   -1.8900   -3.3855   -5.3087 H   0  0  0  0  0  0  0  0  0  0  0  0
   -0.4128   -2.7111   -5.0600 H   0  0  0  0  0  0  0  0  0  0  0  0
   -1.3103    1.3348    1.2791 C   0  0  0  0  0  0  0  0  0  0  0  0
   -2.2333    1.9891    0.8084 O   0  0  0  0  0  0  0  0  0  0  0  0
   -0.4429    1.8293    2.1683 N   0  0  0  0  0  0  0  0  0  0  0  0
    0.2668    1.2118    2.5263 H   0  0  0  0  0  0  0  0  0  0  0  0
   -0.5118    3.1863    2.7135 C   0  0  0  0  0  0  0  0  0  0  0  0
   -1.4470    3.3159    3.2625 H   0  0  0  0  0  0  0  0  0  0  0  0
    0.3243    3.3682    3.3896 H   0  0  0  0  0  0  0  0  0  0  0  0
   -0.4850    3.9172    1.9023 H   0  0  0  0  0  0  0  0  0  0  0  0
  5  6  2  0  0  0  0
  5  7  1  0  0  0  0
  2  3  1  0  0  0  0
  2  4  1  0  0  0  0
  2  5  1  0  0  0  0
  1  2  1  0  0  0  0
 27 28  2  0  0  0  0
 27 29  1  0  0  0  0
 23 24  1  0  0  0  0
 23 25  1  0  0  0  0
 23 26  1  0  0  0  0
 20 21  1  0  0  0  0
 20 22  1  0  0  0  0
 20 23  1  0  0  0  0
 17 18  1  0  0  0  0
 17 19  1  0  0  0  0
 17 20  1  0  0  0  0
 14 15  1  0  0  0  0
 14 16  1  0  0  0  0
 14 17  1  0  0  0  0
 11 12  1  0  0  0  0
 11 13  1  0  0  0  0
 11 14  1  0  0  0  0
  9 10  1  0  0  0  0
  9 11  1  0  0  0  0
  9 27  1  0  0  0  0
  7  8  1  0  0  0  0
  7  9  1  0  0  0  0
 31 32  1  0  0  0  0
 31 33  1  0  0  0  0
 31 34  1  0  0  0  0
 29 30  1  0  0  0  0
 29 31  1  0  0  0  0
M  CHG  1  23   1
M  END
$$$$
default_name
  -OEChem-02102213163D

 34 33  0     1  0  0  0  0  0999 V2000
   -3.8899   -3.6747    1.6490 H   0  0  0  0  0  0  0  0  0  0  0  0
   -3.9109   -2.6717    1.2250 C   0  0  0  0  0  0  0  0  0  0  0  0
   -4.6009   -2.0517    1.7950 H   0  0  0  0  0  0  0  0  0  0  0  0
   -4.2309   -2.7237    0.1860 H   0  0  0  0  0  0  0  0  0  0  0  0
   -2.5229   -2.0787    1.2980 C   0  0  0  0  0  0  0  0  0  0  0  0
   -1.5999   -2.7227    1.7810 O   0  0  0  0  0  0  0  0  0  0  0  0
   -2.3659   -0.8447    0.8120 N   0  0  0  0  0  0  0  0  0  0  0  0
   -3.1749   -0.3807    0.4220 H   0  0  0  0  0  0  0  0  0  0  0  0
   -1.0919   -0.1077    0.8170 C   0  0  1  0  0  0  0  0  0  0  0  0
   -0.4136   -0.6011    1.5155 H   0  0  0  0  0  0  0  0  0  0  0  0
   -0.4834   -0.1723   -0.5965 C   0  0  0  0  0  0  0  0  0  0  0  0
   -0.1239    0.8220   -0.8659 H   0  0  0  0  0  0  0  0  0  0  0  0
    0.3708   -0.8522   -0.5886 H   0  0  0  0  0  0  0  0  0  0  0  0
   -1.4848   -0.6304   -1.6677 C   0  0  0  0  0  0  0  0  0  0  0  0
   -2.4551   -0.8196   -1.2066 H   0  0  0  0  0  0  0  0  0  0  0  0
   -1.5936    0.1555   -2.4176 H   0  0  0  0  0  0  0  0  0  0  0  0
   -0.9909   -1.9155   -2.3466 C   0  0  0  0  0  0  0  0  0  0  0  0
   -0.0123   -1.7269   -2.7945 H   0  0  0  0  0  0  0  0  0  0  0  0
   -0.8927   -2.7005   -1.5942 H   0  0  0  0  0  0  0  0  0  0  0  0
   -1.9775   -2.3603   -3.4334 C   0  0  0  0  0  0  0  0  0  0  0  0
   -2.9520   -2.5364   -2.9665 H   0  0  0  0  0  0  0  0  0  0  0  0
   -2.0933   -1.5442   -4.1530 H   0  0  0  0  0  0  0  0  0  0  0  0
   -1.5117   -3.5897   -4.1235 N   0  3  0  0  0  0  0  0  0  0  0  0
   -1.4127   -4.3515   -3.4643 H   0  0  0  0  0  0  0  0  0  0  0  0
   -2.1729   -3.8695   -4.8372 H   0  0  0  0  0  0  0  0  0  0  0  0
   -0.6138   -3.4292   -4.5650 H   0  0  0  0  0  0  0  0  0  0  0  0
   -1.3103    1.3348    1.2791 C   0  0  0  0  0  0  0  0  0  0  0  0
   -2.2333    1.9891    0.8084 O   0  0  0  0  0  0  0  0  0  0  0  0
   -0.4429    1.8293    2.1683 N   0  0  0  0  0  0  0  0  0  0  0  0
    0.2668    1.2118    2.5263 H   0  0  0  0  0  0  0  0  0  0  0  0
   -0.5118    3.1863    2.7135 C   0  0  0  0  0  0  0  0  0  0  0  0
   -1.4470    3.3159    3.2625 H   0  0  0  0  0  0  0  0  0  0  0  0
    0.3243    3.3682    3.3896 H   0  0  0  0  0  0  0  0  0  0  0  0
   -0.4850    3.9172    1.9023 H   0  0  0  0  0  0  0  0  0  0  0  0
  5  6  2  0  0  0  0
  5  7  1  0  0  0  0
  2  3  1  0  0  0  0
  2  4  1  0  0  0  0
  2  5  1  0  0  0  0
  1  2  1  0  0  0  0
 27 28  2  0  0  0  0
 27 29  1  0  0  0  0
 23 24  1  0  0  0  0
 23 25  1  0  0  0  0
 23 26  1  0  0  0  0
 20 21  1  0  0  0  0
 20 22  1  0  0  0  0
 20 23  1  0  0  0  0
 17 18  1  0  0  0  0
 17 19  1  0  0  0  0
 17 20  1  0  0  0  0
 14 15  1  0  0  0  0
 14 16  1  0  0  0  0
 14 17  1  0  0  0  0
 11 12  1  0  0  0  0
 11 13  1  0  0  0  0
 11 14  1  0  0  0  0
  9 10  1  0  0  0  0
  9 11  1  0  0  0  0
  9 27  1  0  0  0  0
  7  8  1  0  0  0  0
  7  9  1  0  0  0  0
 31 32  1  0  0  0  0
 31 33  1  0  0  0  0
 31 34  1  0  0  0  0
 29 30  1  0  0  0  0
 29 31  1  0  0  0  0
M  CHG  1  23   1
M  END
$$$$
default_name
  -OEChem-02102213163D

 34 33  0     1  0  0  0  0  0999 V2000
   -3.8899   -3.6747    1.6490 H   0  0  0  0  0  0  0  0  0  0  0  0
   -3.9109   -2.6717    1.2250 C   0  0  0  0  0  0  0  0  0  0  0  0
   -4.6009   -2.0517    1.7950 H   0  0  0  0  0  0  0  0  0  0  0  0
   -4.2309   -2.7237    0.1860 H   0  0  0  0  0  0  0  0  0  0  0  0
   -2.5229   -2.0787    1.2980 C   0  0  0  0  0  0  0  0  0  0  0  0
   -1.5999   -2.7227    1.7810 O   0  0  0  0  0  0  0  0  0  0  0  0
   -2.3659   -0.8447    0.8120 N   0  0  0  0  0  0  0  0  0  0  0  0
   -3.1749   -0.3807    0.4220 H   0  0  0  0  0  0  0  0  0  0  0  0
   -1.0919   -0.1077    0.8170 C   0  0  1  0  0  0  0  0  0  0  0  0
   -0.4136   -0.6011    1.5155 H   0  0  0  0  0  0  0  0  0  0  0  0
   -0.4834   -0.1723   -0.5965 C   0  0  0  0  0  0  0  0  0  0  0  0
   -0.1239    0.8220   -0.8659 H   0  0  0  0  0  0  0  0  0  0  0  0
    0.3708   -0.8522   -0.5886 H   0  0  0  0  0  0  0  0  0  0  0  0
   -1.4848   -0.6304   -1.6677 C   0  0  0  0  0  0  0  0  0  0  0  0
   -2.5000   -0.5640   -1.2741 H   0  0  0  0  0  0  0  0  0  0  0  0
   -1.3982    0.0182   -2.5416 H   0  0  0  0  0  0  0  0  0  0  0  0
   -1.1991   -2.0808   -2.0813 C   0  0  0  0  0  0  0  0  0  0  0  0
   -0.1768   -2.1469   -2.4611 H   0  0  0  0  0  0  0  0  0  0  0  0
   -1.2961   -2.7263   -1.2060 H   0  0  0  0  0  0  0  0  0  0  0  0
   -2.1826   -2.5314   -3.1686 C   0  0  0  0  0  0  0  0  0  0  0  0
   -3.1998   -2.4505   -2.7716 H   0  0  0  0  0  0  0  0  0  0  0  0
   -2.0990   -1.8470   -4.0182 H   0  0  0  0  0  0  0  0  0  0  0  0
   -1.9133   -3.9248   -3.6047 N   0  3  0  0  0  0  0  0  0  0  0  0
   -1.9995   -4.5644   -2.8247 H   0  0  0  0  0  0  0  0  0  0  0  0
   -2.5699   -4.2065   -4.3219 H   0  0  0  0  0  0  0  0  0  0  0  0
   -0.9757   -4.0031   -3.9812 H   0  0  0  0  0  0  0  0  0  0  0  0
   -1.3103    1.3348    1.2791 C   0  0  0  0  0  0  0  0  0  0  0  0
   -2.2333    1.9891    0.8084 O   0  0  0  0  0  0  0  0  0  0  0  0
   -0.4429    1.8293    2.1683 N   0  0  0  0  0  0  0  0  0  0  0  0
    0.2668    1.2118    2.5263 H   0  0  0  0  0  0  0  0  0  0  0  0
   -0.5118    3.1863    2.7135 C   0  0  0  0  0  0  0  0  0  0  0  0
   -1.4470    3.3159    3.2625 H   0  0  0  0  0  0  0  0  0  0  0  0
    0.3243    3.3682    3.3896 H   0  0  0  0  0  0  0  0  0  0  0  0
   -0.4850    3.9172    1.9023 H   0  0  0  0  0  0  0  0  0  0  0  0
  5  6  2  0  0  0  0
  5  7  1  0  0  0  0
  2  3  1  0  0  0  0
  2  4  1  0  0  0  0
  2  5  1  0  0  0  0
  1  2  1  0  0  0  0
 27 28  2  0  0  0  0
 27 29  1  0  0  0  0
 23 24  1  0  0  0  0
 23 25  1  0  0  0  0
 23 26  1  0  0  0  0
 20 21  1  0  0  0  0
 20 22  1  0  0  0  0
 20 23  1  0  0  0  0
 17 18  1  0  0  0  0
 17 19  1  0  0  0  0
 17 20  1  0  0  0  0
 14 15  1  0  0  0  0
 14 16  1  0  0  0  0
 14 17  1  0  0  0  0
 11 12  1  0  0  0  0
 11 13  1  0  0  0  0
 11 14  1  0  0  0  0
  9 10  1  0  0  0  0
  9 11  1  0  0  0  0
  9 27  1  0  0  0  0
  7  8  1  0  0  0  0
  7  9  1  0  0  0  0
 31 32  1  0  0  0  0
 31 33  1  0  0  0  0
 31 34  1  0  0  0  0
 29 30  1  0  0  0  0
 29 31  1  0  0  0  0
M  CHG  1  23   1
M  END
$$$$
default_name
  -OEChem-02102213163D

 34 33  0     1  0  0  0  0  0999 V2000
   -3.8899   -3.6747    1.6490 H   0  0  0  0  0  0  0  0  0  0  0  0
   -3.9109   -2.6717    1.2250 C   0  0  0  0  0  0  0  0  0  0  0  0
   -4.6009   -2.0517    1.7950 H   0  0  0  0  0  0  0  0  0  0  0  0
   -4.2309   -2.7237    0.1860 H   0  0  0  0  0  0  0  0  0  0  0  0
   -2.5229   -2.0787    1.2980 C   0  0  0  0  0  0  0  0  0  0  0  0
   -1.5999   -2.7227    1.7810 O   0  0  0  0  0  0  0  0  0  0  0  0
   -2.3659   -0.8447    0.8120 N   0  0  0  0  0  0  0  0  0  0  0  0
   -3.1749   -0.3807    0.4220 H   0  0  0  0  0  0  0  0  0  0  0  0
   -1.0919   -0.1077    0.8170 C   0  0  1  0  0  0  0  0  0  0  0  0
   -0.4136   -0.6011    1.5155 H   0  0  0  0  0  0  0  0  0  0  0  0
   -0.4834   -0.1723   -0.5965 C   0  0  0  0  0  0  0  0  0  0  0  0
   -0.1239    0.8220   -0.8659 H   0  0  0  0  0  0  0  0  0  0  0  0
    0.3708   -0.8522   -0.5886 H   0  0  0  0  0  0  0  0  0  0  0  0
   -1.4848   -0.6304   -1.6677 C   0  0  0  0  0  0  0  0  0  0  0  0
   -2.4919   -0.3204   -1.3858 H   0  0  0  0  0  0  0  0  0  0  0  0
   -1.2246   -0.1706   -2.6231 H   0  0  0  0  0  0  0  0  0  0  0  0
   -1.4505   -2.1581   -1.8131 C   0  0  0  0  0  0  0  0  0  0  0  0
   -0.4372   -2.4667   -2.0809 H   0  0  0  0  0  0  0  0  0  0  0  0
   -1.7204   -2.6129   -0.8579 H   0  0  0  0  0  0  0  0  0  0  0  0
   -2.4320   -2.6149   -2.8997 C   0  0  0  0  0  0  0  0  0  0  0  0
   -3.4386   -2.2899   -2.6171 H   0  0  0  0  0  0  0  0  0  0  0  0
   -2.1696   -2.1156   -3.8373 H   0  0  0  0  0  0  0  0  0  0  0  0
   -2.4017   -4.0886   -3.0781 N   0  3  0  0  0  0  0  0  0  0  0  0
   -2.6540   -4.5562   -2.2164 H   0  0  0  0  0  0  0  0  0  0  0  0
   -3.0540   -4.3735   -3.7980 H   0  0  0  0  0  0  0  0  0  0  0  0
   -1.4740   -4.3936   -3.3484 H   0  0  0  0  0  0  0  0  0  0  0  0
   -1.3103    1.3348    1.2791 C   0  0  0  0  0  0  0  0  0  0  0  0
   -2.2333    1.9891    0.8084 O   0  0  0  0  0  0  0  0  0  0  0  0
   -0.4429    1.8293    2.1683 N   0  0  0  0  0  0  0  0  0  0  0  0
    0.2668    1.2118    2.5263 H   0  0  0  0  0  0  0  0  0  0  0  0
   -0.5118    3.1863    2.7135 C   0  0  0  0  0  0  0  0  0  0  0  0
   -1.4470    3.3159    3.2625 H   0  0  0  0  0  0  0  0  0  0  0  0
    0.3243    3.3682    3.3896 H   0  0  0  0  0  0  0  0  0  0  0  0
   -0.4850    3.9172    1.9023 H   0  0  0  0  0  0  0  0  0  0  0  0
  5  6  2  0  0  0  0
  5  7  1  0  0  0  0
  2  3  1  0  0  0  0
  2  4  1  0  0  0  0
  2  5  1  0  0  0  0
  1  2  1  0  0  0  0
 27 28  2  0  0  0  0
 27 29  1  0  0  0  0
 23 24  1  0  0  0  0
 23 25  1  0  0  0  0
 23 26  1  0  0  0  0
 20 21  1  0  0  0  0
 20 22  1  0  0  0  0
 20 23  1  0  0  0  0
 17 18  1  0  0  0  0
 17 19  1  0  0  0  0
 17 20  1  0  0  0  0
 14 15  1  0  0  0  0
 14 16  1  0  0  0  0
 14 17  1  0  0  0  0
 11 12  1  0  0  0  0
 11 13  1  0  0  0  0
 11 14  1  0  0  0  0
  9 10  1  0  0  0  0
  9 11  1  0  0  0  0
  9 27  1  0  0  0  0
  7  8  1  0  0  0  0
  7  9  1  0  0  0  0
 31 32  1  0  0  0  0
 31 33  1  0  0  0  0
 31 34  1  0  0  0  0
 29 30  1  0  0  0  0
 29 31  1  0  0  0  0
M  CHG  1  23   1
M  END
$$$$
default_name
  -OEChem-02102213163D

 34 33  0     1  0  0  0  0  0999 V2000
   -3.8899   -3.6747    1.6490 H   0  0  0  0  0  0  0  0  0  0  0  0
   -3.9109   -2.6717    1.2250 C   0  0  0  0  0  0  0  0  0  0  0  0
   -4.6009   -2.0517    1.7950 H   0  0  0  0  0  0  0  0  0  0  0  0
   -4.2309   -2.7237    0.1860 H   0  0  0  0  0  0  0  0  0  0  0  0
   -2.5229   -2.0787    1.2980 C   0  0  0  0  0  0  0  0  0  0  0  0
   -1.5999   -2.7227    1.7810 O   0  0  0  0  0  0  0  0  0  0  0  0
   -2.3659   -0.8447    0.8120 N   0  0  0  0  0  0  0  0  0  0  0  0
   -3.1749   -0.3807    0.4220 H   0  0  0  0  0  0  0  0  0  0  0  0
   -1.0919   -0.1077    0.8170 C   0  0  1  0  0  0  0  0  0  0  0  0
   -0.4136   -0.6011    1.5155 H   0  0  0  0  0  0  0  0  0  0  0  0
   -0.4834   -0.1723   -0.5965 C   0  0  0  0  0  0  0  0  0  0  0  0
   -0.1239    0.8220   -0.8659 H   0  0  0  0  0  0  0  0  0  0  0  0
    0.3708   -0.8522   -0.5886 H   0  0  0  0  0  0  0  0  0  0  0  0
   -1.4848   -0.6304   -1.6677 C   0  0  0  0  0  0  0  0  0  0  0  0
   -2.4316   -0.1054   -1.5341 H   0  0  0  0  0  0  0  0  0  0  0  0
   -1.0848   -0.3981   -2.6566 H   0  0  0  0  0  0  0  0  0  0  0  0
   -1.7281   -2.1422   -1.5605 C   0  0  0  0  0  0  0  0  0  0  0  0
   -0.7758   -2.6645   -1.6798 H   0  0  0  0  0  0  0  0  0  0  0  0
   -2.1366   -2.3680   -0.5735 H   0  0  0  0  0  0  0  0  0  0  0  0
   -2.7087   -2.6052   -2.6452 C   0  0  0  0  0  0  0  0  0  0  0  0
   -3.6522   -2.0656   -2.5133 H   0  0  0  0  0  0  0  0  0  0  0  0
   -2.3002   -2.3319   -3.6228 H   0  0  0  0  0  0  0  0  0  0  0  0
   -2.9437   -4.0698   -2.5794 N   0  3  0  0  0  0  0  0  0  0  0  0
   -3.3317   -4.3275   -1.6806 H   0  0  0  0  0  0  0  0  0  0  0  0
   -3.5921   -4.3590   -3.3012 H   0  0  0  0  0  0  0  0  0  0  0  0
   -2.0746   -4.5741   -2.7098 H   0  0  0  0  0  0  0  0  0  0  0  0
   -1.3103    1.3348    1.2791 C   0  0  0  0  0  0  0  0  0  0  0  0
   -2.2333    1.9891    0.8084 O   0  0  0  0  0  0  0  0  0  0  0  0
   -0.4429    1.8293    2.1683 N   0  0  0  0  0  0  0  0  0  0  0  0
    0.2668    1.2118    2.5263 H   0  0  0  0  0  0  0  0  0  0  0  0
   -0.5118    3.1863    2.7135 C   0  0  0  0  0  0  0  0  0  0  0  0
   -1.4470    3.3159    3.2625 H   0  0  0  0  0  0  0  0  0  0  0  0
    0.3243    3.3682    3.3896 H   0  0  0  0  0  0  0  0  0  0  0  0
   -0.4850    3.9172    1.9023 H   0  0  0  0  0  0  0  0  0  0  0  0
  5  6  2  0  0  0  0
  5  7  1  0  0  0  0
  2  3  1  0  0  0  0
  2  4  1  0  0  0  0
  2  5  1  0  0  0  0
  1  2  1  0  0  0  0
 27 28  2  0  0  0  0
 27 29  1  0  0  0  0
 23 24  1  0  0  0  0
 23 25  1  0  0  0  0
 23 26  1  0  0  0  0
 20 21  1  0  0  0  0
 20 22  1  0  0  0  0
 20 23  1  0  0  0  0
 17 18  1  0  0  0  0
 17 19  1  0  0  0  0
 17 20  1  0  0  0  0
 14 15  1  0  0  0  0
 14 16  1  0  0  0  0
 14 17  1  0  0  0  0
 11 12  1  0  0  0  0
 11 13  1  0  0  0  0
 11 14  1  0  0  0  0
  9 10  1  0  0  0  0
  9 11  1  0  0  0  0
  9 27  1  0  0  0  0
  7  8  1  0  0  0  0
  7  9  1  0  0  0  0
 31 32  1  0  0  0  0
 31 33  1  0  0  0  0
 31 34  1  0  0  0  0
 29 30  1  0  0  0  0
 29 31  1  0  0  0  0
M  CHG  1  23   1
M  END
$$$$
default_name
  -OEChem-02102213163D

 34 33  0     1  0  0  0  0  0999 V2000
   -3.8899   -3.6747    1.6490 H   0  0  0  0  0  0  0  0  0  0  0  0
   -3.9109   -2.6717    1.2250 C   0  0  0  0  0  0  0  0  0  0  0  0
   -4.6009   -2.0517    1.7950 H   0  0  0  0  0  0  0  0  0  0  0  0
   -4.2309   -2.7237    0.1860 H   0  0  0  0  0  0  0  0  0  0  0  0
   -2.5229   -2.0787    1.2980 C   0  0  0  0  0  0  0  0  0  0  0  0
   -1.5999   -2.7227    1.7810 O   0  0  0  0  0  0  0  0  0  0  0  0
   -2.3659   -0.8447    0.8120 N   0  0  0  0  0  0  0  0  0  0  0  0
   -3.1749   -0.3807    0.4220 H   0  0  0  0  0  0  0  0  0  0  0  0
   -1.0919   -0.1077    0.8170 C   0  0  1  0  0  0  0  0  0  0  0  0
   -0.4136   -0.6011    1.5155 H   0  0  0  0  0  0  0  0  0  0  0  0
   -0.4834   -0.1723   -0.5965 C   0  0  0  0  0  0  0  0  0  0  0  0
   -0.1239    0.8220   -0.8659 H   0  0  0  0  0  0  0  0  0  0  0  0
    0.3708   -0.8522   -0.5886 H   0  0  0  0  0  0  0  0  0  0  0  0
   -1.4848   -0.6304   -1.6677 C   0  0  0  0  0  0  0  0  0  0  0  0
   -2.3230    0.0664   -1.7091 H   0  0  0  0  0  0  0  0  0  0  0  0
   -0.9881   -0.6487   -2.6398 H   0  0  0  0  0  0  0  0  0  0  0  0
   -2.0127   -2.0341   -1.3406 C   0  0  0  0  0  0  0  0  0  0  0  0
   -1.1695   -2.7267   -1.2851 H   0  0  0  0  0  0  0  0  0  0  0  0
   -2.5164   -2.0084   -0.3722 H   0  0  0  0  0  0  0  0  0  0  0  0
   -2.9939   -2.5030   -2.4223 C   0  0  0  0  0  0  0  0  0  0  0  0
   -3.8260   -1.7929   -2.4673 H   0  0  0  0  0  0  0  0  0  0  0  0
   -2.4819   -2.4810   -3.3891 H   0  0  0  0  0  0  0  0  0  0  0  0
   -3.5024   -3.8696   -2.1428 N   0  3  0  0  0  0  0  0  0  0  0  0
   -3.9864   -3.8939   -1.2540 H   0  0  0  0  0  0  0  0  0  0  0  0
   -4.1476   -4.1641   -2.8652 H   0  0  0  0  0  0  0  0  0  0  0  0
   -2.7365   -4.5323   -2.1088 H   0  0  0  0  0  0  0  0  0  0  0  0
   -1.3103    1.3348    1.2791 C   0  0  0  0  0  0  0  0  0  0  0  0
   -2.2333    1.9891    0.8084 O   0  0  0  0  0  0  0  0  0  0  0  0
   -0.4429    1.8293    2.1683 N   0  0  0  0  0  0  0  0  0  0  0  0
    0.2668    1.2118    2.5263 H   0  0  0  0  0  0  0  0  0  0  0  0
   -0.5118    3.1863    2.7135 C   0  0  0  0  0  0  0  0  0  0  0  0
   -1.4470    3.3159    3.2625 H   0  0  0  0  0  0  0  0  0  0  0  0
    0.3243    3.3682    3.3896 H   0  0  0  0  0  0  0  0  0  0  0  0
   -0.4850    3.9172    1.9023 H   0  0  0  0  0  0  0  0  0  0  0  0
  5  6  2  0  0  0  0
  5  7  1  0  0  0  0
  2  3  1  0  0  0  0
  2  4  1  0  0  0  0
  2  5  1  0  0  0  0
  1  2  1  0  0  0  0
 27 28  2  0  0  0  0
 27 29  1  0  0  0  0
 23 24  1  0  0  0  0
 23 25  1  0  0  0  0
 23 26  1  0  0  0  0
 20 21  1  0  0  0  0
 20 22  1  0  0  0  0
 20 23  1  0  0  0  0
 17 18  1  0  0  0  0
 17 19  1  0  0  0  0
 17 20  1  0  0  0  0
 14 15  1  0  0  0  0
 14 16  1  0  0  0  0
 14 17  1  0  0  0  0
 11 12  1  0  0  0  0
 11 13  1  0  0  0  0
 11 14  1  0  0  0  0
  9 10  1  0  0  0  0
  9 11  1  0  0  0  0
  9 27  1  0  0  0  0
  7  8  1  0  0  0  0
  7  9  1  0  0  0  0
 31 32  1  0  0  0  0
 31 33  1  0  0  0  0
 31 34  1  0  0  0  0
 29 30  1  0  0  0  0
 29 31  1  0  0  0  0
M  CHG  1  23   1
M  END
$$$$
default_name
  -OEChem-02102213163D

 34 33  0     1  0  0  0  0  0999 V2000
   -3.8899   -3.6747    1.6490 H   0  0  0  0  0  0  0  0  0  0  0  0
   -3.9109   -2.6717    1.2250 C   0  0  0  0  0  0  0  0  0  0  0  0
   -4.6009   -2.0517    1.7950 H   0  0  0  0  0  0  0  0  0  0  0  0
   -4.2309   -2.7237    0.1860 H   0  0  0  0  0  0  0  0  0  0  0  0
   -2.5229   -2.0787    1.2980 C   0  0  0  0  0  0  0  0  0  0  0  0
   -1.5999   -2.7227    1.7810 O   0  0  0  0  0  0  0  0  0  0  0  0
   -2.3659   -0.8447    0.8120 N   0  0  0  0  0  0  0  0  0  0  0  0
   -3.1749   -0.3807    0.4220 H   0  0  0  0  0  0  0  0  0  0  0  0
   -1.0919   -0.1077    0.8170 C   0  0  1  0  0  0  0  0  0  0  0  0
   -0.4136   -0.6011    1.5155 H   0  0  0  0  0  0  0  0  0  0  0  0
   -0.4834   -0.1723   -0.5965 C   0  0  0  0  0  0  0  0  0  0  0  0
   -0.1239    0.8220   -0.8659 H   0  0  0  0  0  0  0  0  0  0  0  0
    0.3708   -0.8522   -0.5886 H   0  0  0  0  0  0  0  0  0  0  0  0
   -1.4848   -0.6304   -1.6677 C   0  0  0  0  0  0  0  0  0  0  0  0
   -2.1737    0.1832   -1.8986 H   0  0  0  0  0  0  0  0  0  0  0  0
   -0.9413   -0.9053   -2.5738 H   0  0  0  0  0  0  0  0  0  0  0  0
   -2.2852   -1.8413   -1.1684 C   0  0  0  0  0  0  0  0  0  0  0  0
   -1.5914   -2.6492   -0.9238 H   0  0  0  0  0  0  0  0  0  0  0  0
   -2.8339   -1.5585   -0.2678 H   0  0  0  0  0  0  0  0  0  0  0  0
   -3.2681   -2.3152   -2.2463 C   0  0  0  0  0  0  0  0  0  0  0  0
   -3.9483   -1.4904   -2.4824 H   0  0  0  0  0  0  0  0  0  0  0  0
   -2.7024   -2.5528   -3.1522 H   0  0  0  0  0  0  0  0  0  0  0  0
   -4.0396   -3.5018   -1.7979 N   0  3  0  0  0  0  0  0  0  0  0  0
   -4.5735   -3.2850   -0.9656 H   0  0  0  0  0  0  0  0  0  0  0  0
   -4.6827   -3.8020   -2.5199 H   0  0  0  0  0  0  0  0  0  0  0  0
   -3.4148   -4.2711   -1.5864 H   0  0  0  0  0  0  0  0  0  0  0  0
   -1.3103    1.3348    1.2791 C   0  0  0  0  0  0  0  0  0  0  0  0
   -2.2333    1.9891    0.8084 O   0  0  0  0  0  0  0  0  0  0  0  0
   -0.4429    1.8293    2.1683 N   0  0  0  0  0  0  0  0  0  0  0  0
    0.2668    1.2118    2.5263 H   0  0  0  0  0  0  0  0  0  0  0  0
   -0.5118    3.1863    2.7135 C   0  0  0  0  0  0  0  0  0  0  0  0
   -1.4470    3.3159    3.2625 H   0  0  0  0  0  0  0  0  0  0  0  0
    0.3243    3.3682    3.3896 H   0  0  0  0  0  0  0  0  0  0  0  0
   -0.4850    3.9172    1.9023 H   0  0  0  0  0  0  0  0  0  0  0  0
  5  6  2  0  0  0  0
  5  7  1  0  0  0  0
  2  3  1  0  0  0  0
  2  4  1  0  0  0  0
  2  5  1  0  0  0  0
  1  2  1  0  0  0  0
 27 28  2  0  0  0  0
 27 29  1  0  0  0  0
 23 24  1  0  0  0  0
 23 25  1  0  0  0  0
 23 26  1  0  0  0  0
 20 21  1  0  0  0  0
 20 22  1  0  0  0  0
 20 23  1  0  0  0  0
 17 18  1  0  0  0  0
 17 19  1  0  0  0  0
 17 20  1  0  0  0  0
 14 15  1  0  0  0  0
 14 16  1  0  0  0  0
 14 17  1  0  0  0  0
 11 12  1  0  0  0  0
 11 13  1  0  0  0  0
 11 14  1  0  0  0  0
  9 10  1  0  0  0  0
  9 11  1  0  0  0  0
  9 27  1  0  0  0  0
  7  8  1  0  0  0  0
  7  9  1  0  0  0  0
 31 32  1  0  0  0  0
 31 33  1  0  0  0  0
 31 34  1  0  0  0  0
 29 30  1  0  0  0  0
 29 31  1  0  0  0  0
M  CHG  1  23   1
M  END
$$$$
default_name
  -OEChem-02102213163D

 34 33  0     1  0  0  0  0  0999 V2000
   -3.8899   -3.6747    1.6490 H   0  0  0  0  0  0  0  0  0  0  0  0
   -3.9109   -2.6717    1.2250 C   0  0  0  0  0  0  0  0  0  0  0  0
   -4.6009   -2.0517    1.7950 H   0  0  0  0  0  0  0  0  0  0  0  0
   -4.2309   -2.7237    0.1860 H   0  0  0  0  0  0  0  0  0  0  0  0
   -2.5229   -2.0787    1.2980 C   0  0  0  0  0  0  0  0  0  0  0  0
   -1.5999   -2.7227    1.7810 O   0  0  0  0  0  0  0  0  0  0  0  0
   -2.3659   -0.8447    0.8120 N   0  0  0  0  0  0  0  0  0  0  0  0
   -3.1749   -0.3807    0.4220 H   0  0  0  0  0  0  0  0  0  0  0  0
   -1.0919   -0.1077    0.8170 C   0  0  1  0  0  0  0  0  0  0  0  0
   -0.4136   -0.6011    1.5155 H   0  0  0  0  0  0  0  0  0  0  0  0
   -0.4834   -0.1723   -0.5965 C   0  0  0  0  0  0  0  0  0  0  0  0
   -0.1239    0.8220   -0.8659 H   0  0  0  0  0  0  0  0  0  0  0  0
    0.3708   -0.8522   -0.5886 H   0  0  0  0  0  0  0  0  0  0  0  0
   -1.4848   -0.6304   -1.6677 C   0  0  0  0  0  0  0  0  0  0  0  0
   -1.9937    0.2371   -2.0899 H   0  0  0  0  0  0  0  0  0  0  0  0
   -0.9475   -1.1506   -2.4631 H   0  0  0  0  0  0  0  0  0  0  0  0
   -2.5268   -1.5767   -1.0556 C   0  0  0  0  0  0  0  0  0  0  0  0
   -2.0129   -2.4372   -0.6204 H   0  0  0  0  0  0  0  0  0  0  0  0
   -3.0675   -1.0491   -0.2673 H   0  0  0  0  0  0  0  0  0  0  0  0
   -3.5126   -2.0546   -2.1291 C   0  0  0  0  0  0  0  0  0  0  0  0
   -4.0107   -1.1786   -2.5574 H   0  0  0  0  0  0  0  0  0  0  0  0
   -2.9466   -2.5424   -2.9284 H   0  0  0  0  0  0  0  0  0  0  0  0
   -4.5187   -2.9914   -1.5682 N   0  3  0  0  0  0  0  0  0  0  0  0
   -5.0529   -2.5422   -0.8350 H   0  0  0  0  0  0  0  0  0  0  0  0
   -5.1608   -3.2974   -2.2887 H   0  0  0  0  0  0  0  0  0  0  0  0
   -4.0631   -3.8083   -1.1782 H   0  0  0  0  0  0  0  0  0  0  0  0
   -1.3103    1.3348    1.2791 C   0  0  0  0  0  0  0  0  0  0  0  0
   -2.2333    1.9891    0.8084 O   0  0  0  0  0  0  0  0  0  0  0  0
   -0.4429    1.8293    2.1683 N   0  0  0  0  0  0  0  0  0  0  0  0
    0.2668    1.2118    2.5263 H   0  0  0  0  0  0  0  0  0  0  0  0
   -0.5118    3.1863    2.7135 C   0  0  0  0  0  0  0  0  0  0  0  0
   -1.4470    3.3159    3.2625 H   0  0  0  0  0  0  0  0  0  0  0  0
    0.3243    3.3682    3.3896 H   0  0  0  0  0  0  0  0  0  0  0  0
   -0.4850    3.9172    1.9023 H   0  0  0  0  0  0  0  0  0  0  0  0
  5  6  2  0  0  0  0
  5  7  1  0  0  0  0
  2  3  1  0  0  0  0
  2  4  1  0  0  0  0
  2  5  1  0  0  0  0
  1  2  1  0  0  0  0
 27 28  2  0  0  0  0
 27 29  1  0  0  0  0
 23 24  1  0  0  0  0
 23 25  1  0  0  0  0
 23 26  1  0  0  0  0
 20 21  1  0  0  0  0
 20 22  1  0  0  0  0
 20 23  1  0  0  0  0
 17 18  1  0  0  0  0
 17 19  1  0  0  0  0
 17 20  1  0  0  0  0
 14 15  1  0  0  0  0
 14 16  1  0  0  0  0
 14 17  1  0  0  0  0
 11 12  1  0  0  0  0
 11 13  1  0  0  0  0
 11 14  1  0  0  0  0
  9 10  1  0  0  0  0
  9 11  1  0  0  0  0
  9 27  1  0  0  0  0
  7  8  1  0  0  0  0
  7  9  1  0  0  0  0
 31 32  1  0  0  0  0
 31 33  1  0  0  0  0
 31 34  1  0  0  0  0
 29 30  1  0  0  0  0
 29 31  1  0  0  0  0
M  CHG  1  23   1
M  END
$$$$
default_name
  -OEChem-02102213163D

 34 33  0     1  0  0  0  0  0999 V2000
   -3.8899   -3.6747    1.6490 H   0  0  0  0  0  0  0  0  0  0  0  0
   -3.9109   -2.6717    1.2250 C   0  0  0  0  0  0  0  0  0  0  0  0
   -4.6009   -2.0517    1.7950 H   0  0  0  0  0  0  0  0  0  0  0  0
   -4.2309   -2.7237    0.1860 H   0  0  0  0  0  0  0  0  0  0  0  0
   -2.5229   -2.0787    1.2980 C   0  0  0  0  0  0  0  0  0  0  0  0
   -1.5999   -2.7227    1.7810 O   0  0  0  0  0  0  0  0  0  0  0  0
   -2.3659   -0.8447    0.8120 N   0  0  0  0  0  0  0  0  0  0  0  0
   -3.1749   -0.3807    0.4220 H   0  0  0  0  0  0  0  0  0  0  0  0
   -1.0919   -0.1077    0.8170 C   0  0  1  0  0  0  0  0  0  0  0  0
   -0.4136   -0.6011    1.5155 H   0  0  0  0  0  0  0  0  0  0  0  0
   -0.4834   -0.1723   -0.5965 C   0  0  0  0  0  0  0  0  0  0  0  0
   -0.1239    0.8220   -0.8659 H   0  0  0  0  0  0  0  0  0  0  0  0
    0.3708   -0.8522   -0.5886 H   0  0  0  0  0  0  0  0  0  0  0  0
   -1.4848   -0.6304   -1.6677 C   0  0  0  0  0  0  0  0  0  0  0  0
   -1.7954    0.2244   -2.2699 H   0  0  0  0  0  0  0  0  0  0  0  0
   -1.0063   -1.3676   -2.3154 H   0  0  0  0  0  0  0  0  0  0  0  0
   -2.7212   -1.2586   -1.0099 C   0  0  0  0  0  0  0  0  0  0  0  0
   -2.4052   -2.1052   -0.3957 H   0  0  0  0  0  0  0  0  0  0  0  0
   -3.2012   -0.5148   -0.3708 H   0  0  0  0  0  0  0  0  0  0  0  0
   -3.7109   -1.7389   -2.0787 C   0  0  0  0  0  0  0  0  0  0  0  0
   -4.0089   -0.8789   -2.6873 H   0  0  0  0  0  0  0  0  0  0  0  0
   -3.1979   -2.4506   -2.7327 H   0  0  0  0  0  0  0  0  0  0  0  0
   -4.9071   -2.3732   -1.4695 N   0  3  0  0  0  0  0  0  0  0  0  0
   -5.3920   -1.7162   -0.8712 H   0  0  0  0  0  0  0  0  0  0  0  0
   -5.5494   -2.6847   -2.1874 H   0  0  0  0  0  0  0  0  0  0  0  0
   -4.6374   -3.1754   -0.9121 H   0  0  0  0  0  0  0  0  0  0  0  0
   -1.3103    1.3348    1.2791 C   0  0  0  0  0  0  0  0  0  0  0  0
   -2.2333    1.9891    0.8084 O   0  0  0  0  0  0  0  0  0  0  0  0
   -0.4429    1.8293    2.1683 N   0  0  0  0  0  0  0  0  0  0  0  0
    0.2668    1.2118    2.5263 H   0  0  0  0  0  0  0  0  0  0  0  0
   -0.5118    3.1863    2.7135 C   0  0  0  0  0  0  0  0  0  0  0  0
   -1.4470    3.3159    3.2625 H   0  0  0  0  0  0  0  0  0  0  0  0
    0.3243    3.3682    3.3896 H   0  0  0  0  0  0  0  0  0  0  0  0
   -0.4850    3.9172    1.9023 H   0  0  0  0  0  0  0  0  0  0  0  0
  5  6  2  0  0  0  0
  5  7  1  0  0  0  0
  2  3  1  0  0  0  0
  2  4  1  0  0  0  0
  2  5  1  0  0  0  0
  1  2  1  0  0  0  0
 27 28  2  0  0  0  0
 27 29  1  0  0  0  0
 23 24  1  0  0  0  0
 23 25  1  0  0  0  0
 23 26  1  0  0  0  0
 20 21  1  0  0  0  0
 20 22  1  0  0  0  0
 20 23  1  0  0  0  0
 17 18  1  0  0  0  0
 17 19  1  0  0  0  0
 17 20  1  0  0  0  0
 14 15  1  0  0  0  0
 14 16  1  0  0  0  0
 14 17  1  0  0  0  0
 11 12  1  0  0  0  0
 11 13  1  0  0  0  0
 11 14  1  0  0  0  0
  9 10  1  0  0  0  0
  9 11  1  0  0  0  0
  9 27  1  0  0  0  0
  7  8  1  0  0  0  0
  7  9  1  0  0  0  0
 31 32  1  0  0  0  0
 31 33  1  0  0  0  0
 31 34  1  0  0  0  0
 29 30  1  0  0  0  0
 29 31  1  0  0  0  0
M  CHG  1  23   1
M  END
$$$$
default_name
  -OEChem-02102213163D

 34 33  0     1  0  0  0  0  0999 V2000
   -3.8899   -3.6747    1.6490 H   0  0  0  0  0  0  0  0  0  0  0  0
   -3.9109   -2.6717    1.2250 C   0  0  0  0  0  0  0  0  0  0  0  0
   -4.6009   -2.0517    1.7950 H   0  0  0  0  0  0  0  0  0  0  0  0
   -4.2309   -2.7237    0.1860 H   0  0  0  0  0  0  0  0  0  0  0  0
   -2.5229   -2.0787    1.2980 C   0  0  0  0  0  0  0  0  0  0  0  0
   -1.5999   -2.7227    1.7810 O   0  0  0  0  0  0  0  0  0  0  0  0
   -2.3659   -0.8447    0.8120 N   0  0  0  0  0  0  0  0  0  0  0  0
   -3.1749   -0.3807    0.4220 H   0  0  0  0  0  0  0  0  0  0  0  0
   -1.0919   -0.1077    0.8170 C   0  0  1  0  0  0  0  0  0  0  0  0
   -0.4136   -0.6011    1.5155 H   0  0  0  0  0  0  0  0  0  0  0  0
   -0.4834   -0.1723   -0.5965 C   0  0  0  0  0  0  0  0  0  0  0  0
   -0.1239    0.8220   -0.8659 H   0  0  0  0  0  0  0  0  0  0  0  0
    0.3708   -0.8522   -0.5886 H   0  0  0  0  0  0  0  0  0  0  0  0
   -1.4848   -0.6304   -1.6677 C   0  0  0  0  0  0  0  0  0  0  0  0
   -1.5922    0.1460   -2.4263 H   0  0  0  0  0  0  0  0  0  0  0  0
   -1.1136   -1.5418   -2.1405 H   0  0  0  0  0  0  0  0  0  0  0  0
   -2.8551   -0.9085   -1.0345 C   0  0  0  0  0  0  0  0  0  0  0  0
   -2.7416   -1.6758   -0.2649 H   0  0  0  0  0  0  0  0  0  0  0  0
   -3.2259    0.0080   -0.5713 H   0  0  0  0  0  0  0  0  0  0  0  0
   -3.8493   -1.3898   -2.0987 C   0  0  0  0  0  0  0  0  0  0  0  0
   -3.9430   -0.6117   -2.8632 H   0  0  0  0  0  0  0  0  0  0  0  0
   -3.4392   -2.2835   -2.5786 H   0  0  0  0  0  0  0  0  0  0  0  0
   -5.1783   -1.6893   -1.5084 N   0  3  0  0  0  0  0  0  0  0  0  0
   -5.5677   -0.8632   -1.0717 H   0  0  0  0  0  0  0  0  0  0  0  0
   -5.8220   -2.0057   -2.2229 H   0  0  0  0  0  0  0  0  0  0  0  0
   -5.0983   -2.4155   -0.8061 H   0  0  0  0  0  0  0  0  0  0  0  0
   -1.3103    1.3348    1.2791 C   0  0  0  0  0  0  0  0  0  0  0  0
   -2.2333    1.9891    0.8084 O   0  0  0  0  0  0  0  0  0  0  0  0
   -0.4429    1.8293    2.1683 N   0  0  0  0  0  0  0  0  0  0  0  0
    0.2668    1.2118    2.5263 H   0  0  0  0  0  0  0  0  0  0  0  0
   -0.5118    3.1863    2.7135 C   0  0  0  0  0  0  0  0  0  0  0  0
   -1.4470    3.3159    3.2625 H   0  0  0  0  0  0  0  0  0  0  0  0
    0.3243    3.3682    3.3896 H   0  0  0  0  0  0  0  0  0  0  0  0
   -0.4850    3.9172    1.9023 H   0  0  0  0  0  0  0  0  0  0  0  0
  5  6  2  0  0  0  0
  5  7  1  0  0  0  0
  2  3  1  0  0  0  0
  2  4  1  0  0  0  0
  2  5  1  0  0  0  0
  1  2  1  0  0  0  0
 27 28  2  0  0  0  0
 27 29  1  0  0  0  0
 23 24  1  0  0  0  0
 23 25  1  0  0  0  0
 23 26  1  0  0  0  0
 20 21  1  0  0  0  0
 20 22  1  0  0  0  0
 20 23  1  0  0  0  0
 17 18  1  0  0  0  0
 17 19  1  0  0  0  0
 17 20  1  0  0  0  0
 14 15  1  0  0  0  0
 14 16  1  0  0  0  0
 14 17  1  0  0  0  0
 11 12  1  0  0  0  0
 11 13  1  0  0  0  0
 11 14  1  0  0  0  0
  9 10  1  0  0  0  0
  9 11  1  0  0  0  0
  9 27  1  0  0  0  0
  7  8  1  0  0  0  0
  7  9  1  0  0  0  0
 31 32  1  0  0  0  0
 31 33  1  0  0  0  0
 31 34  1  0  0  0  0
 29 30  1  0  0  0  0
 29 31  1  0  0  0  0
M  CHG  1  23   1
M  END
$$$$
default_name
  -OEChem-02102213163D

 34 33  0     1  0  0  0  0  0999 V2000
   -3.8899   -3.6747    1.6490 H   0  0  0  0  0  0  0  0  0  0  0  0
   -3.9109   -2.6717    1.2250 C   0  0  0  0  0  0  0  0  0  0  0  0
   -4.6009   -2.0517    1.7950 H   0  0  0  0  0  0  0  0  0  0  0  0
   -4.2309   -2.7237    0.1860 H   0  0  0  0  0  0  0  0  0  0  0  0
   -2.5229   -2.0787    1.2980 C   0  0  0  0  0  0  0  0  0  0  0  0
   -1.5999   -2.7227    1.7810 O   0  0  0  0  0  0  0  0  0  0  0  0
   -2.3659   -0.8447    0.8120 N   0  0  0  0  0  0  0  0  0  0  0  0
   -3.1749   -0.3807    0.4220 H   0  0  0  0  0  0  0  0  0  0  0  0
   -1.0919   -0.1077    0.8170 C   0  0  1  0  0  0  0  0  0  0  0  0
   -0.4136   -0.6011    1.5155 H   0  0  0  0  0  0  0  0  0  0  0  0
   -0.4834   -0.1723   -0.5965 C   0  0  0  0  0  0  0  0  0  0  0  0
   -0.1239    0.8220   -0.8659 H   0  0  0  0  0  0  0  0  0  0  0  0
    0.3708   -0.8522   -0.5886 H   0  0  0  0  0  0  0  0  0  0  0  0
   -1.4848   -0.6304   -1.6677 C   0  0  0  0  0  0  0  0  0  0  0  0
   -1.3980    0.0072   -2.5485 H   0  0  0  0  0  0  0  0  0  0  0  0
   -1.2622   -1.6612   -1.9505 H   0  0  0  0  0  0  0  0  0  0  0  0
   -2.9193   -0.5503   -1.1276 C   0  0  0  0  0  0  0  0  0  0  0  0
   -2.9991   -1.1782   -0.2369 H   0  0  0  0  0  0  0  0  0  0  0  0
   -3.1400    0.4836   -0.8550 H   0  0  0  0  0  0  0  0  0  0  0  0
   -3.9184   -1.0309   -2.1875 C   0  0  0  0  0  0  0  0  0  0  0  0
   -3.8176   -0.3951   -3.0731 H   0  0  0  0  0  0  0  0  0  0  0  0
   -3.6540   -2.0525   -2.4766 H   0  0  0  0  0  0  0  0  0  0  0  0
   -5.3139   -0.9864   -1.6823 N   0  3  0  0  0  0  0  0  0  0  0  0
   -5.5680   -0.0414   -1.4229 H   0  0  0  0  0  0  0  0  0  0  0  0
   -5.9601   -1.3066   -2.3928 H   0  0  0  0  0  0  0  0  0  0  0  0
   -5.4146   -1.5804   -0.8675 H   0  0  0  0  0  0  0  0  0  0  0  0
   -1.3103    1.3348    1.2791 C   0  0  0  0  0  0  0  0  0  0  0  0
   -2.2333    1.9891    0.8084 O   0  0  0  0  0  0  0  0  0  0  0  0
   -0.4429    1.8293    2.1683 N   0  0  0  0  0  0  0  0  0  0  0  0
    0.2668    1.2118    2.5263 H   0  0  0  0  0  0  0  0  0  0  0  0
   -0.5118    3.1863    2.7135 C   0  0  0  0  0  0  0  0  0  0  0  0
   -1.4470    3.3159    3.2625 H   0  0  0  0  0  0  0  0  0  0  0  0
    0.3243    3.3682    3.3896 H   0  0  0  0  0  0  0  0  0  0  0  0
   -0.4850    3.9172    1.9023 H   0  0  0  0  0  0  0  0  0  0  0  0
  5  6  2  0  0  0  0
  5  7  1  0  0  0  0
  2  3  1  0  0  0  0
  2  4  1  0  0  0  0
  2  5  1  0  0  0  0
  1  2  1  0  0  0  0
 27 28  2  0  0  0  0
 27 29  1  0  0  0  0
 23 24  1  0  0  0  0
 23 25  1  0  0  0  0
 23 26  1  0  0  0  0
 20 21  1  0  0  0  0
 20 22  1  0  0  0  0
 20 23  1  0  0  0  0
 17 18  1  0  0  0  0
 17 19  1  0  0  0  0
 17 20  1  0  0  0  0
 14 15  1  0  0  0  0
 14 16  1  0  0  0  0
 14 17  1  0  0  0  0
 11 12  1  0  0  0  0
 11 13  1  0  0  0  0
 11 14  1  0  0  0  0
  9 10  1  0  0  0  0
  9 11  1  0  0  0  0
  9 27  1  0  0  0  0
  7  8  1  0  0  0  0
  7  9  1  0  0  0  0
 31 32  1  0  0  0  0
 31 33  1  0  0  0  0
 31 34  1  0  0  0  0
 29 30  1  0  0  0  0
 29 31  1  0  0  0  0
M  CHG  1  23   1
M  END
$$$$
default_name
  -OEChem-02102213163D

 34 33  0     1  0  0  0  0  0999 V2000
   -3.8899   -3.6747    1.6490 H   0  0  0  0  0  0  0  0  0  0  0  0
   -3.9109   -2.6717    1.2250 C   0  0  0  0  0  0  0  0  0  0  0  0
   -4.6009   -2.0517    1.7950 H   0  0  0  0  0  0  0  0  0  0  0  0
   -4.2309   -2.7237    0.1860 H   0  0  0  0  0  0  0  0  0  0  0  0
   -2.5229   -2.0787    1.2980 C   0  0  0  0  0  0  0  0  0  0  0  0
   -1.5999   -2.7227    1.7810 O   0  0  0  0  0  0  0  0  0  0  0  0
   -2.3659   -0.8447    0.8120 N   0  0  0  0  0  0  0  0  0  0  0  0
   -3.1749   -0.3807    0.4220 H   0  0  0  0  0  0  0  0  0  0  0  0
   -1.0919   -0.1077    0.8170 C   0  0  1  0  0  0  0  0  0  0  0  0
   -0.4136   -0.6011    1.5155 H   0  0  0  0  0  0  0  0  0  0  0  0
   -0.4834   -0.1723   -0.5965 C   0  0  0  0  0  0  0  0  0  0  0  0
   -0.1239    0.8220   -0.8659 H   0  0  0  0  0  0  0  0  0  0  0  0
    0.3708   -0.8522   -0.5886 H   0  0  0  0  0  0  0  0  0  0  0  0
   -1.4848   -0.6304   -1.6677 C   0  0  0  0  0  0  0  0  0  0  0  0
   -1.2261   -0.1825   -2.6281 H   0  0  0  0  0  0  0  0  0  0  0  0
   -1.4420   -1.7176   -1.7584 H   0  0  0  0  0  0  0  0  0  0  0  0
   -2.9096   -0.2085   -1.2829 C   0  0  0  0  0  0  0  0  0  0  0  0
   -3.1601   -0.6465   -0.3138 H   0  0  0  0  0  0  0  0  0  0  0  0
   -2.9493    0.8797   -1.2026 H   0  0  0  0  0  0  0  0  0  0  0  0
   -3.9136   -0.6868   -2.3392 C   0  0  0  0  0  0  0  0  0  0  0  0
   -3.6411   -0.2439   -3.3027 H   0  0  0  0  0  0  0  0  0  0  0  0
   -3.8276   -1.7735   -2.4336 H   0  0  0  0  0  0  0  0  0  0  0  0
   -5.3045   -0.3122   -1.9793 N   0  3  0  0  0  0  0  0  0  0  0  0
   -5.3929    0.6932   -1.9007 H   0  0  0  0  0  0  0  0  0  0  0  0
   -5.9541   -0.6351   -2.6855 H   0  0  0  0  0  0  0  0  0  0  0  0
   -5.5647   -0.7271   -1.0922 H   0  0  0  0  0  0  0  0  0  0  0  0
   -1.3103    1.3348    1.2791 C   0  0  0  0  0  0  0  0  0  0  0  0
   -2.2333    1.9891    0.8084 O   0  0  0  0  0  0  0  0  0  0  0  0
   -0.4429    1.8293    2.1683 N   0  0  0  0  0  0  0  0  0  0  0  0
    0.2668    1.2118    2.5263 H   0  0  0  0  0  0  0  0  0  0  0  0
   -0.5118    3.1863    2.7135 C   0  0  0  0  0  0  0  0  0  0  0  0
   -1.4470    3.3159    3.2625 H   0  0  0  0  0  0  0  0  0  0  0  0
    0.3243    3.3682    3.3896 H   0  0  0  0  0  0  0  0  0  0  0  0
   -0.4850    3.9172    1.9023 H   0  0  0  0  0  0  0  0  0  0  0  0
  5  6  2  0  0  0  0
  5  7  1  0  0  0  0
  2  3  1  0  0  0  0
  2  4  1  0  0  0  0
  2  5  1  0  0  0  0
  1  2  1  0  0  0  0
 27 28  2  0  0  0  0
 27 29  1  0  0  0  0
 23 24  1  0  0  0  0
 23 25  1  0  0  0  0
 23 26  1  0  0  0  0
 20 21  1  0  0  0  0
 20 22  1  0  0  0  0
 20 23  1  0  0  0  0
 17 18  1  0  0  0  0
 17 19  1  0  0  0  0
 17 20  1  0  0  0  0
 14 15  1  0  0  0  0
 14 16  1  0  0  0  0
 14 17  1  0  0  0  0
 11 12  1  0  0  0  0
 11 13  1  0  0  0  0
 11 14  1  0  0  0  0
  9 10  1  0  0  0  0
  9 11  1  0  0  0  0
  9 27  1  0  0  0  0
  7  8  1  0  0  0  0
  7  9  1  0  0  0  0
 31 32  1  0  0  0  0
 31 33  1  0  0  0  0
 31 34  1  0  0  0  0
 29 30  1  0  0  0  0
 29 31  1  0  0  0  0
M  CHG  1  23   1
M  END
$$$$
default_name
  -OEChem-02102213163D

 34 33  0     1  0  0  0  0  0999 V2000
   -3.8899   -3.6747    1.6490 H   0  0  0  0  0  0  0  0  0  0  0  0
   -3.9109   -2.6717    1.2250 C   0  0  0  0  0  0  0  0  0  0  0  0
   -4.6009   -2.0517    1.7950 H   0  0  0  0  0  0  0  0  0  0  0  0
   -4.2309   -2.7237    0.1860 H   0  0  0  0  0  0  0  0  0  0  0  0
   -2.5229   -2.0787    1.2980 C   0  0  0  0  0  0  0  0  0  0  0  0
   -1.5999   -2.7227    1.7810 O   0  0  0  0  0  0  0  0  0  0  0  0
   -2.3659   -0.8447    0.8120 N   0  0  0  0  0  0  0  0  0  0  0  0
   -3.1749   -0.3807    0.4220 H   0  0  0  0  0  0  0  0  0  0  0  0
   -1.0919   -0.1077    0.8170 C   0  0  1  0  0  0  0  0  0  0  0  0
   -0.4136   -0.6011    1.5155 H   0  0  0  0  0  0  0  0  0  0  0  0
   -0.4834   -0.1723   -0.5965 C   0  0  0  0  0  0  0  0  0  0  0  0
   -0.1239    0.8220   -0.8659 H   0  0  0  0  0  0  0  0  0  0  0  0
    0.3708   -0.8522   -0.5886 H   0  0  0  0  0  0  0  0  0  0  0  0
   -1.4848   -0.6304   -1.6677 C   0  0  0  0  0  0  0  0  0  0  0  0
   -1.0881   -0.4102   -2.6597 H   0  0  0  0  0  0  0  0  0  0  0  0
   -1.6406   -1.7072   -1.5771 H   0  0  0  0  0  0  0  0  0  0  0  0
   -2.8264    0.0938   -1.4899 C   0  0  0  0  0  0  0  0  0  0  0  0
   -3.2138   -0.1167   -0.4901 H   0  0  0  0  0  0  0  0  0  0  0  0
   -2.6667    1.1691   -1.5906 H   0  0  0  0  0  0  0  0  0  0  0  0
   -3.8351   -0.3809   -2.5434 C   0  0  0  0  0  0  0  0  0  0  0  0
   -3.4257   -0.1684   -3.5363 H   0  0  0  0  0  0  0  0  0  0  0  0
   -3.9483   -1.4654   -2.4525 H   0  0  0  0  0  0  0  0  0  0  0  0
   -5.1509    0.2871   -2.3792 N   0  3  0  0  0  0  0  0  0  0  0  0
   -5.0543    1.2905   -2.4727 H   0  0  0  0  0  0  0  0  0  0  0  0
   -5.8046   -0.0369   -3.0811 H   0  0  0  0  0  0  0  0  0  0  0  0
   -5.5384    0.0864   -1.4647 H   0  0  0  0  0  0  0  0  0  0  0  0
   -1.3103    1.3348    1.2791 C   0  0  0  0  0  0  0  0  0  0  0  0
   -2.2333    1.9891    0.8084 O   0  0  0  0  0  0  0  0  0  0  0  0
   -0.4429    1.8293    2.1683 N   0  0  0  0  0  0  0  0  0  0  0  0
    0.2668    1.2118    2.5263 H   0  0  0  0  0  0  0  0  0  0  0  0
   -0.5118    3.1863    2.7135 C   0  0  0  0  0  0  0  0  0  0  0  0
   -1.4470    3.3159    3.2625 H   0  0  0  0  0  0  0  0  0  0  0  0
    0.3243    3.3682    3.3896 H   0  0  0  0  0  0  0  0  0  0  0  0
   -0.4850    3.9172    1.9023 H   0  0  0  0  0  0  0  0  0  0  0  0
  5  6  2  0  0  0  0
  5  7  1  0  0  0  0
  2  3  1  0  0  0  0
  2  4  1  0  0  0  0
  2  5  1  0  0  0  0
  1  2  1  0  0  0  0
 27 28  2  0  0  0  0
 27 29  1  0  0  0  0
 23 24  1  0  0  0  0
 23 25  1  0  0  0  0
 23 26  1  0  0  0  0
 20 21  1  0  0  0  0
 20 22  1  0  0  0  0
 20 23  1  0  0  0  0
 17 18  1  0  0  0  0
 17 19  1  0  0  0  0
 17 20  1  0  0  0  0
 14 15  1  0  0  0  0
 14 16  1  0  0  0  0
 14 17  1  0  0  0  0
 11 12  1  0  0  0  0
 11 13  1  0  0  0  0
 11 14  1  0  0  0  0
  9 10  1  0  0  0  0
  9 11  1  0  0  0  0
  9 27  1  0  0  0  0
  7  8  1  0  0  0  0
  7  9  1  0  0  0  0
 31 32  1  0  0  0  0
 31 33  1  0  0  0  0
 31 34  1  0  0  0  0
 29 30  1  0  0  0  0
 29 31  1  0  0  0  0
M  CHG  1  23   1
M  END
$$$$
default_name
  -OEChem-02102213163D

 34 33  0     1  0  0  0  0  0999 V2000
   -3.8899   -3.6747    1.6490 H   0  0  0  0  0  0  0  0  0  0  0  0
   -3.9109   -2.6717    1.2250 C   0  0  0  0  0  0  0  0  0  0  0  0
   -4.6009   -2.0517    1.7950 H   0  0  0  0  0  0  0  0  0  0  0  0
   -4.2309   -2.7237    0.1860 H   0  0  0  0  0  0  0  0  0  0  0  0
   -2.5229   -2.0787    1.2980 C   0  0  0  0  0  0  0  0  0  0  0  0
   -1.5999   -2.7227    1.7810 O   0  0  0  0  0  0  0  0  0  0  0  0
   -2.3659   -0.8447    0.8120 N   0  0  0  0  0  0  0  0  0  0  0  0
   -3.1749   -0.3807    0.4220 H   0  0  0  0  0  0  0  0  0  0  0  0
   -1.0919   -0.1077    0.8170 C   0  0  1  0  0  0  0  0  0  0  0  0
   -0.4136   -0.6011    1.5155 H   0  0  0  0  0  0  0  0  0  0  0  0
   -0.4834   -0.1723   -0.5965 C   0  0  0  0  0  0  0  0  0  0  0  0
   -0.1239    0.8220   -0.8659 H   0  0  0  0  0  0  0  0  0  0  0  0
    0.3708   -0.8522   -0.5886 H   0  0  0  0  0  0  0  0  0  0  0  0
   -1.4848   -0.6304   -1.6677 C   0  0  0  0  0  0  0  0  0  0  0  0
   -0.9935   -0.6604   -2.6412 H   0  0  0  0  0  0  0  0  0  0  0  0
   -1.8446   -1.6308   -1.4191 H   0  0  0  0  0  0  0  0  0  0  0  0
   -2.6756    0.3358   -1.7343 C   0  0  0  0  0  0  0  0  0  0  0  0
   -3.1565    0.3749   -0.7540 H   0  0  0  0  0  0  0  0  0  0  0  0
   -2.3116    1.3323   -1.9923 H   0  0  0  0  0  0  0  0  0  0  0  0
   -3.6884   -0.1340   -2.7862 C   0  0  0  0  0  0  0  0  0  0  0  0
   -3.1860   -0.1738   -3.7581 H   0  0  0  0  0  0  0  0  0  0  0  0
   -4.0078   -1.1492   -2.5321 H   0  0  0  0  0  0  0  0  0  0  0  0
   -4.8635    0.7709   -2.8548 N   0  3  0  0  0  0  0  0  0  0  0  0
   -4.5753    1.7099   -3.0999 H   0  0  0  0  0  0  0  0  0  0  0  0
   -5.5218    0.4472   -3.5526 H   0  0  0  0  0  0  0  0  0  0  0  0
   -5.3373    0.8045   -1.9597 H   0  0  0  0  0  0  0  0  0  0  0  0
   -1.3103    1.3348    1.2791 C   0  0  0  0  0  0  0  0  0  0  0  0
   -2.2333    1.9891    0.8084 O   0  0  0  0  0  0  0  0  0  0  0  0
   -0.4429    1.8293    2.1683 N   0  0  0  0  0  0  0  0  0  0  0  0
    0.2668    1.2118    2.5263 H   0  0  0  0  0  0  0  0  0  0  0  0
   -0.5118    3.1863    2.7135 C   0  0  0  0  0  0  0  0  0  0  0  0
   -1.4470    3.3159    3.2625 H   0  0  0  0  0  0  0  0  0  0  0  0
    0.3243    3.3682    3.3896 H   0  0  0  0  0  0  0  0  0  0  0  0
   -0.4850    3.9172    1.9023 H   0  0  0  0  0  0  0  0  0  0  0  0
  5  6  2  0  0  0  0
  5  7  1  0  0  0  0
  2  3  1  0  0  0  0
  2  4  1  0  0  0  0
  2  5  1  0  0  0  0
  1  2  1  0  0  0  0
 27 28  2  0  0  0  0
 27 29  1  0  0  0  0
 23 24  1  0  0  0  0
 23 25  1  0  0  0  0
 23 26  1  0  0  0  0
 20 21  1  0  0  0  0
 20 22  1  0  0  0  0
 20 23  1  0  0  0  0
 17 18  1  0  0  0  0
 17 19  1  0  0  0  0
 17 20  1  0  0  0  0
 14 15  1  0  0  0  0
 14 16  1  0  0  0  0
 14 17  1  0  0  0  0
 11 12  1  0  0  0  0
 11 13  1  0  0  0  0
 11 14  1  0  0  0  0
  9 10  1  0  0  0  0
  9 11  1  0  0  0  0
  9 27  1  0  0  0  0
  7  8  1  0  0  0  0
  7  9  1  0  0  0  0
 31 32  1  0  0  0  0
 31 33  1  0  0  0  0
 31 34  1  0  0  0  0
 29 30  1  0  0  0  0
 29 31  1  0  0  0  0
M  CHG  1  23   1
M  END
$$$$
default_name
  -OEChem-02102213163D

 34 33  0     1  0  0  0  0  0999 V2000
   -3.8899   -3.6747    1.6490 H   0  0  0  0  0  0  0  0  0  0  0  0
   -3.9109   -2.6717    1.2250 C   0  0  0  0  0  0  0  0  0  0  0  0
   -4.6009   -2.0517    1.7950 H   0  0  0  0  0  0  0  0  0  0  0  0
   -4.2309   -2.7237    0.1860 H   0  0  0  0  0  0  0  0  0  0  0  0
   -2.5229   -2.0787    1.2980 C   0  0  0  0  0  0  0  0  0  0  0  0
   -1.5999   -2.7227    1.7810 O   0  0  0  0  0  0  0  0  0  0  0  0
   -2.3659   -0.8447    0.8120 N   0  0  0  0  0  0  0  0  0  0  0  0
   -3.1749   -0.3807    0.4220 H   0  0  0  0  0  0  0  0  0  0  0  0
   -1.0919   -0.1077    0.8170 C   0  0  1  0  0  0  0  0  0  0  0  0
   -0.4136   -0.6011    1.5155 H   0  0  0  0  0  0  0  0  0  0  0  0
   -0.4834   -0.1723   -0.5965 C   0  0  0  0  0  0  0  0  0  0  0  0
   -0.1239    0.8220   -0.8659 H   0  0  0  0  0  0  0  0  0  0  0  0
    0.3708   -0.8522   -0.5886 H   0  0  0  0  0  0  0  0  0  0  0  0
   -1.4848   -0.6304   -1.6677 C   0  0  0  0  0  0  0  0  0  0  0  0
   -0.9487   -0.9160   -2.5738 H   0  0  0  0  0  0  0  0  0  0  0  0
   -2.0400   -1.4935   -1.2951 H   0  0  0  0  0  0  0  0  0  0  0  0
   -2.4674    0.5011   -1.9997 C   0  0  0  0  0  0  0  0  0  0  0  0
   -2.9920    0.7950   -1.0874 H   0  0  0  0  0  0  0  0  0  0  0  0
   -1.9082    1.3580   -2.3804 H   0  0  0  0  0  0  0  0  0  0  0  0
   -3.4833    0.0371   -3.0510 C   0  0  0  0  0  0  0  0  0  0  0  0
   -2.9382   -0.2598   -3.9530 H   0  0  0  0  0  0  0  0  0  0  0  0
   -4.0021   -0.8464   -2.6669 H   0  0  0  0  0  0  0  0  0  0  0  0
   -4.4619    1.1061   -3.3736 N   0  3  0  0  0  0  0  0  0  0  0  0
   -3.9886    1.9227   -3.7394 H   0  0  0  0  0  0  0  0  0  0  0  0
   -5.1248    0.7842   -4.0678 H   0  0  0  0  0  0  0  0  0  0  0  0
   -4.9754    1.3783   -2.5435 H   0  0  0  0  0  0  0  0  0  0  0  0
   -1.3103    1.3348    1.2791 C   0  0  0  0  0  0  0  0  0  0  0  0
   -2.2333    1.9891    0.8084 O   0  0  0  0  0  0  0  0  0  0  0  0
   -0.4429    1.8293    2.1683 N   0  0  0  0  0  0  0  0  0  0  0  0
    0.2668    1.2118    2.5263 H   0  0  0  0  0  0  0  0  0  0  0  0
   -0.5118    3.1863    2.7135 C   0  0  0  0  0  0  0  0  0  0  0  0
   -1.4470    3.3159    3.2625 H   0  0  0  0  0  0  0  0  0  0  0  0
    0.3243    3.3682    3.3896 H   0  0  0  0  0  0  0  0  0  0  0  0
   -0.4850    3.9172    1.9023 H   0  0  0  0  0  0  0  0  0  0  0  0
  5  6  2  0  0  0  0
  5  7  1  0  0  0  0
  2  3  1  0  0  0  0
  2  4  1  0  0  0  0
  2  5  1  0  0  0  0
  1  2  1  0  0  0  0
 27 28  2  0  0  0  0
 27 29  1  0  0  0  0
 23 24  1  0  0  0  0
 23 25  1  0  0  0  0
 23 26  1  0  0  0  0
 20 21  1  0  0  0  0
 20 22  1  0  0  0  0
 20 23  1  0  0  0  0
 17 18  1  0  0  0  0
 17 19  1  0  0  0  0
 17 20  1  0  0  0  0
 14 15  1  0  0  0  0
 14 16  1  0  0  0  0
 14 17  1  0  0  0  0
 11 12  1  0  0  0  0
 11 13  1  0  0  0  0
 11 14  1  0  0  0  0
  9 10  1  0  0  0  0
  9 11  1  0  0  0  0
  9 27  1  0  0  0  0
  7  8  1  0  0  0  0
  7  9  1  0  0  0  0
 31 32  1  0  0  0  0
 31 33  1  0  0  0  0
 31 34  1  0  0  0  0
 29 30  1  0  0  0  0
 29 31  1  0  0  0  0
M  CHG  1  23   1
M  END
$$$$
default_name
  -OEChem-02102213163D

 34 33  0     1  0  0  0  0  0999 V2000
   -3.8899   -3.6747    1.6490 H   0  0  0  0  0  0  0  0  0  0  0  0
   -3.9109   -2.6717    1.2250 C   0  0  0  0  0  0  0  0  0  0  0  0
   -4.6009   -2.0517    1.7950 H   0  0  0  0  0  0  0  0  0  0  0  0
   -4.2309   -2.7237    0.1860 H   0  0  0  0  0  0  0  0  0  0  0  0
   -2.5229   -2.0787    1.2980 C   0  0  0  0  0  0  0  0  0  0  0  0
   -1.5999   -2.7227    1.7810 O   0  0  0  0  0  0  0  0  0  0  0  0
   -2.3659   -0.8447    0.8120 N   0  0  0  0  0  0  0  0  0  0  0  0
   -3.1749   -0.3807    0.4220 H   0  0  0  0  0  0  0  0  0  0  0  0
   -1.0919   -0.1077    0.8170 C   0  0  1  0  0  0  0  0  0  0  0  0
   -0.4136   -0.6011    1.5155 H   0  0  0  0  0  0  0  0  0  0  0  0
   -0.4834   -0.1723   -0.5965 C   0  0  0  0  0  0  0  0  0  0  0  0
   -0.1239    0.8220   -0.8659 H   0  0  0  0  0  0  0  0  0  0  0  0
    0.3708   -0.8522   -0.5886 H   0  0  0  0  0  0  0  0  0  0  0  0
   -1.4848   -0.6304   -1.6677 C   0  0  0  0  0  0  0  0  0  0  0  0
   -0.9567   -1.1596   -2.4621 H   0  0  0  0  0  0  0  0  0  0  0  0
   -2.2136   -1.3046   -1.2136 H   0  0  0  0  0  0  0  0  0  0  0  0
   -2.2160    0.5784   -2.2678 C   0  0  0  0  0  0  0  0  0  0  0  0
   -2.7316    1.1148   -1.4676 H   0  0  0  0  0  0  0  0  0  0  0  0
   -1.4839    1.2446   -2.7286 H   0  0  0  0  0  0  0  0  0  0  0  0
   -3.2339    0.1206   -3.3199 C   0  0  0  0  0  0  0  0  0  0  0  0
   -2.6994   -0.4203   -4.1075 H   0  0  0  0  0  0  0  0  0  0  0  0
   -3.9315   -0.5777   -2.8478 H   0  0  0  0  0  0  0  0  0  0  0  0
   -3.9734    1.2699   -3.9003 N   0  3  0  0  0  0  0  0  0  0  0  0
   -3.3340    1.9145   -4.3478 H   0  0  0  0  0  0  0  0  0  0  0  0
   -4.6407    0.9511   -4.5917 H   0  0  0  0  0  0  0  0  0  0  0  0
   -4.4771    1.7688   -3.1763 H   0  0  0  0  0  0  0  0  0  0  0  0
   -1.3103    1.3348    1.2791 C   0  0  0  0  0  0  0  0  0  0  0  0
   -2.2333    1.9891    0.8084 O   0  0  0  0  0  0  0  0  0  0  0  0
   -0.4429    1.8293    2.1683 N   0  0  0  0  0  0  0  0  0  0  0  0
    0.2668    1.2118    2.5263 H   0  0  0  0  0  0  0  0  0  0  0  0
   -0.5118    3.1863    2.7135 C   0  0  0  0  0  0  0  0  0  0  0  0
   -1.4470    3.3159    3.2625 H   0  0  0  0  0  0  0  0  0  0  0  0
    0.3243    3.3682    3.3896 H   0  0  0  0  0  0  0  0  0  0  0  0
   -0.4850    3.9172    1.9023 H   0  0  0  0  0  0  0  0  0  0  0  0
  5  6  2  0  0  0  0
  5  7  1  0  0  0  0
  2  3  1  0  0  0  0
  2  4  1  0  0  0  0
  2  5  1  0  0  0  0
  1  2  1  0  0  0  0
 27 28  2  0  0  0  0
 27 29  1  0  0  0  0
 23 24  1  0  0  0  0
 23 25  1  0  0  0  0
 23 26  1  0  0  0  0
 20 21  1  0  0  0  0
 20 22  1  0  0  0  0
 20 23  1  0  0  0  0
 17 18  1  0  0  0  0
 17 19  1  0  0  0  0
 17 20  1  0  0  0  0
 14 15  1  0  0  0  0
 14 16  1  0  0  0  0
 14 17  1  0  0  0  0
 11 12  1  0  0  0  0
 11 13  1  0  0  0  0
 11 14  1  0  0  0  0
  9 10  1  0  0  0  0
  9 11  1  0  0  0  0
  9 27  1  0  0  0  0
  7  8  1  0  0  0  0
  7  9  1  0  0  0  0
 31 32  1  0  0  0  0
 31 33  1  0  0  0  0
 31 34  1  0  0  0  0
 29 30  1  0  0  0  0
 29 31  1  0  0  0  0
M  CHG  1  23   1
M  END
$$$$
default_name
  -OEChem-02102213163D

 34 33  0     1  0  0  0  0  0999 V2000
   -3.8899   -3.6747    1.6490 H   0  0  0  0  0  0  0  0  0  0  0  0
   -3.9109   -2.6717    1.2250 C   0  0  0  0  0  0  0  0  0  0  0  0
   -4.6009   -2.0517    1.7950 H   0  0  0  0  0  0  0  0  0  0  0  0
   -4.2309   -2.7237    0.1860 H   0  0  0  0  0  0  0  0  0  0  0  0
   -2.5229   -2.0787    1.2980 C   0  0  0  0  0  0  0  0  0  0  0  0
   -1.5999   -2.7227    1.7810 O   0  0  0  0  0  0  0  0  0  0  0  0
   -2.3659   -0.8447    0.8120 N   0  0  0  0  0  0  0  0  0  0  0  0
   -3.1749   -0.3807    0.4220 H   0  0  0  0  0  0  0  0  0  0  0  0
   -1.0919   -0.1077    0.8170 C   0  0  1  0  0  0  0  0  0  0  0  0
   -0.4136   -0.6011    1.5155 H   0  0  0  0  0  0  0  0  0  0  0  0
   -0.4834   -0.1723   -0.5965 C   0  0  0  0  0  0  0  0  0  0  0  0
   -0.1239    0.8220   -0.8659 H   0  0  0  0  0  0  0  0  0  0  0  0
    0.3708   -0.8522   -0.5886 H   0  0  0  0  0  0  0  0  0  0  0  0
   -1.4848   -0.6304   -1.6677 C   0  0  0  0  0  0  0  0  0  0  0  0
   -1.0170   -1.3746   -2.3137 H   0  0  0  0  0  0  0  0  0  0  0  0
   -2.3535   -1.0772   -1.1801 H   0  0  0  0  0  0  0  0  0  0  0  0
   -1.9385    0.5625   -2.5204 C   0  0  0  0  0  0  0  0  0  0  0  0
   -2.3930    1.3125   -1.8687 H   0  0  0  0  0  0  0  0  0  0  0  0
   -1.0677    0.9998   -3.0130 H   0  0  0  0  0  0  0  0  0  0  0  0
   -2.9572    0.1109   -3.5744 C   0  0  0  0  0  0  0  0  0  0  0  0
   -2.4858   -0.6446   -4.2113 H   0  0  0  0  0  0  0  0  0  0  0  0
   -3.8009   -0.3615   -3.0624 H   0  0  0  0  0  0  0  0  0  0  0  0
   -3.4314    1.2510   -4.3989 N   0  3  0  0  0  0  0  0  0  0  0  0
   -2.6563    1.6859   -4.8836 H   0  0  0  0  0  0  0  0  0  0  0  0
   -4.1026    0.9366   -5.0886 H   0  0  0  0  0  0  0  0  0  0  0  0
   -3.8766    1.9494   -3.8149 H   0  0  0  0  0  0  0  0  0  0  0  0
   -1.3103    1.3348    1.2791 C   0  0  0  0  0  0  0  0  0  0  0  0
   -2.2333    1.9891    0.8084 O   0  0  0  0  0  0  0  0  0  0  0  0
   -0.4429    1.8293    2.1683 N   0  0  0  0  0  0  0  0  0  0  0  0
    0.2668    1.2118    2.5263 H   0  0  0  0  0  0  0  0  0  0  0  0
   -0.5118    3.1863    2.7135 C   0  0  0  0  0  0  0  0  0  0  0  0
   -1.4470    3.3159    3.2625 H   0  0  0  0  0  0  0  0  0  0  0  0
    0.3243    3.3682    3.3896 H   0  0  0  0  0  0  0  0  0  0  0  0
   -0.4850    3.9172    1.9023 H   0  0  0  0  0  0  0  0  0  0  0  0
  5  6  2  0  0  0  0
  5  7  1  0  0  0  0
  2  3  1  0  0  0  0
  2  4  1  0  0  0  0
  2  5  1  0  0  0  0
  1  2  1  0  0  0  0
 27 28  2  0  0  0  0
 27 29  1  0  0  0  0
 23 24  1  0  0  0  0
 23 25  1  0  0  0  0
 23 26  1  0  0  0  0
 20 21  1  0  0  0  0
 20 22  1  0  0  0  0
 20 23  1  0  0  0  0
 17 18  1  0  0  0  0
 17 19  1  0  0  0  0
 17 20  1  0  0  0  0
 14 15  1  0  0  0  0
 14 16  1  0  0  0  0
 14 17  1  0  0  0  0
 11 12  1  0  0  0  0
 11 13  1  0  0  0  0
 11 14  1  0  0  0  0
  9 10  1  0  0  0  0
  9 11  1  0  0  0  0
  9 27  1  0  0  0  0
  7  8  1  0  0  0  0
  7  9  1  0  0  0  0
 31 32  1  0  0  0  0
 31 33  1  0  0  0  0
 31 34  1  0  0  0  0
 29 30  1  0  0  0  0
 29 31  1  0  0  0  0
M  CHG  1  23   1
M  END
$$$$
default_name
  -OEChem-02102213163D

 34 33  0     1  0  0  0  0  0999 V2000
   -3.8899   -3.6747    1.6490 H   0  0  0  0  0  0  0  0  0  0  0  0
   -3.9109   -2.6717    1.2250 C   0  0  0  0  0  0  0  0  0  0  0  0
   -4.6009   -2.0517    1.7950 H   0  0  0  0  0  0  0  0  0  0  0  0
   -4.2309   -2.7237    0.1860 H   0  0  0  0  0  0  0  0  0  0  0  0
   -2.5229   -2.0787    1.2980 C   0  0  0  0  0  0  0  0  0  0  0  0
   -1.5999   -2.7227    1.7810 O   0  0  0  0  0  0  0  0  0  0  0  0
   -2.3659   -0.8447    0.8120 N   0  0  0  0  0  0  0  0  0  0  0  0
   -3.1749   -0.3807    0.4220 H   0  0  0  0  0  0  0  0  0  0  0  0
   -1.0919   -0.1077    0.8170 C   0  0  1  0  0  0  0  0  0  0  0  0
   -0.4136   -0.6011    1.5155 H   0  0  0  0  0  0  0  0  0  0  0  0
   -0.4834   -0.1723   -0.5965 C   0  0  0  0  0  0  0  0  0  0  0  0
   -0.1239    0.8220   -0.8659 H   0  0  0  0  0  0  0  0  0  0  0  0
    0.3708   -0.8522   -0.5886 H   0  0  0  0  0  0  0  0  0  0  0  0
   -1.4848   -0.6304   -1.6677 C   0  0  0  0  0  0  0  0  0  0  0  0
   -1.1256   -1.5464   -2.1388 H   0  0  0  0  0  0  0  0  0  0  0  0
   -2.4501   -0.8266   -1.1969 H   0  0  0  0  0  0  0  0  0  0  0  0
   -1.6538    0.4544   -2.7404 C   0  0  0  0  0  0  0  0  0  0  0  0
   -1.9993    1.3747   -2.2633 H   0  0  0  0  0  0  0  0  0  0  0  0
   -0.6879    0.6402   -3.2143 H   0  0  0  0  0  0  0  0  0  0  0  0
   -2.6720    0.0087   -3.7973 C   0  0  0  0  0  0  0  0  0  0  0  0
   -2.3119   -0.9173   -4.2573 H   0  0  0  0  0  0  0  0  0  0  0  0
   -3.6192   -0.2124   -3.2961 H   0  0  0  0  0  0  0  0  0  0  0  0
   -2.8728    1.0509   -4.8356 N   0  3  0  0  0  0  0  0  0  0  0  0
   -2.0016    1.2523   -5.3102 H   0  0  0  0  0  0  0  0  0  0  0  0
   -3.5471    0.7417   -5.5246 H   0  0  0  0  0  0  0  0  0  0  0  0
   -3.2146    1.9076   -4.4159 H   0  0  0  0  0  0  0  0  0  0  0  0
   -1.3103    1.3348    1.2791 C   0  0  0  0  0  0  0  0  0  0  0  0
   -2.2333    1.9891    0.8084 O   0  0  0  0  0  0  0  0  0  0  0  0
   -0.4429    1.8293    2.1683 N   0  0  0  0  0  0  0  0  0  0  0  0
    0.2668    1.2118    2.5263 H   0  0  0  0  0  0  0  0  0  0  0  0
   -0.5118    3.1863    2.7135 C   0  0  0  0  0  0  0  0  0  0  0  0
   -1.4470    3.3159    3.2625 H   0  0  0  0  0  0  0  0  0  0  0  0
    0.3243    3.3682    3.3896 H   0  0  0  0  0  0  0  0  0  0  0  0
   -0.4850    3.9172    1.9023 H   0  0  0  0  0  0  0  0  0  0  0  0
  5  6  2  0  0  0  0
  5  7  1  0  0  0  0
  2  3  1  0  0  0  0
  2  4  1  0  0  0  0
  2  5  1  0  0  0  0
  1  2  1  0  0  0  0
 27 28  2  0  0  0  0
 27 29  1  0  0  0  0
 23 24  1  0  0  0  0
 23 25  1  0  0  0  0
 23 26  1  0  0  0  0
 20 21  1  0  0  0  0
 20 22  1  0  0  0  0
 20 23  1  0  0  0  0
 17 18  1  0  0  0  0
 17 19  1  0  0  0  0
 17 20  1  0  0  0  0
 14 15  1  0  0  0  0
 14 16  1  0  0  0  0
 14 17  1  0  0  0  0
 11 12  1  0  0  0  0
 11 13  1  0  0  0  0
 11 14  1  0  0  0  0
  9 10  1  0  0  0  0
  9 11  1  0  0  0  0
  9 27  1  0  0  0  0
  7  8  1  0  0  0  0
  7  9  1  0  0  0  0
 31 32  1  0  0  0  0
 31 33  1  0  0  0  0
 31 34  1  0  0  0  0
 29 30  1  0  0  0  0
 29 31  1  0  0  0  0
M  CHG  1  23   1
M  END
$$$$
default_name
  -OEChem-02102213163D

 34 33  0     1  0  0  0  0  0999 V2000
   -3.8899   -3.6747    1.6490 H   0  0  0  0  0  0  0  0  0  0  0  0
   -3.9109   -2.6717    1.2250 C   0  0  0  0  0  0  0  0  0  0  0  0
   -4.6009   -2.0517    1.7950 H   0  0  0  0  0  0  0  0  0  0  0  0
   -4.2309   -2.7237    0.1860 H   0  0  0  0  0  0  0  0  0  0  0  0
   -2.5229   -2.0787    1.2980 C   0  0  0  0  0  0  0  0  0  0  0  0
   -1.5999   -2.7227    1.7810 O   0  0  0  0  0  0  0  0  0  0  0  0
   -2.3659   -0.8447    0.8120 N   0  0  0  0  0  0  0  0  0  0  0  0
   -3.1749   -0.3807    0.4220 H   0  0  0  0  0  0  0  0  0  0  0  0
   -1.0919   -0.1077    0.8170 C   0  0  1  0  0  0  0  0  0  0  0  0
   -0.4136   -0.6011    1.5155 H   0  0  0  0  0  0  0  0  0  0  0  0
   -0.4834   -0.1723   -0.5965 C   0  0  0  0  0  0  0  0  0  0  0  0
   -0.1239    0.8220   -0.8659 H   0  0  0  0  0  0  0  0  0  0  0  0
    0.3708   -0.8522   -0.5886 H   0  0  0  0  0  0  0  0  0  0  0  0
   -1.4848   -0.6304   -1.6677 C   0  0  0  0  0  0  0  0  0  0  0  0
   -1.2749   -1.6632   -1.9492 H   0  0  0  0  0  0  0  0  0  0  0  0
   -2.4969   -0.5699   -1.2629 H   0  0  0  0  0  0  0  0  0  0  0  0
   -1.3814    0.2616   -2.9126 C   0  0  0  0  0  0  0  0  0  0  0  0
   -1.5773    1.2972   -2.6247 H   0  0  0  0  0  0  0  0  0  0  0  0
   -0.3704    0.1903   -3.3187 H   0  0  0  0  0  0  0  0  0  0  0  0
   -2.3978   -0.1791   -3.9733 C   0  0  0  0  0  0  0  0  0  0  0  0
   -2.1897   -1.2198   -4.2422 H   0  0  0  0  0  0  0  0  0  0  0  0
   -3.3987   -0.1405   -3.5329 H   0  0  0  0  0  0  0  0  0  0  0  0
   -2.3356    0.6831   -5.1805 N   0  3  0  0  0  0  0  0  0  0  0  0
   -1.4145    0.6433   -5.5986 H   0  0  0  0  0  0  0  0  0  0  0  0
   -3.0120    0.3796   -5.8699 H   0  0  0  0  0  0  0  0  0  0  0  0
   -2.5363    1.6464   -4.9383 H   0  0  0  0  0  0  0  0  0  0  0  0
   -1.3103    1.3348    1.2791 C   0  0  0  0  0  0  0  0  0  0  0  0
   -2.2333    1.9891    0.8084 O   0  0  0  0  0  0  0  0  0  0  0  0
   -0.4429    1.8293    2.1683 N   0  0  0  0  0  0  0  0  0  0  0  0
    0.2668    1.2118    2.5263 H   0  0  0  0  0  0  0  0  0  0  0  0
   -0.5118    3.1863    2.7135 C   0  0  0  0  0  0  0  0  0  0  0  0
   -1.4470    3.3159    3.2625 H   0  0  0  0  0  0  0  0  0  0  0  0
    0.3243    3.3682    3.3896 H   0  0  0  0  0  0  0  0  0  0  0  0
   -0.4850    3.9172    1.9023 H   0  0  0  0  0  0  0  0  0  0  0  0
  5  6  2  0  0  0  0
  5  7  1  0  0  0  0
  2  3  1  0  0  0  0
  2  4  1  0  0  0  0
  2  5  1  0  0  0  0
  1  2  1  0  0  0  0
 27 28  2  0  0  0  0
 27 29  1  0  0  0  0
 23 24  1  0  0  0  0
 23 25  1  0  0  0  0
 23 26  1  0  0  0  0
 20 21  1  0  0  0  0
 20 22  1  0  0  0  0
 20 23  1  0  0  0  0
 17 18  1  0  0  0  0
 17 19  1  0  0  0  0
 17 20  1  0  0  0  0
 14 15  1  0  0  0  0
 14 16  1  0  0  0  0
 14 17  1  0  0  0  0
 11 12  1  0  0  0  0
 11 13  1  0  0  0  0
 11 14  1  0  0  0  0
  9 10  1  0  0  0  0
  9 11  1  0  0  0  0
  9 27  1  0  0  0  0
  7  8  1  0  0  0  0
  7  9  1  0  0  0  0
 31 32  1  0  0  0  0
 31 33  1  0  0  0  0
 31 34  1  0  0  0  0
 29 30  1  0  0  0  0
 29 31  1  0  0  0  0
M  CHG  1  23   1
M  END
$$$$
default_name
  -OEChem-02102213163D

 34 33  0     1  0  0  0  0  0999 V2000
   -3.8899   -3.6747    1.6490 H   0  0  0  0  0  0  0  0  0  0  0  0
   -3.9109   -2.6717    1.2250 C   0  0  0  0  0  0  0  0  0  0  0  0
   -4.6009   -2.0517    1.7950 H   0  0  0  0  0  0  0  0  0  0  0  0
   -4.2309   -2.7237    0.1860 H   0  0  0  0  0  0  0  0  0  0  0  0
   -2.5229   -2.0787    1.2980 C   0  0  0  0  0  0  0  0  0  0  0  0
   -1.5999   -2.7227    1.7810 O   0  0  0  0  0  0  0  0  0  0  0  0
   -2.3659   -0.8447    0.8120 N   0  0  0  0  0  0  0  0  0  0  0  0
   -3.1749   -0.3807    0.4220 H   0  0  0  0  0  0  0  0  0  0  0  0
   -1.0919   -0.1077    0.8170 C   0  0  1  0  0  0  0  0  0  0  0  0
   -0.4136   -0.6011    1.5155 H   0  0  0  0  0  0  0  0  0  0  0  0
   -0.4834   -0.1723   -0.5965 C   0  0  0  0  0  0  0  0  0  0  0  0
   -0.1239    0.8220   -0.8659 H   0  0  0  0  0  0  0  0  0  0  0  0
    0.3708   -0.8522   -0.5886 H   0  0  0  0  0  0  0  0  0  0  0  0
   -1.4848   -0.6304   -1.6677 C   0  0  0  0  0  0  0  0  0  0  0  0
   -1.4549   -1.7171   -1.7579 H   0  0  0  0  0  0  0  0  0  0  0  0
   -2.4908   -0.3247   -1.3736 H   0  0  0  0  0  0  0  0  0  0  0  0
   -1.1397   -0.0029   -3.0254 C   0  0  0  0  0  0  0  0  0  0  0  0
   -1.1558    1.0852   -2.9280 H   0  0  0  0  0  0  0  0  0  0  0  0
   -0.1368   -0.3192   -3.3192 H   0  0  0  0  0  0  0  0  0  0  0  0
   -2.1533   -0.4397   -4.0905 C   0  0  0  0  0  0  0  0  0  0  0  0
   -2.1273   -1.5316   -4.1672 H   0  0  0  0  0  0  0  0  0  0  0  0
   -3.1545   -0.1509   -3.7568 H   0  0  0  0  0  0  0  0  0  0  0  0
   -1.8565    0.1727   -5.4101 N   0  3  0  0  0  0  0  0  0  0  0  0
   -0.9351   -0.0994   -5.7292 H   0  0  0  0  0  0  0  0  0  0  0  0
   -2.5339   -0.1250   -6.1011 H   0  0  0  0  0  0  0  0  0  0  0  0
   -1.8880    1.1836   -5.3465 H   0  0  0  0  0  0  0  0  0  0  0  0
   -1.3103    1.3348    1.2791 C   0  0  0  0  0  0  0  0  0  0  0  0
   -2.2333    1.9891    0.8084 O   0  0  0  0  0  0  0  0  0  0  0  0
   -0.4429    1.8293    2.1683 N   0  0  0  0  0  0  0  0  0  0  0  0
    0.2668    1.2118    2.5263 H   0  0  0  0  0  0  0  0  0  0  0  0
   -0.5118    3.1863    2.7135 C   0  0  0  0  0  0  0  0  0  0  0  0
   -1.4470    3.3159    3.2625 H   0  0  0  0  0  0  0  0  0  0  0  0
    0.3243    3.3682    3.3896 H   0  0  0  0  0  0  0  0  0  0  0  0
   -0.4850    3.9172    1.9023 H   0  0  0  0  0  0  0  0  0  0  0  0
  5  6  2  0  0  0  0
  5  7  1  0  0  0  0
  2  3  1  0  0  0  0
  2  4  1  0  0  0  0
  2  5  1  0  0  0  0
  1  2  1  0  0  0  0
 27 28  2  0  0  0  0
 27 29  1  0  0  0  0
 23 24  1  0  0  0  0
 23 25  1  0  0  0  0
 23 26  1  0  0  0  0
 20 21  1  0  0  0  0
 20 22  1  0  0  0  0
 20 23  1  0  0  0  0
 17 18  1  0  0  0  0
 17 19  1  0  0  0  0
 17 20  1  0  0  0  0
 14 15  1  0  0  0  0
 14 16  1  0  0  0  0
 14 17  1  0  0  0  0
 11 12  1  0  0  0  0
 11 13  1  0  0  0  0
 11 14  1  0  0  0  0
  9 10  1  0  0  0  0
  9 11  1  0  0  0  0
  9 27  1  0  0  0  0
  7  8  1  0  0  0  0
  7  9  1  0  0  0  0
 31 32  1  0  0  0  0
 31 33  1  0  0  0  0
 31 34  1  0  0  0  0
 29 30  1  0  0  0  0
 29 31  1  0  0  0  0
M  CHG  1  23   1
M  END
$$$$
default_name
  -OEChem-02102213163D

 34 33  0     1  0  0  0  0  0999 V2000
   -3.8899   -3.6747    1.6490 H   0  0  0  0  0  0  0  0  0  0  0  0
   -3.9109   -2.6717    1.2250 C   0  0  0  0  0  0  0  0  0  0  0  0
   -4.6009   -2.0517    1.7950 H   0  0  0  0  0  0  0  0  0  0  0  0
   -4.2309   -2.7237    0.1860 H   0  0  0  0  0  0  0  0  0  0  0  0
   -2.5229   -2.0787    1.2980 C   0  0  0  0  0  0  0  0  0  0  0  0
   -1.5999   -2.7227    1.7810 O   0  0  0  0  0  0  0  0  0  0  0  0
   -2.3659   -0.8447    0.8120 N   0  0  0  0  0  0  0  0  0  0  0  0
   -3.1749   -0.3807    0.4220 H   0  0  0  0  0  0  0  0  0  0  0  0
   -1.0919   -0.1077    0.8170 C   0  0  1  0  0  0  0  0  0  0  0  0
   -0.4136   -0.6011    1.5155 H   0  0  0  0  0  0  0  0  0  0  0  0
   -0.4834   -0.1723   -0.5965 C   0  0  0  0  0  0  0  0  0  0  0  0
   -0.1239    0.8220   -0.8659 H   0  0  0  0  0  0  0  0  0  0  0  0
    0.3708   -0.8522   -0.5886 H   0  0  0  0  0  0  0  0  0  0  0  0
   -1.4848   -0.6304   -1.6677 C   0  0  0  0  0  0  0  0  0  0  0  0
   -1.6532   -1.7044   -1.5779 H   0  0  0  0  0  0  0  0  0  0  0  0
   -2.4320   -0.1076   -1.5214 H   0  0  0  0  0  0  0  0  0  0  0  0
   -0.9453   -0.3211   -3.0710 C   0  0  0  0  0  0  0  0  0  0  0  0
   -0.7635    0.7532   -3.1528 H   0  0  0  0  0  0  0  0  0  0  0  0
   -0.0031   -0.8535   -3.2157 H   0  0  0  0  0  0  0  0  0  0  0  0
   -1.9550   -0.7553   -4.1408 C   0  0  0  0  0  0  0  0  0  0  0  0
   -2.1291   -1.8313   -4.0373 H   0  0  0  0  0  0  0  0  0  0  0  0
   -2.9032   -0.2428   -3.9524 H   0  0  0  0  0  0  0  0  0  0  0  0
   -1.4681   -0.4455   -5.5088 N   0  3  0  0  0  0  0  0  0  0  0  0
   -0.5960   -0.9255   -5.6930 H   0  0  0  0  0  0  0  0  0  0  0  0
   -2.1453   -0.7376   -6.2024 H   0  0  0  0  0  0  0  0  0  0  0  0
   -1.3138    0.5506   -5.6126 H   0  0  0  0  0  0  0  0  0  0  0  0
   -1.3103    1.3348    1.2791 C   0  0  0  0  0  0  0  0  0  0  0  0
   -2.2333    1.9891    0.8084 O   0  0  0  0  0  0  0  0  0  0  0  0
   -0.4429    1.8293    2.1683 N   0  0  0  0  0  0  0  0  0  0  0  0
    0.2668    1.2118    2.5263 H   0  0  0  0  0  0  0  0  0  0  0  0
   -0.5118    3.1863    2.7135 C   0  0  0  0  0  0  0  0  0  0  0  0
   -1.4470    3.3159    3.2625 H   0  0  0  0  0  0  0  0  0  0  0  0
    0.3243    3.3682    3.3896 H   0  0  0  0  0  0  0  0  0  0  0  0
   -0.4850    3.9172    1.9023 H   0  0  0  0  0  0  0  0  0  0  0  0
  5  6  2  0  0  0  0
  5  7  1  0  0  0  0
  2  3  1  0  0  0  0
  2  4  1  0  0  0  0
  2  5  1  0  0  0  0
  1  2  1  0  0  0  0
 27 28  2  0  0  0  0
 27 29  1  0  0  0  0
 23 24  1  0  0  0  0
 23 25  1  0  0  0  0
 23 26  1  0  0  0  0
 20 21  1  0  0  0  0
 20 22  1  0  0  0  0
 20 23  1  0  0  0  0
 17 18  1  0  0  0  0
 17 19  1  0  0  0  0
 17 20  1  0  0  0  0
 14 15  1  0  0  0  0
 14 16  1  0  0  0  0
 14 17  1  0  0  0  0
 11 12  1  0  0  0  0
 11 13  1  0  0  0  0
 11 14  1  0  0  0  0
  9 10  1  0  0  0  0
  9 11  1  0  0  0  0
  9 27  1  0  0  0  0
  7  8  1  0  0  0  0
  7  9  1  0  0  0  0
 31 32  1  0  0  0  0
 31 33  1  0  0  0  0
 31 34  1  0  0  0  0
 29 30  1  0  0  0  0
 29 31  1  0  0  0  0
M  CHG  1  23   1
M  END
$$$$
default_name
  -OEChem-02102213163D

 34 33  0     1  0  0  0  0  0999 V2000
   -3.8899   -3.6747    1.6490 H   0  0  0  0  0  0  0  0  0  0  0  0
   -3.9109   -2.6717    1.2250 C   0  0  0  0  0  0  0  0  0  0  0  0
   -4.6009   -2.0517    1.7950 H   0  0  0  0  0  0  0  0  0  0  0  0
   -4.2309   -2.7237    0.1860 H   0  0  0  0  0  0  0  0  0  0  0  0
   -2.5229   -2.0787    1.2980 C   0  0  0  0  0  0  0  0  0  0  0  0
   -1.5999   -2.7227    1.7810 O   0  0  0  0  0  0  0  0  0  0  0  0
   -2.3659   -0.8447    0.8120 N   0  0  0  0  0  0  0  0  0  0  0  0
   -3.1749   -0.3807    0.4220 H   0  0  0  0  0  0  0  0  0  0  0  0
   -1.0919   -0.1077    0.8170 C   0  0  1  0  0  0  0  0  0  0  0  0
   -0.4136   -0.6011    1.5155 H   0  0  0  0  0  0  0  0  0  0  0  0
   -0.4834   -0.1723   -0.5965 C   0  0  0  0  0  0  0  0  0  0  0  0
    0.1077    0.7298   -0.7620 H   0  0  0  0  0  0  0  0  0  0  0  0
    0.1850   -1.0333   -0.6603 H   0  0  0  0  0  0  0  0  0  0  0  0
   -1.5397   -0.2683   -1.7079 C   0  0  0  0  0  0  0  0  0  0  0  0
   -2.1422   -1.1664   -1.5656 H   0  0  0  0  0  0  0  0  0  0  0  0
   -2.1896    0.6078   -1.6628 H   0  0  0  0  0  0  0  0  0  0  0  0
   -0.8633   -0.3288   -3.0845 C   0  0  0  0  0  0  0  0  0  0  0  0
   -0.2489    0.5648   -3.2178 H   0  0  0  0  0  0  0  0  0  0  0  0
   -0.2220   -1.2113   -3.1277 H   0  0  0  0  0  0  0  0  0  0  0  0
   -1.9173   -0.3996   -4.1965 C   0  0  0  0  0  0  0  0  0  0  0  0
   -2.5264   -1.2960   -4.0408 H   0  0  0  0  0  0  0  0  0  0  0  0
   -2.5741    0.4712   -4.1090 H   0  0  0  0  0  0  0  0  0  0  0  0
   -1.2900   -0.4350   -5.5418 N   0  3  0  0  0  0  0  0  0  0  0  0
   -0.6890   -1.2446   -5.6325 H   0  0  0  0  0  0  0  0  0  0  0  0
   -1.9982   -0.4812   -6.2637 H   0  0  0  0  0  0  0  0  0  0  0  0
   -0.7320    0.3970   -5.6943 H   0  0  0  0  0  0  0  0  0  0  0  0
   -1.3103    1.3348    1.2791 C   0  0  0  0  0  0  0  0  0  0  0  0
   -2.2333    1.9891    0.8084 O   0  0  0  0  0  0  0  0  0  0  0  0
   -0.4429    1.8293    2.1683 N   0  0  0  0  0  0  0  0  0  0  0  0
    0.2668    1.2118    2.5263 H   0  0  0  0  0  0  0  0  0  0  0  0
   -0.5118    3.1863    2.7135 C   0  0  0  0  0  0  0  0  0  0  0  0
   -1.4470    3.3159    3.2625 H   0  0  0  0  0  0  0  0  0  0  0  0
    0.3243    3.3682    3.3896 H   0  0  0  0  0  0  0  0  0  0  0  0
   -0.4850    3.9172    1.9023 H   0  0  0  0  0  0  0  0  0  0  0  0
  5  6  2  0  0  0  0
  5  7  1  0  0  0  0
  2  3  1  0  0  0  0
  2  4  1  0  0  0  0
  2  5  1  0  0  0  0
  1  2  1  0  0  0  0
 27 28  2  0  0  0  0
 27 29  1  0  0  0  0
 23 24  1  0  0  0  0
 23 25  1  0  0  0  0
 23 26  1  0  0  0  0
 20 21  1  0  0  0  0
 20 22  1  0  0  0  0
 20 23  1  0  0  0  0
 17 18  1  0  0  0  0
 17 19  1  0  0  0  0
 17 20  1  0  0  0  0
 14 15  1  0  0  0  0
 14 16  1  0  0  0  0
 14 17  1  0  0  0  0
 11 12  1  0  0  0  0
 11 13  1  0  0  0  0
 11 14  1  0  0  0  0
  9 10  1  0  0  0  0
  9 11  1  0  0  0  0
  9 27  1  0  0  0  0
  7  8  1  0  0  0  0
  7  9  1  0  0  0  0
 31 32  1  0  0  0  0
 31 33  1  0  0  0  0
 31 34  1  0  0  0  0
 29 30  1  0  0  0  0
 29 31  1  0  0  0  0
M  CHG  1  23   1
M  END
$$$$
default_name
  -OEChem-02102213163D

 34 33  0     1  0  0  0  0  0999 V2000
   -3.8899   -3.6747    1.6490 H   0  0  0  0  0  0  0  0  0  0  0  0
   -3.9109   -2.6717    1.2250 C   0  0  0  0  0  0  0  0  0  0  0  0
   -4.6009   -2.0517    1.7950 H   0  0  0  0  0  0  0  0  0  0  0  0
   -4.2309   -2.7237    0.1860 H   0  0  0  0  0  0  0  0  0  0  0  0
   -2.5229   -2.0787    1.2980 C   0  0  0  0  0  0  0  0  0  0  0  0
   -1.5999   -2.7227    1.7810 O   0  0  0  0  0  0  0  0  0  0  0  0
   -2.3659   -0.8447    0.8120 N   0  0  0  0  0  0  0  0  0  0  0  0
   -3.1749   -0.3807    0.4220 H   0  0  0  0  0  0  0  0  0  0  0  0
   -1.0919   -0.1077    0.8170 C   0  0  1  0  0  0  0  0  0  0  0  0
   -0.4136   -0.6011    1.5155 H   0  0  0  0  0  0  0  0  0  0  0  0
   -0.4834   -0.1723   -0.5965 C   0  0  0  0  0  0  0  0  0  0  0  0
    0.1077    0.7298   -0.7620 H   0  0  0  0  0  0  0  0  0  0  0  0
    0.1850   -1.0333   -0.6603 H   0  0  0  0  0  0  0  0  0  0  0  0
   -1.5397   -0.2683   -1.7079 C   0  0  0  0  0  0  0  0  0  0  0  0
   -2.3008   -0.9984   -1.4294 H   0  0  0  0  0  0  0  0  0  0  0  0
   -2.0125    0.7069   -1.8396 H   0  0  0  0  0  0  0  0  0  0  0  0
   -0.8880   -0.6994   -3.0291 C   0  0  0  0  0  0  0  0  0  0  0  0
   -0.1160    0.0257   -3.2975 H   0  0  0  0  0  0  0  0  0  0  0  0
   -0.4248   -1.6790   -2.8946 H   0  0  0  0  0  0  0  0  0  0  0  0
   -1.9373   -0.7716   -4.1455 C   0  0  0  0  0  0  0  0  0  0  0  0
   -2.7044   -1.4965   -3.8543 H   0  0  0  0  0  0  0  0  0  0  0  0
   -2.4178    0.2073   -4.2347 H   0  0  0  0  0  0  0  0  0  0  0  0
   -1.3289   -1.1639   -5.4418 N   0  3  0  0  0  0  0  0  0  0  0  0
   -0.8916   -2.0739   -5.3684 H   0  0  0  0  0  0  0  0  0  0  0  0
   -2.0338   -1.2066   -6.1673 H   0  0  0  0  0  0  0  0  0  0  0  0
   -0.6241   -0.4911   -5.7202 H   0  0  0  0  0  0  0  0  0  0  0  0
   -1.3103    1.3348    1.2791 C   0  0  0  0  0  0  0  0  0  0  0  0
   -2.2333    1.9891    0.8084 O   0  0  0  0  0  0  0  0  0  0  0  0
   -0.4429    1.8293    2.1683 N   0  0  0  0  0  0  0  0  0  0  0  0
    0.2668    1.2118    2.5263 H   0  0  0  0  0  0  0  0  0  0  0  0
   -0.5118    3.1863    2.7135 C   0  0  0  0  0  0  0  0  0  0  0  0
   -1.4470    3.3159    3.2625 H   0  0  0  0  0  0  0  0  0  0  0  0
    0.3243    3.3682    3.3896 H   0  0  0  0  0  0  0  0  0  0  0  0
   -0.4850    3.9172    1.9023 H   0  0  0  0  0  0  0  0  0  0  0  0
  5  6  2  0  0  0  0
  5  7  1  0  0  0  0
  2  3  1  0  0  0  0
  2  4  1  0  0  0  0
  2  5  1  0  0  0  0
  1  2  1  0  0  0  0
 27 28  2  0  0  0  0
 27 29  1  0  0  0  0
 23 24  1  0  0  0  0
 23 25  1  0  0  0  0
 23 26  1  0  0  0  0
 20 21  1  0  0  0  0
 20 22  1  0  0  0  0
 20 23  1  0  0  0  0
 17 18  1  0  0  0  0
 17 19  1  0  0  0  0
 17 20  1  0  0  0  0
 14 15  1  0  0  0  0
 14 16  1  0  0  0  0
 14 17  1  0  0  0  0
 11 12  1  0  0  0  0
 11 13  1  0  0  0  0
 11 14  1  0  0  0  0
  9 10  1  0  0  0  0
  9 11  1  0  0  0  0
  9 27  1  0  0  0  0
  7  8  1  0  0  0  0
  7  9  1  0  0  0  0
 31 32  1  0  0  0  0
 31 33  1  0  0  0  0
 31 34  1  0  0  0  0
 29 30  1  0  0  0  0
 29 31  1  0  0  0  0
M  CHG  1  23   1
M  END
$$$$
default_name
  -OEChem-02102213163D

 34 33  0     1  0  0  0  0  0999 V2000
   -3.8899   -3.6747    1.6490 H   0  0  0  0  0  0  0  0  0  0  0  0
   -3.9109   -2.6717    1.2250 C   0  0  0  0  0  0  0  0  0  0  0  0
   -4.6009   -2.0517    1.7950 H   0  0  0  0  0  0  0  0  0  0  0  0
   -4.2309   -2.7237    0.1860 H   0  0  0  0  0  0  0  0  0  0  0  0
   -2.5229   -2.0787    1.2980 C   0  0  0  0  0  0  0  0  0  0  0  0
   -1.5999   -2.7227    1.7810 O   0  0  0  0  0  0  0  0  0  0  0  0
   -2.3659   -0.8447    0.8120 N   0  0  0  0  0  0  0  0  0  0  0  0
   -3.1749   -0.3807    0.4220 H   0  0  0  0  0  0  0  0  0  0  0  0
   -1.0919   -0.1077    0.8170 C   0  0  1  0  0  0  0  0  0  0  0  0
   -0.4136   -0.6011    1.5155 H   0  0  0  0  0  0  0  0  0  0  0  0
   -0.4834   -0.1723   -0.5965 C   0  0  0  0  0  0  0  0  0  0  0  0
    0.1077    0.7298   -0.7620 H   0  0  0  0  0  0  0  0  0  0  0  0
    0.1850   -1.0333   -0.6603 H   0  0  0  0  0  0  0  0  0  0  0  0
   -1.5397   -0.2683   -1.7079 C   0  0  0  0  0  0  0  0  0  0  0  0
   -2.4247   -0.7823   -1.3303 H   0  0  0  0  0  0  0  0  0  0  0  0
   -1.8201    0.7380   -2.0252 H   0  0  0  0  0  0  0  0  0  0  0  0
   -0.9821   -1.0430   -2.9100 C   0  0  0  0  0  0  0  0  0  0  0  0
   -0.0874   -0.5341   -3.2765 H   0  0  0  0  0  0  0  0  0  0  0  0
   -0.7119   -2.0512   -2.5895 H   0  0  0  0  0  0  0  0  0  0  0  0
   -2.0270   -1.1182   -4.0302 C   0  0  0  0  0  0  0  0  0  0  0  0
   -2.9169   -1.6237   -3.6413 H   0  0  0  0  0  0  0  0  0  0  0  0
   -2.3143   -0.0993   -4.3066 H   0  0  0  0  0  0  0  0  0  0  0  0
   -1.5046   -1.8428   -5.2162 N   0  3  0  0  0  0  0  0  0  0  0  0
   -1.2468   -2.7901   -4.9689 H   0  0  0  0  0  0  0  0  0  0  0  0
   -2.2054   -1.8834   -5.9457 H   0  0  0  0  0  0  0  0  0  0  0  0
   -0.6857   -1.3738   -5.5854 H   0  0  0  0  0  0  0  0  0  0  0  0
   -1.3103    1.3348    1.2791 C   0  0  0  0  0  0  0  0  0  0  0  0
   -2.2333    1.9891    0.8084 O   0  0  0  0  0  0  0  0  0  0  0  0
   -0.4429    1.8293    2.1683 N   0  0  0  0  0  0  0  0  0  0  0  0
    0.2668    1.2118    2.5263 H   0  0  0  0  0  0  0  0  0  0  0  0
   -0.5118    3.1863    2.7135 C   0  0  0  0  0  0  0  0  0  0  0  0
   -1.4470    3.3159    3.2625 H   0  0  0  0  0  0  0  0  0  0  0  0
    0.3243    3.3682    3.3896 H   0  0  0  0  0  0  0  0  0  0  0  0
   -0.4850    3.9172    1.9023 H   0  0  0  0  0  0  0  0  0  0  0  0
  5  6  2  0  0  0  0
  5  7  1  0  0  0  0
  2  3  1  0  0  0  0
  2  4  1  0  0  0  0
  2  5  1  0  0  0  0
  1  2  1  0  0  0  0
 27 28  2  0  0  0  0
 27 29  1  0  0  0  0
 23 24  1  0  0  0  0
 23 25  1  0  0  0  0
 23 26  1  0  0  0  0
 20 21  1  0  0  0  0
 20 22  1  0  0  0  0
 20 23  1  0  0  0  0
 17 18  1  0  0  0  0
 17 19  1  0  0  0  0
 17 20  1  0  0  0  0
 14 15  1  0  0  0  0
 14 16  1  0  0  0  0
 14 17  1  0  0  0  0
 11 12  1  0  0  0  0
 11 13  1  0  0  0  0
 11 14  1  0  0  0  0
  9 10  1  0  0  0  0
  9 11  1  0  0  0  0
  9 27  1  0  0  0  0
  7  8  1  0  0  0  0
  7  9  1  0  0  0  0
 31 32  1  0  0  0  0
 31 33  1  0  0  0  0
 31 34  1  0  0  0  0
 29 30  1  0  0  0  0
 29 31  1  0  0  0  0
M  CHG  1  23   1
M  END
$$$$
default_name
  -OEChem-02102213163D

 34 33  0     1  0  0  0  0  0999 V2000
   -3.8899   -3.6747    1.6490 H   0  0  0  0  0  0  0  0  0  0  0  0
   -3.9109   -2.6717    1.2250 C   0  0  0  0  0  0  0  0  0  0  0  0
   -4.6009   -2.0517    1.7950 H   0  0  0  0  0  0  0  0  0  0  0  0
   -4.2309   -2.7237    0.1860 H   0  0  0  0  0  0  0  0  0  0  0  0
   -2.5229   -2.0787    1.2980 C   0  0  0  0  0  0  0  0  0  0  0  0
   -1.5999   -2.7227    1.7810 O   0  0  0  0  0  0  0  0  0  0  0  0
   -2.3659   -0.8447    0.8120 N   0  0  0  0  0  0  0  0  0  0  0  0
   -3.1749   -0.3807    0.4220 H   0  0  0  0  0  0  0  0  0  0  0  0
   -1.0919   -0.1077    0.8170 C   0  0  1  0  0  0  0  0  0  0  0  0
   -0.4136   -0.6011    1.5155 H   0  0  0  0  0  0  0  0  0  0  0  0
   -0.4834   -0.1723   -0.5965 C   0  0  0  0  0  0  0  0  0  0  0  0
    0.1077    0.7298   -0.7620 H   0  0  0  0  0  0  0  0  0  0  0  0
    0.1850   -1.0333   -0.6603 H   0  0  0  0  0  0  0  0  0  0  0  0
   -1.5397   -0.2683   -1.7079 C   0  0  0  0  0  0  0  0  0  0  0  0
   -2.5055   -0.5326   -1.2751 H   0  0  0  0  0  0  0  0  0  0  0  0
   -1.6254    0.6990   -2.2068 H   0  0  0  0  0  0  0  0  0  0  0  0
   -1.1392   -1.3361   -2.7353 C   0  0  0  0  0  0  0  0  0  0  0  0
   -0.1648   -1.0764   -3.1560 H   0  0  0  0  0  0  0  0  0  0  0  0
   -1.0639   -2.3027   -2.2333 H   0  0  0  0  0  0  0  0  0  0  0  0
   -2.1805   -1.4157   -3.8587 C   0  0  0  0  0  0  0  0  0  0  0  0
   -3.1495   -1.6689   -3.4164 H   0  0  0  0  0  0  0  0  0  0  0  0
   -2.2705   -0.4275   -4.3199 H   0  0  0  0  0  0  0  0  0  0  0  0
   -1.8051   -2.4256   -4.8803 N   0  3  0  0  0  0  0  0  0  0  0  0
   -1.7305   -3.3442   -4.4614 H   0  0  0  0  0  0  0  0  0  0  0  0
   -2.5015   -2.4656   -5.6140 H   0  0  0  0  0  0  0  0  0  0  0  0
   -0.9127   -2.1910   -5.2991 H   0  0  0  0  0  0  0  0  0  0  0  0
   -1.3103    1.3348    1.2791 C   0  0  0  0  0  0  0  0  0  0  0  0
   -2.2333    1.9891    0.8084 O   0  0  0  0  0  0  0  0  0  0  0  0
   -0.4429    1.8293    2.1683 N   0  0  0  0  0  0  0  0  0  0  0  0
    0.2668    1.2118    2.5263 H   0  0  0  0  0  0  0  0  0  0  0  0
   -0.5118    3.1863    2.7135 C   0  0  0  0  0  0  0  0  0  0  0  0
   -1.4470    3.3159    3.2625 H   0  0  0  0  0  0  0  0  0  0  0  0
    0.3243    3.3682    3.3896 H   0  0  0  0  0  0  0  0  0  0  0  0
   -0.4850    3.9172    1.9023 H   0  0  0  0  0  0  0  0  0  0  0  0
  5  6  2  0  0  0  0
  5  7  1  0  0  0  0
  2  3  1  0  0  0  0
  2  4  1  0  0  0  0
  2  5  1  0  0  0  0
  1  2  1  0  0  0  0
 27 28  2  0  0  0  0
 27 29  1  0  0  0  0
 23 24  1  0  0  0  0
 23 25  1  0  0  0  0
 23 26  1  0  0  0  0
 20 21  1  0  0  0  0
 20 22  1  0  0  0  0
 20 23  1  0  0  0  0
 17 18  1  0  0  0  0
 17 19  1  0  0  0  0
 17 20  1  0  0  0  0
 14 15  1  0  0  0  0
 14 16  1  0  0  0  0
 14 17  1  0  0  0  0
 11 12  1  0  0  0  0
 11 13  1  0  0  0  0
 11 14  1  0  0  0  0
  9 10  1  0  0  0  0
  9 11  1  0  0  0  0
  9 27  1  0  0  0  0
  7  8  1  0  0  0  0
  7  9  1  0  0  0  0
 31 32  1  0  0  0  0
 31 33  1  0  0  0  0
 31 34  1  0  0  0  0
 29 30  1  0  0  0  0
 29 31  1  0  0  0  0
M  CHG  1  23   1
M  END
$$$$
default_name
  -OEChem-02102213163D

 34 33  0     1  0  0  0  0  0999 V2000
   -3.8899   -3.6747    1.6490 H   0  0  0  0  0  0  0  0  0  0  0  0
   -3.9109   -2.6717    1.2250 C   0  0  0  0  0  0  0  0  0  0  0  0
   -4.6009   -2.0517    1.7950 H   0  0  0  0  0  0  0  0  0  0  0  0
   -4.2309   -2.7237    0.1860 H   0  0  0  0  0  0  0  0  0  0  0  0
   -2.5229   -2.0787    1.2980 C   0  0  0  0  0  0  0  0  0  0  0  0
   -1.5999   -2.7227    1.7810 O   0  0  0  0  0  0  0  0  0  0  0  0
   -2.3659   -0.8447    0.8120 N   0  0  0  0  0  0  0  0  0  0  0  0
   -3.1749   -0.3807    0.4220 H   0  0  0  0  0  0  0  0  0  0  0  0
   -1.0919   -0.1077    0.8170 C   0  0  1  0  0  0  0  0  0  0  0  0
   -0.4136   -0.6011    1.5155 H   0  0  0  0  0  0  0  0  0  0  0  0
   -0.4834   -0.1723   -0.5965 C   0  0  0  0  0  0  0  0  0  0  0  0
    0.1077    0.7298   -0.7620 H   0  0  0  0  0  0  0  0  0  0  0  0
    0.1850   -1.0333   -0.6603 H   0  0  0  0  0  0  0  0  0  0  0  0
   -1.5397   -0.2683   -1.7079 C   0  0  0  0  0  0  0  0  0  0  0  0
   -2.5376   -0.2666   -1.2675 H   0  0  0  0  0  0  0  0  0  0  0  0
   -1.4418    0.5926   -2.3722 H   0  0  0  0  0  0  0  0  0  0  0  0
   -1.3487   -1.5586   -2.5170 C   0  0  0  0  0  0  0  0  0  0  0  0
   -0.3432   -1.5643   -2.9444 H   0  0  0  0  0  0  0  0  0  0  0  0
   -1.4568   -2.4164   -1.8501 H   0  0  0  0  0  0  0  0  0  0  0  0
   -2.3871   -1.6438   -3.6426 C   0  0  0  0  0  0  0  0  0  0  0  0
   -3.3862   -1.6290   -3.1949 H   0  0  0  0  0  0  0  0  0  0  0  0
   -2.2895   -0.7552   -4.2736 H   0  0  0  0  0  0  0  0  0  0  0  0
   -2.2099   -2.8725   -4.4570 N   0  3  0  0  0  0  0  0  0  0  0  0
   -2.3097   -3.6986   -3.8804 H   0  0  0  0  0  0  0  0  0  0  0  0
   -2.9019   -2.9134   -5.1948 H   0  0  0  0  0  0  0  0  0  0  0  0
   -1.2896   -2.8868   -4.8808 H   0  0  0  0  0  0  0  0  0  0  0  0
   -1.3103    1.3348    1.2791 C   0  0  0  0  0  0  0  0  0  0  0  0
   -2.2333    1.9891    0.8084 O   0  0  0  0  0  0  0  0  0  0  0  0
   -0.4429    1.8293    2.1683 N   0  0  0  0  0  0  0  0  0  0  0  0
    0.2668    1.2118    2.5263 H   0  0  0  0  0  0  0  0  0  0  0  0
   -0.5118    3.1863    2.7135 C   0  0  0  0  0  0  0  0  0  0  0  0
   -1.4470    3.3159    3.2625 H   0  0  0  0  0  0  0  0  0  0  0  0
    0.3243    3.3682    3.3896 H   0  0  0  0  0  0  0  0  0  0  0  0
   -0.4850    3.9172    1.9023 H   0  0  0  0  0  0  0  0  0  0  0  0
  5  6  2  0  0  0  0
  5  7  1  0  0  0  0
  2  3  1  0  0  0  0
  2  4  1  0  0  0  0
  2  5  1  0  0  0  0
  1  2  1  0  0  0  0
 27 28  2  0  0  0  0
 27 29  1  0  0  0  0
 23 24  1  0  0  0  0
 23 25  1  0  0  0  0
 23 26  1  0  0  0  0
 20 21  1  0  0  0  0
 20 22  1  0  0  0  0
 20 23  1  0  0  0  0
 17 18  1  0  0  0  0
 17 19  1  0  0  0  0
 17 20  1  0  0  0  0
 14 15  1  0  0  0  0
 14 16  1  0  0  0  0
 14 17  1  0  0  0  0
 11 12  1  0  0  0  0
 11 13  1  0  0  0  0
 11 14  1  0  0  0  0
  9 10  1  0  0  0  0
  9 11  1  0  0  0  0
  9 27  1  0  0  0  0
  7  8  1  0  0  0  0
  7  9  1  0  0  0  0
 31 32  1  0  0  0  0
 31 33  1  0  0  0  0
 31 34  1  0  0  0  0
 29 30  1  0  0  0  0
 29 31  1  0  0  0  0
M  CHG  1  23   1
M  END
$$$$
default_name
  -OEChem-02102213163D

 34 33  0     1  0  0  0  0  0999 V2000
   -3.8899   -3.6747    1.6490 H   0  0  0  0  0  0  0  0  0  0  0  0
   -3.9109   -2.6717    1.2250 C   0  0  0  0  0  0  0  0  0  0  0  0
   -4.6009   -2.0517    1.7950 H   0  0  0  0  0  0  0  0  0  0  0  0
   -4.2309   -2.7237    0.1860 H   0  0  0  0  0  0  0  0  0  0  0  0
   -2.5229   -2.0787    1.2980 C   0  0  0  0  0  0  0  0  0  0  0  0
   -1.5999   -2.7227    1.7810 O   0  0  0  0  0  0  0  0  0  0  0  0
   -2.3659   -0.8447    0.8120 N   0  0  0  0  0  0  0  0  0  0  0  0
   -3.1749   -0.3807    0.4220 H   0  0  0  0  0  0  0  0  0  0  0  0
   -1.0919   -0.1077    0.8170 C   0  0  1  0  0  0  0  0  0  0  0  0
   -0.4136   -0.6011    1.5155 H   0  0  0  0  0  0  0  0  0  0  0  0
   -0.4834   -0.1723   -0.5965 C   0  0  0  0  0  0  0  0  0  0  0  0
    0.1077    0.7298   -0.7620 H   0  0  0  0  0  0  0  0  0  0  0  0
    0.1850   -1.0333   -0.6603 H   0  0  0  0  0  0  0  0  0  0  0  0
   -1.5397   -0.2683   -1.7079 C   0  0  0  0  0  0  0  0  0  0  0  0
   -2.5190   -0.0022   -1.3080 H   0  0  0  0  0  0  0  0  0  0  0  0
   -1.2816    0.4259   -2.5100 H   0  0  0  0  0  0  0  0  0  0  0  0
   -1.5963   -1.6956   -2.2699 C   0  0  0  0  0  0  0  0  0  0  0  0
   -0.6102   -1.9645   -2.6560 H   0  0  0  0  0  0  0  0  0  0  0  0
   -1.8637   -2.3844   -1.4661 H   0  0  0  0  0  0  0  0  0  0  0  0
   -2.6330   -1.7869   -3.3966 C   0  0  0  0  0  0  0  0  0  0  0  0
   -3.6109   -1.5067   -2.9918 H   0  0  0  0  0  0  0  0  0  0  0  0
   -2.3699   -1.0599   -4.1708 H   0  0  0  0  0  0  0  0  0  0  0  0
   -2.6915   -3.1531   -3.9751 N   0  3  0  0  0  0  0  0  0  0  0  0
   -2.9448   -3.8291   -3.2654 H   0  0  0  0  0  0  0  0  0  0  0  0
   -3.3793   -3.1965   -4.7166 H   0  0  0  0  0  0  0  0  0  0  0  0
   -1.7907   -3.4139   -4.3591 H   0  0  0  0  0  0  0  0  0  0  0  0
   -1.3103    1.3348    1.2791 C   0  0  0  0  0  0  0  0  0  0  0  0
   -2.2333    1.9891    0.8084 O   0  0  0  0  0  0  0  0  0  0  0  0
   -0.4429    1.8293    2.1683 N   0  0  0  0  0  0  0  0  0  0  0  0
    0.2668    1.2118    2.5263 H   0  0  0  0  0  0  0  0  0  0  0  0
   -0.5118    3.1863    2.7135 C   0  0  0  0  0  0  0  0  0  0  0  0
   -1.4470    3.3159    3.2625 H   0  0  0  0  0  0  0  0  0  0  0  0
    0.3243    3.3682    3.3896 H   0  0  0  0  0  0  0  0  0  0  0  0
   -0.4850    3.9172    1.9023 H   0  0  0  0  0  0  0  0  0  0  0  0
  5  6  2  0  0  0  0
  5  7  1  0  0  0  0
  2  3  1  0  0  0  0
  2  4  1  0  0  0  0
  2  5  1  0  0  0  0
  1  2  1  0  0  0  0
 27 28  2  0  0  0  0
 27 29  1  0  0  0  0
 23 24  1  0  0  0  0
 23 25  1  0  0  0  0
 23 26  1  0  0  0  0
 20 21  1  0  0  0  0
 20 22  1  0  0  0  0
 20 23  1  0  0  0  0
 17 18  1  0  0  0  0
 17 19  1  0  0  0  0
 17 20  1  0  0  0  0
 14 15  1  0  0  0  0
 14 16  1  0  0  0  0
 14 17  1  0  0  0  0
 11 12  1  0  0  0  0
 11 13  1  0  0  0  0
 11 14  1  0  0  0  0
  9 10  1  0  0  0  0
  9 11  1  0  0  0  0
  9 27  1  0  0  0  0
  7  8  1  0  0  0  0
  7  9  1  0  0  0  0
 31 32  1  0  0  0  0
 31 33  1  0  0  0  0
 31 34  1  0  0  0  0
 29 30  1  0  0  0  0
 29 31  1  0  0  0  0
M  CHG  1  23   1
M  END
$$$$
default_name
  -OEChem-02102213163D

 34 33  0     1  0  0  0  0  0999 V2000
   -3.8899   -3.6747    1.6490 H   0  0  0  0  0  0  0  0  0  0  0  0
   -3.9109   -2.6717    1.2250 C   0  0  0  0  0  0  0  0  0  0  0  0
   -4.6009   -2.0517    1.7950 H   0  0  0  0  0  0  0  0  0  0  0  0
   -4.2309   -2.7237    0.1860 H   0  0  0  0  0  0  0  0  0  0  0  0
   -2.5229   -2.0787    1.2980 C   0  0  0  0  0  0  0  0  0  0  0  0
   -1.5999   -2.7227    1.7810 O   0  0  0  0  0  0  0  0  0  0  0  0
   -2.3659   -0.8447    0.8120 N   0  0  0  0  0  0  0  0  0  0  0  0
   -3.1749   -0.3807    0.4220 H   0  0  0  0  0  0  0  0  0  0  0  0
   -1.0919   -0.1077    0.8170 C   0  0  1  0  0  0  0  0  0  0  0  0
   -0.4136   -0.6011    1.5155 H   0  0  0  0  0  0  0  0  0  0  0  0
   -0.4834   -0.1723   -0.5965 C   0  0  0  0  0  0  0  0  0  0  0  0
    0.1077    0.7298   -0.7620 H   0  0  0  0  0  0  0  0  0  0  0  0
    0.1850   -1.0333   -0.6603 H   0  0  0  0  0  0  0  0  0  0  0  0
   -1.5397   -0.2683   -1.7079 C   0  0  0  0  0  0  0  0  0  0  0  0
   -2.4509    0.2425   -1.3938 H   0  0  0  0  0  0  0  0  0  0  0  0
   -1.1559    0.2104   -2.6109 H   0  0  0  0  0  0  0  0  0  0  0  0
   -1.8650   -1.7375   -2.0108 C   0  0  0  0  0  0  0  0  0  0  0  0
   -0.9477   -2.2498   -2.3106 H   0  0  0  0  0  0  0  0  0  0  0  0
   -2.2570   -2.2089   -1.1074 H   0  0  0  0  0  0  0  0  0  0  0  0
   -2.9012   -1.8354   -3.1374 C   0  0  0  0  0  0  0  0  0  0  0  0
   -3.8084   -1.3103   -2.8211 H   0  0  0  0  0  0  0  0  0  0  0  0
   -2.5063   -1.3209   -4.0187 H   0  0  0  0  0  0  0  0  0  0  0  0
   -3.2169   -3.2481   -3.4675 N   0  3  0  0  0  0  0  0  0  0  0  0
   -3.5927   -3.7268   -2.6585 H   0  0  0  0  0  0  0  0  0  0  0  0
   -3.9012   -3.2954   -4.2121 H   0  0  0  0  0  0  0  0  0  0  0  0
   -2.3818   -3.7364   -3.7694 H   0  0  0  0  0  0  0  0  0  0  0  0
   -1.3103    1.3348    1.2791 C   0  0  0  0  0  0  0  0  0  0  0  0
   -2.2333    1.9891    0.8084 O   0  0  0  0  0  0  0  0  0  0  0  0
   -0.4429    1.8293    2.1683 N   0  0  0  0  0  0  0  0  0  0  0  0
    0.2668    1.2118    2.5263 H   0  0  0  0  0  0  0  0  0  0  0  0
   -0.5118    3.1863    2.7135 C   0  0  0  0  0  0  0  0  0  0  0  0
   -1.4470    3.3159    3.2625 H   0  0  0  0  0  0  0  0  0  0  0  0
    0.3243    3.3682    3.3896 H   0  0  0  0  0  0  0  0  0  0  0  0
   -0.4850    3.9172    1.9023 H   0  0  0  0  0  0  0  0  0  0  0  0
  5  6  2  0  0  0  0
  5  7  1  0  0  0  0
  2  3  1  0  0  0  0
  2  4  1  0  0  0  0
  2  5  1  0  0  0  0
  1  2  1  0  0  0  0
 27 28  2  0  0  0  0
 27 29  1  0  0  0  0
 23 24  1  0  0  0  0
 23 25  1  0  0  0  0
 23 26  1  0  0  0  0
 20 21  1  0  0  0  0
 20 22  1  0  0  0  0
 20 23  1  0  0  0  0
 17 18  1  0  0  0  0
 17 19  1  0  0  0  0
 17 20  1  0  0  0  0
 14 15  1  0  0  0  0
 14 16  1  0  0  0  0
 14 17  1  0  0  0  0
 11 12  1  0  0  0  0
 11 13  1  0  0  0  0
 11 14  1  0  0  0  0
  9 10  1  0  0  0  0
  9 11  1  0  0  0  0
  9 27  1  0  0  0  0
  7  8  1  0  0  0  0
  7  9  1  0  0  0  0
 31 32  1  0  0  0  0
 31 33  1  0  0  0  0
 31 34  1  0  0  0  0
 29 30  1  0  0  0  0
 29 31  1  0  0  0  0
M  CHG  1  23   1
M  END
$$$$
default_name
  -OEChem-02102213163D

 34 33  0     1  0  0  0  0  0999 V2000
   -3.8899   -3.6747    1.6490 H   0  0  0  0  0  0  0  0  0  0  0  0
   -3.9109   -2.6717    1.2250 C   0  0  0  0  0  0  0  0  0  0  0  0
   -4.6009   -2.0517    1.7950 H   0  0  0  0  0  0  0  0  0  0  0  0
   -4.2309   -2.7237    0.1860 H   0  0  0  0  0  0  0  0  0  0  0  0
   -2.5229   -2.0787    1.2980 C   0  0  0  0  0  0  0  0  0  0  0  0
   -1.5999   -2.7227    1.7810 O   0  0  0  0  0  0  0  0  0  0  0  0
   -2.3659   -0.8447    0.8120 N   0  0  0  0  0  0  0  0  0  0  0  0
   -3.1749   -0.3807    0.4220 H   0  0  0  0  0  0  0  0  0  0  0  0
   -1.0919   -0.1077    0.8170 C   0  0  1  0  0  0  0  0  0  0  0  0
   -0.4136   -0.6011    1.5155 H   0  0  0  0  0  0  0  0  0  0  0  0
   -0.4834   -0.1723   -0.5965 C   0  0  0  0  0  0  0  0  0  0  0  0
    0.1077    0.7298   -0.7620 H   0  0  0  0  0  0  0  0  0  0  0  0
    0.1850   -1.0333   -0.6603 H   0  0  0  0  0  0  0  0  0  0  0  0
   -1.5397   -0.2683   -1.7079 C   0  0  0  0  0  0  0  0  0  0  0  0
   -2.3379    0.4508   -1.5192 H   0  0  0  0  0  0  0  0  0  0  0  0
   -1.0731   -0.0392   -2.6680 H   0  0  0  0  0  0  0  0  0  0  0  0
   -2.1366   -1.6815   -1.7575 C   0  0  0  0  0  0  0  0  0  0  0  0
   -1.3327   -2.4007   -1.9317 H   0  0  0  0  0  0  0  0  0  0  0  0
   -2.6099   -1.9020   -0.7986 H   0  0  0  0  0  0  0  0  0  0  0  0
   -3.1736   -1.7858   -2.8828 C   0  0  0  0  0  0  0  0  0  0  0  0
   -3.9652   -1.0533   -2.6943 H   0  0  0  0  0  0  0  0  0  0  0  0
   -2.6894   -1.5204   -3.8274 H   0  0  0  0  0  0  0  0  0  0  0  0
   -3.7505   -3.1513   -2.9687 N   0  3  0  0  0  0  0  0  0  0  0  0
   -4.2092   -3.3986   -2.1009 H   0  0  0  0  0  0  0  0  0  0  0  0
   -4.4319   -3.2034   -3.7156 H   0  0  0  0  0  0  0  0  0  0  0  0
   -3.0227   -3.8322   -3.1520 H   0  0  0  0  0  0  0  0  0  0  0  0
   -1.3103    1.3348    1.2791 C   0  0  0  0  0  0  0  0  0  0  0  0
   -2.2333    1.9891    0.8084 O   0  0  0  0  0  0  0  0  0  0  0  0
   -0.4429    1.8293    2.1683 N   0  0  0  0  0  0  0  0  0  0  0  0
    0.2668    1.2118    2.5263 H   0  0  0  0  0  0  0  0  0  0  0  0
   -0.5118    3.1863    2.7135 C   0  0  0  0  0  0  0  0  0  0  0  0
   -1.4470    3.3159    3.2625 H   0  0  0  0  0  0  0  0  0  0  0  0
    0.3243    3.3682    3.3896 H   0  0  0  0  0  0  0  0  0  0  0  0
   -0.4850    3.9172    1.9023 H   0  0  0  0  0  0  0  0  0  0  0  0
  5  6  2  0  0  0  0
  5  7  1  0  0  0  0
  2  3  1  0  0  0  0
  2  4  1  0  0  0  0
  2  5  1  0  0  0  0
  1  2  1  0  0  0  0
 27 28  2  0  0  0  0
 27 29  1  0  0  0  0
 23 24  1  0  0  0  0
 23 25  1  0  0  0  0
 23 26  1  0  0  0  0
 20 21  1  0  0  0  0
 20 22  1  0  0  0  0
 20 23  1  0  0  0  0
 17 18  1  0  0  0  0
 17 19  1  0  0  0  0
 17 20  1  0  0  0  0
 14 15  1  0  0  0  0
 14 16  1  0  0  0  0
 14 17  1  0  0  0  0
 11 12  1  0  0  0  0
 11 13  1  0  0  0  0
 11 14  1  0  0  0  0
  9 10  1  0  0  0  0
  9 11  1  0  0  0  0
  9 27  1  0  0  0  0
  7  8  1  0  0  0  0
  7  9  1  0  0  0  0
 31 32  1  0  0  0  0
 31 33  1  0  0  0  0
 31 34  1  0  0  0  0
 29 30  1  0  0  0  0
 29 31  1  0  0  0  0
M  CHG  1  23   1
M  END
$$$$
default_name
  -OEChem-02102213163D

 34 33  0     1  0  0  0  0  0999 V2000
   -3.8899   -3.6747    1.6490 H   0  0  0  0  0  0  0  0  0  0  0  0
   -3.9109   -2.6717    1.2250 C   0  0  0  0  0  0  0  0  0  0  0  0
   -4.6009   -2.0517    1.7950 H   0  0  0  0  0  0  0  0  0  0  0  0
   -4.2309   -2.7237    0.1860 H   0  0  0  0  0  0  0  0  0  0  0  0
   -2.5229   -2.0787    1.2980 C   0  0  0  0  0  0  0  0  0  0  0  0
   -1.5999   -2.7227    1.7810 O   0  0  0  0  0  0  0  0  0  0  0  0
   -2.3659   -0.8447    0.8120 N   0  0  0  0  0  0  0  0  0  0  0  0
   -3.1749   -0.3807    0.4220 H   0  0  0  0  0  0  0  0  0  0  0  0
   -1.0919   -0.1077    0.8170 C   0  0  1  0  0  0  0  0  0  0  0  0
   -0.4136   -0.6011    1.5155 H   0  0  0  0  0  0  0  0  0  0  0  0
   -0.4834   -0.1723   -0.5965 C   0  0  0  0  0  0  0  0  0  0  0  0
    0.1077    0.7298   -0.7620 H   0  0  0  0  0  0  0  0  0  0  0  0
    0.1850   -1.0333   -0.6603 H   0  0  0  0  0  0  0  0  0  0  0  0
   -1.5397   -0.2683   -1.7079 C   0  0  0  0  0  0  0  0  0  0  0  0
   -2.1877    0.6086   -1.6756 H   0  0  0  0  0  0  0  0  0  0  0  0
   -1.0390   -0.3060   -2.6774 H   0  0  0  0  0  0  0  0  0  0  0  0
   -2.3926   -1.5316   -1.5271 C   0  0  0  0  0  0  0  0  0  0  0  0
   -1.7390   -2.4070   -1.5450 H   0  0  0  0  0  0  0  0  0  0  0  0
   -2.8982   -1.4845   -0.5606 H   0  0  0  0  0  0  0  0  0  0  0  0
   -3.4315   -1.6417   -2.6501 C   0  0  0  0  0  0  0  0  0  0  0  0
   -4.0705   -0.7531   -2.6201 H   0  0  0  0  0  0  0  0  0  0  0  0
   -2.9066   -1.6448   -3.6102 H   0  0  0  0  0  0  0  0  0  0  0  0
   -4.2557   -2.8690   -2.5129 N   0  3  0  0  0  0  0  0  0  0  0  0
   -4.7522   -2.8670   -1.6306 H   0  0  0  0  0  0  0  0  0  0  0  0
   -4.9354   -2.9269   -3.2610 H   0  0  0  0  0  0  0  0  0  0  0  0
   -3.6697   -3.6949   -2.5489 H   0  0  0  0  0  0  0  0  0  0  0  0
   -1.3103    1.3348    1.2791 C   0  0  0  0  0  0  0  0  0  0  0  0
   -2.2333    1.9891    0.8084 O   0  0  0  0  0  0  0  0  0  0  0  0
   -0.4429    1.8293    2.1683 N   0  0  0  0  0  0  0  0  0  0  0  0
    0.2668    1.2118    2.5263 H   0  0  0  0  0  0  0  0  0  0  0  0
   -0.5118    3.1863    2.7135 C   0  0  0  0  0  0  0  0  0  0  0  0
   -1.4470    3.3159    3.2625 H   0  0  0  0  0  0  0  0  0  0  0  0
    0.3243    3.3682    3.3896 H   0  0  0  0  0  0  0  0  0  0  0  0
   -0.4850    3.9172    1.9023 H   0  0  0  0  0  0  0  0  0  0  0  0
  5  6  2  0  0  0  0
  5  7  1  0  0  0  0
  2  3  1  0  0  0  0
  2  4  1  0  0  0  0
  2  5  1  0  0  0  0
  1  2  1  0  0  0  0
 27 28  2  0  0  0  0
 27 29  1  0  0  0  0
 23 24  1  0  0  0  0
 23 25  1  0  0  0  0
 23 26  1  0  0  0  0
 20 21  1  0  0  0  0
 20 22  1  0  0  0  0
 20 23  1  0  0  0  0
 17 18  1  0  0  0  0
 17 19  1  0  0  0  0
 17 20  1  0  0  0  0
 14 15  1  0  0  0  0
 14 16  1  0  0  0  0
 14 17  1  0  0  0  0
 11 12  1  0  0  0  0
 11 13  1  0  0  0  0
 11 14  1  0  0  0  0
  9 10  1  0  0  0  0
  9 11  1  0  0  0  0
  9 27  1  0  0  0  0
  7  8  1  0  0  0  0
  7  9  1  0  0  0  0
 31 32  1  0  0  0  0
 31 33  1  0  0  0  0
 31 34  1  0  0  0  0
 29 30  1  0  0  0  0
 29 31  1  0  0  0  0
M  CHG  1  23   1
M  END
$$$$
default_name
  -OEChem-02102213163D

 34 33  0     1  0  0  0  0  0999 V2000
   -3.8899   -3.6747    1.6490 H   0  0  0  0  0  0  0  0  0  0  0  0
   -3.9109   -2.6717    1.2250 C   0  0  0  0  0  0  0  0  0  0  0  0
   -4.6009   -2.0517    1.7950 H   0  0  0  0  0  0  0  0  0  0  0  0
   -4.2309   -2.7237    0.1860 H   0  0  0  0  0  0  0  0  0  0  0  0
   -2.5229   -2.0787    1.2980 C   0  0  0  0  0  0  0  0  0  0  0  0
   -1.5999   -2.7227    1.7810 O   0  0  0  0  0  0  0  0  0  0  0  0
   -2.3659   -0.8447    0.8120 N   0  0  0  0  0  0  0  0  0  0  0  0
   -3.1749   -0.3807    0.4220 H   0  0  0  0  0  0  0  0  0  0  0  0
   -1.0919   -0.1077    0.8170 C   0  0  1  0  0  0  0  0  0  0  0  0
   -0.4136   -0.6011    1.5155 H   0  0  0  0  0  0  0  0  0  0  0  0
   -0.4834   -0.1723   -0.5965 C   0  0  0  0  0  0  0  0  0  0  0  0
    0.1077    0.7298   -0.7620 H   0  0  0  0  0  0  0  0  0  0  0  0
    0.1850   -1.0333   -0.6603 H   0  0  0  0  0  0  0  0  0  0  0  0
   -1.5397   -0.2683   -1.7079 C   0  0  0  0  0  0  0  0  0  0  0  0
   -2.0106    0.7050   -1.8523 H   0  0  0  0  0  0  0  0  0  0  0  0
   -1.0559   -0.5717   -2.6384 H   0  0  0  0  0  0  0  0  0  0  0  0
   -2.6156   -1.2978   -1.3354 C   0  0  0  0  0  0  0  0  0  0  0  0
   -2.1389   -2.2681   -1.1769 H   0  0  0  0  0  0  0  0  0  0  0  0
   -3.1024   -0.9849   -0.4096 H   0  0  0  0  0  0  0  0  0  0  0  0
   -3.6574   -1.4128   -2.4552 C   0  0  0  0  0  0  0  0  0  0  0  0
   -4.1172   -0.4302   -2.6036 H   0  0  0  0  0  0  0  0  0  0  0  0
   -3.1433   -1.6855   -3.3817 H   0  0  0  0  0  0  0  0  0  0  0  0
   -4.6983   -2.4207   -2.1309 N   0  3  0  0  0  0  0  0  0  0  0  0
   -5.1848   -2.1681   -1.2798 H   0  0  0  0  0  0  0  0  0  0  0  0
   -5.3773   -2.4846   -2.8792 H   0  0  0  0  0  0  0  0  0  0  0  0
   -4.2787   -3.3339   -2.0012 H   0  0  0  0  0  0  0  0  0  0  0  0
   -1.3103    1.3348    1.2791 C   0  0  0  0  0  0  0  0  0  0  0  0
   -2.2333    1.9891    0.8084 O   0  0  0  0  0  0  0  0  0  0  0  0
   -0.4429    1.8293    2.1683 N   0  0  0  0  0  0  0  0  0  0  0  0
    0.2668    1.2118    2.5263 H   0  0  0  0  0  0  0  0  0  0  0  0
   -0.5118    3.1863    2.7135 C   0  0  0  0  0  0  0  0  0  0  0  0
   -1.4470    3.3159    3.2625 H   0  0  0  0  0  0  0  0  0  0  0  0
    0.3243    3.3682    3.3896 H   0  0  0  0  0  0  0  0  0  0  0  0
   -0.4850    3.9172    1.9023 H   0  0  0  0  0  0  0  0  0  0  0  0
  5  6  2  0  0  0  0
  5  7  1  0  0  0  0
  2  3  1  0  0  0  0
  2  4  1  0  0  0  0
  2  5  1  0  0  0  0
  1  2  1  0  0  0  0
 27 28  2  0  0  0  0
 27 29  1  0  0  0  0
 23 24  1  0  0  0  0
 23 25  1  0  0  0  0
 23 26  1  0  0  0  0
 20 21  1  0  0  0  0
 20 22  1  0  0  0  0
 20 23  1  0  0  0  0
 17 18  1  0  0  0  0
 17 19  1  0  0  0  0
 17 20  1  0  0  0  0
 14 15  1  0  0  0  0
 14 16  1  0  0  0  0
 14 17  1  0  0  0  0
 11 12  1  0  0  0  0
 11 13  1  0  0  0  0
 11 14  1  0  0  0  0
  9 10  1  0  0  0  0
  9 11  1  0  0  0  0
  9 27  1  0  0  0  0
  7  8  1  0  0  0  0
  7  9  1  0  0  0  0
 31 32  1  0  0  0  0
 31 33  1  0  0  0  0
 31 34  1  0  0  0  0
 29 30  1  0  0  0  0
 29 31  1  0  0  0  0
M  CHG  1  23   1
M  END
$$$$
default_name
  -OEChem-02102213163D

 34 33  0     1  0  0  0  0  0999 V2000
   -3.8899   -3.6747    1.6490 H   0  0  0  0  0  0  0  0  0  0  0  0
   -3.9109   -2.6717    1.2250 C   0  0  0  0  0  0  0  0  0  0  0  0
   -4.6009   -2.0517    1.7950 H   0  0  0  0  0  0  0  0  0  0  0  0
   -4.2309   -2.7237    0.1860 H   0  0  0  0  0  0  0  0  0  0  0  0
   -2.5229   -2.0787    1.2980 C   0  0  0  0  0  0  0  0  0  0  0  0
   -1.5999   -2.7227    1.7810 O   0  0  0  0  0  0  0  0  0  0  0  0
   -2.3659   -0.8447    0.8120 N   0  0  0  0  0  0  0  0  0  0  0  0
   -3.1749   -0.3807    0.4220 H   0  0  0  0  0  0  0  0  0  0  0  0
   -1.0919   -0.1077    0.8170 C   0  0  1  0  0  0  0  0  0  0  0  0
   -0.4136   -0.6011    1.5155 H   0  0  0  0  0  0  0  0  0  0  0  0
   -0.4834   -0.1723   -0.5965 C   0  0  0  0  0  0  0  0  0  0  0  0
    0.1077    0.7298   -0.7620 H   0  0  0  0  0  0  0  0  0  0  0  0
    0.1850   -1.0333   -0.6603 H   0  0  0  0  0  0  0  0  0  0  0  0
   -1.5397   -0.2683   -1.7079 C   0  0  0  0  0  0  0  0  0  0  0  0
   -1.8186    0.7335   -2.0372 H   0  0  0  0  0  0  0  0  0  0  0  0
   -1.1226   -0.8183   -2.5537 H   0  0  0  0  0  0  0  0  0  0  0  0
   -2.7902   -0.9961   -1.1955 C   0  0  0  0  0  0  0  0  0  0  0  0
   -2.5051   -1.9936   -0.8526 H   0  0  0  0  0  0  0  0  0  0  0  0
   -3.2086   -0.4373   -0.3560 H   0  0  0  0  0  0  0  0  0  0  0  0
   -3.8359   -1.1146   -2.3113 C   0  0  0  0  0  0  0  0  0  0  0  0
   -4.1022   -0.1067   -2.6458 H   0  0  0  0  0  0  0  0  0  0  0  0
   -3.3832   -1.6400   -3.1576 H   0  0  0  0  0  0  0  0  0  0  0  0
   -5.0481   -1.8367   -1.8489 N   0  3  0  0  0  0  0  0  0  0  0  0
   -5.4775   -1.3496   -1.0723 H   0  0  0  0  0  0  0  0  0  0  0  0
   -5.7275   -1.9067   -2.5962 H   0  0  0  0  0  0  0  0  0  0  0  0
   -4.8082   -2.7736   -1.5464 H   0  0  0  0  0  0  0  0  0  0  0  0
   -1.3103    1.3348    1.2791 C   0  0  0  0  0  0  0  0  0  0  0  0
   -2.2333    1.9891    0.8084 O   0  0  0  0  0  0  0  0  0  0  0  0
   -0.4429    1.8293    2.1683 N   0  0  0  0  0  0  0  0  0  0  0  0
    0.2668    1.2118    2.5263 H   0  0  0  0  0  0  0  0  0  0  0  0
   -0.5118    3.1863    2.7135 C   0  0  0  0  0  0  0  0  0  0  0  0
   -1.4470    3.3159    3.2625 H   0  0  0  0  0  0  0  0  0  0  0  0
    0.3243    3.3682    3.3896 H   0  0  0  0  0  0  0  0  0  0  0  0
   -0.4850    3.9172    1.9023 H   0  0  0  0  0  0  0  0  0  0  0  0
  5  6  2  0  0  0  0
  5  7  1  0  0  0  0
  2  3  1  0  0  0  0
  2  4  1  0  0  0  0
  2  5  1  0  0  0  0
  1  2  1  0  0  0  0
 27 28  2  0  0  0  0
 27 29  1  0  0  0  0
 23 24  1  0  0  0  0
 23 25  1  0  0  0  0
 23 26  1  0  0  0  0
 20 21  1  0  0  0  0
 20 22  1  0  0  0  0
 20 23  1  0  0  0  0
 17 18  1  0  0  0  0
 17 19  1  0  0  0  0
 17 20  1  0  0  0  0
 14 15  1  0  0  0  0
 14 16  1  0  0  0  0
 14 17  1  0  0  0  0
 11 12  1  0  0  0  0
 11 13  1  0  0  0  0
 11 14  1  0  0  0  0
  9 10  1  0  0  0  0
  9 11  1  0  0  0  0
  9 27  1  0  0  0  0
  7  8  1  0  0  0  0
  7  9  1  0  0  0  0
 31 32  1  0  0  0  0
 31 33  1  0  0  0  0
 31 34  1  0  0  0  0
 29 30  1  0  0  0  0
 29 31  1  0  0  0  0
M  CHG  1  23   1
M  END
$$$$
default_name
  -OEChem-02102213163D

 34 33  0     1  0  0  0  0  0999 V2000
   -3.8899   -3.6747    1.6490 H   0  0  0  0  0  0  0  0  0  0  0  0
   -3.9109   -2.6717    1.2250 C   0  0  0  0  0  0  0  0  0  0  0  0
   -4.6009   -2.0517    1.7950 H   0  0  0  0  0  0  0  0  0  0  0  0
   -4.2309   -2.7237    0.1860 H   0  0  0  0  0  0  0  0  0  0  0  0
   -2.5229   -2.0787    1.2980 C   0  0  0  0  0  0  0  0  0  0  0  0
   -1.5999   -2.7227    1.7810 O   0  0  0  0  0  0  0  0  0  0  0  0
   -2.3659   -0.8447    0.8120 N   0  0  0  0  0  0  0  0  0  0  0  0
   -3.1749   -0.3807    0.4220 H   0  0  0  0  0  0  0  0  0  0  0  0
   -1.0919   -0.1077    0.8170 C   0  0  1  0  0  0  0  0  0  0  0  0
   -0.4136   -0.6011    1.5155 H   0  0  0  0  0  0  0  0  0  0  0  0
   -0.4834   -0.1723   -0.5965 C   0  0  0  0  0  0  0  0  0  0  0  0
    0.1077    0.7298   -0.7620 H   0  0  0  0  0  0  0  0  0  0  0  0
    0.1850   -1.0333   -0.6603 H   0  0  0  0  0  0  0  0  0  0  0  0
   -1.5397   -0.2683   -1.7079 C   0  0  0  0  0  0  0  0  0  0  0  0
   -1.6248    0.6922   -2.2179 H   0  0  0  0  0  0  0  0  0  0  0  0
   -1.2345   -1.0290   -2.4291 H   0  0  0  0  0  0  0  0  0  0  0  0
   -2.9047   -0.6471   -1.1168 C   0  0  0  0  0  0  0  0  0  0  0  0
   -2.8126   -1.6022   -0.5941 H   0  0  0  0  0  0  0  0  0  0  0  0
   -3.2094    0.1212   -0.4034 H   0  0  0  0  0  0  0  0  0  0  0  0
   -3.9549   -0.7676   -2.2282 C   0  0  0  0  0  0  0  0  0  0  0  0
   -4.0264    0.1955   -2.7440 H   0  0  0  0  0  0  0  0  0  0  0  0
   -3.6101   -1.5112   -2.9531 H   0  0  0  0  0  0  0  0  0  0  0  0
   -5.2811   -1.1571   -1.6861 N   0  3  0  0  0  0  0  0  0  0  0  0
   -5.6103   -0.4673   -1.0223 H   0  0  0  0  0  0  0  0  0  0  0  0
   -5.9621   -1.2325   -2.4315 H   0  0  0  0  0  0  0  0  0  0  0  0
   -5.2221   -2.0524   -1.2152 H   0  0  0  0  0  0  0  0  0  0  0  0
   -1.3103    1.3348    1.2791 C   0  0  0  0  0  0  0  0  0  0  0  0
   -2.2333    1.9891    0.8084 O   0  0  0  0  0  0  0  0  0  0  0  0
   -0.4429    1.8293    2.1683 N   0  0  0  0  0  0  0  0  0  0  0  0
    0.2668    1.2118    2.5263 H   0  0  0  0  0  0  0  0  0  0  0  0
   -0.5118    3.1863    2.7135 C   0  0  0  0  0  0  0  0  0  0  0  0
   -1.4470    3.3159    3.2625 H   0  0  0  0  0  0  0  0  0  0  0  0
    0.3243    3.3682    3.3896 H   0  0  0  0  0  0  0  0  0  0  0  0
   -0.4850    3.9172    1.9023 H   0  0  0  0  0  0  0  0  0  0  0  0
  5  6  2  0  0  0  0
  5  7  1  0  0  0  0
  2  3  1  0  0  0  0
  2  4  1  0  0  0  0
  2  5  1  0  0  0  0
  1  2  1  0  0  0  0
 27 28  2  0  0  0  0
 27 29  1  0  0  0  0
 23 24  1  0  0  0  0
 23 25  1  0  0  0  0
 23 26  1  0  0  0  0
 20 21  1  0  0  0  0
 20 22  1  0  0  0  0
 20 23  1  0  0  0  0
 17 18  1  0  0  0  0
 17 19  1  0  0  0  0
 17 20  1  0  0  0  0
 14 15  1  0  0  0  0
 14 16  1  0  0  0  0
 14 17  1  0  0  0  0
 11 12  1  0  0  0  0
 11 13  1  0  0  0  0
 11 14  1  0  0  0  0
  9 10  1  0  0  0  0
  9 11  1  0  0  0  0
  9 27  1  0  0  0  0
  7  8  1  0  0  0  0
  7  9  1  0  0  0  0
 31 32  1  0  0  0  0
 31 33  1  0  0  0  0
 31 34  1  0  0  0  0
 29 30  1  0  0  0  0
 29 31  1  0  0  0  0
M  CHG  1  23   1
M  END
$$$$
default_name
  -OEChem-02102213163D

 34 33  0     1  0  0  0  0  0999 V2000
   -3.8899   -3.6747    1.6490 H   0  0  0  0  0  0  0  0  0  0  0  0
   -3.9109   -2.6717    1.2250 C   0  0  0  0  0  0  0  0  0  0  0  0
   -4.6009   -2.0517    1.7950 H   0  0  0  0  0  0  0  0  0  0  0  0
   -4.2309   -2.7237    0.1860 H   0  0  0  0  0  0  0  0  0  0  0  0
   -2.5229   -2.0787    1.2980 C   0  0  0  0  0  0  0  0  0  0  0  0
   -1.5999   -2.7227    1.7810 O   0  0  0  0  0  0  0  0  0  0  0  0
   -2.3659   -0.8447    0.8120 N   0  0  0  0  0  0  0  0  0  0  0  0
   -3.1749   -0.3807    0.4220 H   0  0  0  0  0  0  0  0  0  0  0  0
   -1.0919   -0.1077    0.8170 C   0  0  1  0  0  0  0  0  0  0  0  0
   -0.4136   -0.6011    1.5155 H   0  0  0  0  0  0  0  0  0  0  0  0
   -0.4834   -0.1723   -0.5965 C   0  0  0  0  0  0  0  0  0  0  0  0
    0.1077    0.7298   -0.7620 H   0  0  0  0  0  0  0  0  0  0  0  0
    0.1850   -1.0333   -0.6603 H   0  0  0  0  0  0  0  0  0  0  0  0
   -1.5397   -0.2683   -1.7079 C   0  0  0  0  0  0  0  0  0  0  0  0
   -1.4424    0.5839   -2.3818 H   0  0  0  0  0  0  0  0  0  0  0  0
   -1.3841   -1.1893   -2.2731 H   0  0  0  0  0  0  0  0  0  0  0  0
   -2.9512   -0.2746   -1.1048 C   0  0  0  0  0  0  0  0  0  0  0  0
   -3.0406   -1.1205   -0.4190 H   0  0  0  0  0  0  0  0  0  0  0  0
   -3.1049    0.6523   -0.5486 H   0  0  0  0  0  0  0  0  0  0  0  0
   -4.0061   -0.3954   -2.2116 C   0  0  0  0  0  0  0  0  0  0  0  0
   -3.8950    0.4558   -2.8913 H   0  0  0  0  0  0  0  0  0  0  0  0
   -3.8084   -1.3079   -2.7822 H   0  0  0  0  0  0  0  0  0  0  0  0
   -5.3816   -0.4279   -1.6536 N   0  3  0  0  0  0  0  0  0  0  0  0
   -5.5742    0.4187   -1.1331 H   0  0  0  0  0  0  0  0  0  0  0  0
   -6.0652   -0.5081   -2.3961 H   0  0  0  0  0  0  0  0  0  0  0  0
   -5.4923   -1.2193   -1.0304 H   0  0  0  0  0  0  0  0  0  0  0  0
   -1.3103    1.3348    1.2791 C   0  0  0  0  0  0  0  0  0  0  0  0
   -2.2333    1.9891    0.8084 O   0  0  0  0  0  0  0  0  0  0  0  0
   -0.4429    1.8293    2.1683 N   0  0  0  0  0  0  0  0  0  0  0  0
    0.2668    1.2118    2.5263 H   0  0  0  0  0  0  0  0  0  0  0  0
   -0.5118    3.1863    2.7135 C   0  0  0  0  0  0  0  0  0  0  0  0
   -1.4470    3.3159    3.2625 H   0  0  0  0  0  0  0  0  0  0  0  0
    0.3243    3.3682    3.3896 H   0  0  0  0  0  0  0  0  0  0  0  0
   -0.4850    3.9172    1.9023 H   0  0  0  0  0  0  0  0  0  0  0  0
  5  6  2  0  0  0  0
  5  7  1  0  0  0  0
  2  3  1  0  0  0  0
  2  4  1  0  0  0  0
  2  5  1  0  0  0  0
  1  2  1  0  0  0  0
 27 28  2  0  0  0  0
 27 29  1  0  0  0  0
 23 24  1  0  0  0  0
 23 25  1  0  0  0  0
 23 26  1  0  0  0  0
 20 21  1  0  0  0  0
 20 22  1  0  0  0  0
 20 23  1  0  0  0  0
 17 18  1  0  0  0  0
 17 19  1  0  0  0  0
 17 20  1  0  0  0  0
 14 15  1  0  0  0  0
 14 16  1  0  0  0  0
 14 17  1  0  0  0  0
 11 12  1  0  0  0  0
 11 13  1  0  0  0  0
 11 14  1  0  0  0  0
  9 10  1  0  0  0  0
  9 11  1  0  0  0  0
  9 27  1  0  0  0  0
  7  8  1  0  0  0  0
  7  9  1  0  0  0  0
 31 32  1  0  0  0  0
 31 33  1  0  0  0  0
 31 34  1  0  0  0  0
 29 30  1  0  0  0  0
 29 31  1  0  0  0  0
M  CHG  1  23   1
M  END
$$$$
default_name
  -OEChem-02102213163D

 34 33  0     1  0  0  0  0  0999 V2000
   -3.8899   -3.6747    1.6490 H   0  0  0  0  0  0  0  0  0  0  0  0
   -3.9109   -2.6717    1.2250 C   0  0  0  0  0  0  0  0  0  0  0  0
   -4.6009   -2.0517    1.7950 H   0  0  0  0  0  0  0  0  0  0  0  0
   -4.2309   -2.7237    0.1860 H   0  0  0  0  0  0  0  0  0  0  0  0
   -2.5229   -2.0787    1.2980 C   0  0  0  0  0  0  0  0  0  0  0  0
   -1.5999   -2.7227    1.7810 O   0  0  0  0  0  0  0  0  0  0  0  0
   -2.3659   -0.8447    0.8120 N   0  0  0  0  0  0  0  0  0  0  0  0
   -3.1749   -0.3807    0.4220 H   0  0  0  0  0  0  0  0  0  0  0  0
   -1.0919   -0.1077    0.8170 C   0  0  1  0  0  0  0  0  0  0  0  0
   -0.4136   -0.6011    1.5155 H   0  0  0  0  0  0  0  0  0  0  0  0
   -0.4834   -0.1723   -0.5965 C   0  0  0  0  0  0  0  0  0  0  0  0
    0.1077    0.7298   -0.7620 H   0  0  0  0  0  0  0  0  0  0  0  0
    0.1850   -1.0333   -0.6603 H   0  0  0  0  0  0  0  0  0  0  0  0
   -1.5397   -0.2683   -1.7079 C   0  0  0  0  0  0  0  0  0  0  0  0
   -1.2839    0.4159   -2.5180 H   0  0  0  0  0  0  0  0  0  0  0  0
   -1.5612   -1.2884   -2.0963 H   0  0  0  0  0  0  0  0  0  0  0  0
   -2.9265    0.0961   -1.1602 C   0  0  0  0  0  0  0  0  0  0  0  0
   -3.1734   -0.5814   -0.3393 H   0  0  0  0  0  0  0  0  0  0  0  0
   -2.9022    1.1199   -0.7817 H   0  0  0  0  0  0  0  0  0  0  0  0
   -3.9862   -0.0233   -2.2627 C   0  0  0  0  0  0  0  0  0  0  0  0
   -3.7170    0.6563   -3.0778 H   0  0  0  0  0  0  0  0  0  0  0  0
   -3.9647   -1.0439   -2.6565 H   0  0  0  0  0  0  0  0  0  0  0  0
   -5.3427    0.3010   -1.7535 N   0  3  0  0  0  0  0  0  0  0  0  0
   -5.3716    1.2481   -1.3973 H   0  0  0  0  0  0  0  0  0  0  0  0
   -6.0297    0.2172   -2.4924 H   0  0  0  0  0  0  0  0  0  0  0  0
   -5.6002   -0.3311   -1.0045 H   0  0  0  0  0  0  0  0  0  0  0  0
   -1.3103    1.3348    1.2791 C   0  0  0  0  0  0  0  0  0  0  0  0
   -2.2333    1.9891    0.8084 O   0  0  0  0  0  0  0  0  0  0  0  0
   -0.4429    1.8293    2.1683 N   0  0  0  0  0  0  0  0  0  0  0  0
    0.2668    1.2118    2.5263 H   0  0  0  0  0  0  0  0  0  0  0  0
   -0.5118    3.1863    2.7135 C   0  0  0  0  0  0  0  0  0  0  0  0
   -1.4470    3.3159    3.2625 H   0  0  0  0  0  0  0  0  0  0  0  0
    0.3243    3.3682    3.3896 H   0  0  0  0  0  0  0  0  0  0  0  0
   -0.4850    3.9172    1.9023 H   0  0  0  0  0  0  0  0  0  0  0  0
  5  6  2  0  0  0  0
  5  7  1  0  0  0  0
  2  3  1  0  0  0  0
  2  4  1  0  0  0  0
  2  5  1  0  0  0  0
  1  2  1  0  0  0  0
 27 28  2  0  0  0  0
 27 29  1  0  0  0  0
 23 24  1  0  0  0  0
 23 25  1  0  0  0  0
 23 26  1  0  0  0  0
 20 21  1  0  0  0  0
 20 22  1  0  0  0  0
 20 23  1  0  0  0  0
 17 18  1  0  0  0  0
 17 19  1  0  0  0  0
 17 20  1  0  0  0  0
 14 15  1  0  0  0  0
 14 16  1  0  0  0  0
 14 17  1  0  0  0  0
 11 12  1  0  0  0  0
 11 13  1  0  0  0  0
 11 14  1  0  0  0  0
  9 10  1  0  0  0  0
  9 11  1  0  0  0  0
  9 27  1  0  0  0  0
  7  8  1  0  0  0  0
  7  9  1  0  0  0  0
 31 32  1  0  0  0  0
 31 33  1  0  0  0  0
 31 34  1  0  0  0  0
 29 30  1  0  0  0  0
 29 31  1  0  0  0  0
M  CHG  1  23   1
M  END
$$$$
default_name
  -OEChem-02102213163D

 34 33  0     1  0  0  0  0  0999 V2000
   -3.8899   -3.6747    1.6490 H   0  0  0  0  0  0  0  0  0  0  0  0
   -3.9109   -2.6717    1.2250 C   0  0  0  0  0  0  0  0  0  0  0  0
   -4.6009   -2.0517    1.7950 H   0  0  0  0  0  0  0  0  0  0  0  0
   -4.2309   -2.7237    0.1860 H   0  0  0  0  0  0  0  0  0  0  0  0
   -2.5229   -2.0787    1.2980 C   0  0  0  0  0  0  0  0  0  0  0  0
   -1.5999   -2.7227    1.7810 O   0  0  0  0  0  0  0  0  0  0  0  0
   -2.3659   -0.8447    0.8120 N   0  0  0  0  0  0  0  0  0  0  0  0
   -3.1749   -0.3807    0.4220 H   0  0  0  0  0  0  0  0  0  0  0  0
   -1.0919   -0.1077    0.8170 C   0  0  1  0  0  0  0  0  0  0  0  0
   -0.4136   -0.6011    1.5155 H   0  0  0  0  0  0  0  0  0  0  0  0
   -0.4834   -0.1723   -0.5965 C   0  0  0  0  0  0  0  0  0  0  0  0
    0.1077    0.7298   -0.7620 H   0  0  0  0  0  0  0  0  0  0  0  0
    0.1850   -1.0333   -0.6603 H   0  0  0  0  0  0  0  0  0  0  0  0
   -1.5397   -0.2683   -1.7079 C   0  0  0  0  0  0  0  0  0  0  0  0
   -1.1600    0.1998   -2.6171 H   0  0  0  0  0  0  0  0  0  0  0  0
   -1.7536   -1.3195   -1.9107 H   0  0  0  0  0  0  0  0  0  0  0  0
   -2.8324    0.4397   -1.2793 C   0  0  0  0  0  0  0  0  0  0  0  0
   -3.2021   -0.0216   -0.3604 H   0  0  0  0  0  0  0  0  0  0  0  0
   -2.6150    1.4921   -1.0867 H   0  0  0  0  0  0  0  0  0  0  0  0
   -3.8964    0.3233   -2.3779 C   0  0  0  0  0  0  0  0  0  0  0  0
   -3.5045    0.7835   -3.2908 H   0  0  0  0  0  0  0  0  0  0  0  0
   -4.0682   -0.7374   -2.5846 H   0  0  0  0  0  0  0  0  0  0  0  0
   -5.1670    0.9799   -1.9791 N   0  3  0  0  0  0  0  0  0  0  0  0
   -5.0164    1.9643   -1.7967 H   0  0  0  0  0  0  0  0  0  0  0  0
   -5.8580    0.8940   -2.7140 H   0  0  0  0  0  0  0  0  0  0  0  0
   -5.5386    0.5516   -1.1393 H   0  0  0  0  0  0  0  0  0  0  0  0
   -1.3103    1.3348    1.2791 C   0  0  0  0  0  0  0  0  0  0  0  0
   -2.2333    1.9891    0.8084 O   0  0  0  0  0  0  0  0  0  0  0  0
   -0.4429    1.8293    2.1683 N   0  0  0  0  0  0  0  0  0  0  0  0
    0.2668    1.2118    2.5263 H   0  0  0  0  0  0  0  0  0  0  0  0
   -0.5118    3.1863    2.7135 C   0  0  0  0  0  0  0  0  0  0  0  0
   -1.4470    3.3159    3.2625 H   0  0  0  0  0  0  0  0  0  0  0  0
    0.3243    3.3682    3.3896 H   0  0  0  0  0  0  0  0  0  0  0  0
   -0.4850    3.9172    1.9023 H   0  0  0  0  0  0  0  0  0  0  0  0
  5  6  2  0  0  0  0
  5  7  1  0  0  0  0
  2  3  1  0  0  0  0
  2  4  1  0  0  0  0
  2  5  1  0  0  0  0
  1  2  1  0  0  0  0
 27 28  2  0  0  0  0
 27 29  1  0  0  0  0
 23 24  1  0  0  0  0
 23 25  1  0  0  0  0
 23 26  1  0  0  0  0
 20 21  1  0  0  0  0
 20 22  1  0  0  0  0
 20 23  1  0  0  0  0
 17 18  1  0  0  0  0
 17 19  1  0  0  0  0
 17 20  1  0  0  0  0
 14 15  1  0  0  0  0
 14 16  1  0  0  0  0
 14 17  1  0  0  0  0
 11 12  1  0  0  0  0
 11 13  1  0  0  0  0
 11 14  1  0  0  0  0
  9 10  1  0  0  0  0
  9 11  1  0  0  0  0
  9 27  1  0  0  0  0
  7  8  1  0  0  0  0
  7  9  1  0  0  0  0
 31 32  1  0  0  0  0
 31 33  1  0  0  0  0
 31 34  1  0  0  0  0
 29 30  1  0  0  0  0
 29 31  1  0  0  0  0
M  CHG  1  23   1
M  END
$$$$
default_name
  -OEChem-02102213163D

 34 33  0     1  0  0  0  0  0999 V2000
   -3.8899   -3.6747    1.6490 H   0  0  0  0  0  0  0  0  0  0  0  0
   -3.9109   -2.6717    1.2250 C   0  0  0  0  0  0  0  0  0  0  0  0
   -4.6009   -2.0517    1.7950 H   0  0  0  0  0  0  0  0  0  0  0  0
   -4.2309   -2.7237    0.1860 H   0  0  0  0  0  0  0  0  0  0  0  0
   -2.5229   -2.0787    1.2980 C   0  0  0  0  0  0  0  0  0  0  0  0
   -1.5999   -2.7227    1.7810 O   0  0  0  0  0  0  0  0  0  0  0  0
   -2.3659   -0.8447    0.8120 N   0  0  0  0  0  0  0  0  0  0  0  0
   -3.1749   -0.3807    0.4220 H   0  0  0  0  0  0  0  0  0  0  0  0
   -1.0919   -0.1077    0.8170 C   0  0  1  0  0  0  0  0  0  0  0  0
   -0.4136   -0.6011    1.5155 H   0  0  0  0  0  0  0  0  0  0  0  0
   -0.4834   -0.1723   -0.5965 C   0  0  0  0  0  0  0  0  0  0  0  0
    0.1077    0.7298   -0.7620 H   0  0  0  0  0  0  0  0  0  0  0  0
    0.1850   -1.0333   -0.6603 H   0  0  0  0  0  0  0  0  0  0  0  0
   -1.5397   -0.2683   -1.7079 C   0  0  0  0  0  0  0  0  0  0  0  0
   -1.0792   -0.0498   -2.6723 H   0  0  0  0  0  0  0  0  0  0  0  0
   -1.9483   -1.2805   -1.7291 H   0  0  0  0  0  0  0  0  0  0  0  0
   -2.6753    0.7327   -1.4540 C   0  0  0  0  0  0  0  0  0  0  0  0
   -3.1246    0.5207   -0.4808 H   0  0  0  0  0  0  0  0  0  0  0  0
   -2.2630    1.7437   -1.4430 H   0  0  0  0  0  0  0  0  0  0  0  0
   -3.7430    0.6208   -2.5495 C   0  0  0  0  0  0  0  0  0  0  0  0
   -3.2719    0.8287   -3.5157 H   0  0  0  0  0  0  0  0  0  0  0  0
   -4.1120   -0.4091   -2.5713 H   0  0  0  0  0  0  0  0  0  0  0  0
   -4.8665    1.5627   -2.3151 N   0  3  0  0  0  0  0  0  0  0  0  0
   -4.5327    2.5184   -2.3043 H   0  0  0  0  0  0  0  0  0  0  0  0
   -5.5619    1.4762   -3.0457 H   0  0  0  0  0  0  0  0  0  0  0  0
   -5.3116    1.3687   -1.4256 H   0  0  0  0  0  0  0  0  0  0  0  0
   -1.3103    1.3348    1.2791 C   0  0  0  0  0  0  0  0  0  0  0  0
   -2.2333    1.9891    0.8084 O   0  0  0  0  0  0  0  0  0  0  0  0
   -0.4429    1.8293    2.1683 N   0  0  0  0  0  0  0  0  0  0  0  0
    0.2668    1.2118    2.5263 H   0  0  0  0  0  0  0  0  0  0  0  0
   -0.5118    3.1863    2.7135 C   0  0  0  0  0  0  0  0  0  0  0  0
   -1.4470    3.3159    3.2625 H   0  0  0  0  0  0  0  0  0  0  0  0
    0.3243    3.3682    3.3896 H   0  0  0  0  0  0  0  0  0  0  0  0
   -0.4850    3.9172    1.9023 H   0  0  0  0  0  0  0  0  0  0  0  0
  5  6  2  0  0  0  0
  5  7  1  0  0  0  0
  2  3  1  0  0  0  0
  2  4  1  0  0  0  0
  2  5  1  0  0  0  0
  1  2  1  0  0  0  0
 27 28  2  0  0  0  0
 27 29  1  0  0  0  0
 23 24  1  0  0  0  0
 23 25  1  0  0  0  0
 23 26  1  0  0  0  0
 20 21  1  0  0  0  0
 20 22  1  0  0  0  0
 20 23  1  0  0  0  0
 17 18  1  0  0  0  0
 17 19  1  0  0  0  0
 17 20  1  0  0  0  0
 14 15  1  0  0  0  0
 14 16  1  0  0  0  0
 14 17  1  0  0  0  0
 11 12  1  0  0  0  0
 11 13  1  0  0  0  0
 11 14  1  0  0  0  0
  9 10  1  0  0  0  0
  9 11  1  0  0  0  0
  9 27  1  0  0  0  0
  7  8  1  0  0  0  0
  7  9  1  0  0  0  0
 31 32  1  0  0  0  0
 31 33  1  0  0  0  0
 31 34  1  0  0  0  0
 29 30  1  0  0  0  0
 29 31  1  0  0  0  0
M  CHG  1  23   1
M  END
$$$$
default_name
  -OEChem-02102213163D

 34 33  0     1  0  0  0  0  0999 V2000
   -3.8899   -3.6747    1.6490 H   0  0  0  0  0  0  0  0  0  0  0  0
   -3.9109   -2.6717    1.2250 C   0  0  0  0  0  0  0  0  0  0  0  0
   -4.6009   -2.0517    1.7950 H   0  0  0  0  0  0  0  0  0  0  0  0
   -4.2309   -2.7237    0.1860 H   0  0  0  0  0  0  0  0  0  0  0  0
   -2.5229   -2.0787    1.2980 C   0  0  0  0  0  0  0  0  0  0  0  0
   -1.5999   -2.7227    1.7810 O   0  0  0  0  0  0  0  0  0  0  0  0
   -2.3659   -0.8447    0.8120 N   0  0  0  0  0  0  0  0  0  0  0  0
   -3.1749   -0.3807    0.4220 H   0  0  0  0  0  0  0  0  0  0  0  0
   -1.0919   -0.1077    0.8170 C   0  0  1  0  0  0  0  0  0  0  0  0
   -0.4136   -0.6011    1.5155 H   0  0  0  0  0  0  0  0  0  0  0  0
   -0.4834   -0.1723   -0.5965 C   0  0  0  0  0  0  0  0  0  0  0  0
    0.1077    0.7298   -0.7620 H   0  0  0  0  0  0  0  0  0  0  0  0
    0.1850   -1.0333   -0.6603 H   0  0  0  0  0  0  0  0  0  0  0  0
   -1.5397   -0.2683   -1.7079 C   0  0  0  0  0  0  0  0  0  0  0  0
   -1.0470   -0.3159   -2.6800 H   0  0  0  0  0  0  0  0  0  0  0  0
   -2.1319   -1.1740   -1.5637 H   0  0  0  0  0  0  0  0  0  0  0  0
   -2.4658    0.9553   -1.6723 C   0  0  0  0  0  0  0  0  0  0  0  0
   -2.9463    1.0086   -0.6924 H   0  0  0  0  0  0  0  0  0  0  0  0
   -1.8702    1.8573   -1.8262 H   0  0  0  0  0  0  0  0  0  0  0  0
   -3.5363    0.8488   -2.7656 C   0  0  0  0  0  0  0  0  0  0  0  0
   -3.0352    0.7888   -3.7372 H   0  0  0  0  0  0  0  0  0  0  0  0
   -4.0930   -0.0814   -2.6176 H   0  0  0  0  0  0  0  0  0  0  0  0
   -4.4617    2.0096   -2.7384 N   0  3  0  0  0  0  0  0  0  0  0  0
   -3.9536    2.8728   -2.8853 H   0  0  0  0  0  0  0  0  0  0  0  0
   -5.1615    1.9241   -3.4650 H   0  0  0  0  0  0  0  0  0  0  0  0
   -4.9347    2.0645   -1.8439 H   0  0  0  0  0  0  0  0  0  0  0  0
   -1.3103    1.3348    1.2791 C   0  0  0  0  0  0  0  0  0  0  0  0
   -2.2333    1.9891    0.8084 O   0  0  0  0  0  0  0  0  0  0  0  0
   -0.4429    1.8293    2.1683 N   0  0  0  0  0  0  0  0  0  0  0  0
    0.2668    1.2118    2.5263 H   0  0  0  0  0  0  0  0  0  0  0  0
   -0.5118    3.1863    2.7135 C   0  0  0  0  0  0  0  0  0  0  0  0
   -1.4470    3.3159    3.2625 H   0  0  0  0  0  0  0  0  0  0  0  0
    0.3243    3.3682    3.3896 H   0  0  0  0  0  0  0  0  0  0  0  0
   -0.4850    3.9172    1.9023 H   0  0  0  0  0  0  0  0  0  0  0  0
  5  6  2  0  0  0  0
  5  7  1  0  0  0  0
  2  3  1  0  0  0  0
  2  4  1  0  0  0  0
  2  5  1  0  0  0  0
  1  2  1  0  0  0  0
 27 28  2  0  0  0  0
 27 29  1  0  0  0  0
 23 24  1  0  0  0  0
 23 25  1  0  0  0  0
 23 26  1  0  0  0  0
 20 21  1  0  0  0  0
 20 22  1  0  0  0  0
 20 23  1  0  0  0  0
 17 18  1  0  0  0  0
 17 19  1  0  0  0  0
 17 20  1  0  0  0  0
 14 15  1  0  0  0  0
 14 16  1  0  0  0  0
 14 17  1  0  0  0  0
 11 12  1  0  0  0  0
 11 13  1  0  0  0  0
 11 14  1  0  0  0  0
  9 10  1  0  0  0  0
  9 11  1  0  0  0  0
  9 27  1  0  0  0  0
  7  8  1  0  0  0  0
  7  9  1  0  0  0  0
 31 32  1  0  0  0  0
 31 33  1  0  0  0  0
 31 34  1  0  0  0  0
 29 30  1  0  0  0  0
 29 31  1  0  0  0  0
M  CHG  1  23   1
M  END
$$$$
default_name
  -OEChem-02102213163D

 34 33  0     1  0  0  0  0  0999 V2000
   -3.8899   -3.6747    1.6490 H   0  0  0  0  0  0  0  0  0  0  0  0
   -3.9109   -2.6717    1.2250 C   0  0  0  0  0  0  0  0  0  0  0  0
   -4.6009   -2.0517    1.7950 H   0  0  0  0  0  0  0  0  0  0  0  0
   -4.2309   -2.7237    0.1860 H   0  0  0  0  0  0  0  0  0  0  0  0
   -2.5229   -2.0787    1.2980 C   0  0  0  0  0  0  0  0  0  0  0  0
   -1.5999   -2.7227    1.7810 O   0  0  0  0  0  0  0  0  0  0  0  0
   -2.3659   -0.8447    0.8120 N   0  0  0  0  0  0  0  0  0  0  0  0
   -3.1749   -0.3807    0.4220 H   0  0  0  0  0  0  0  0  0  0  0  0
   -1.0919   -0.1077    0.8170 C   0  0  1  0  0  0  0  0  0  0  0  0
   -0.4136   -0.6011    1.5155 H   0  0  0  0  0  0  0  0  0  0  0  0
   -0.4834   -0.1723   -0.5965 C   0  0  0  0  0  0  0  0  0  0  0  0
    0.1077    0.7298   -0.7620 H   0  0  0  0  0  0  0  0  0  0  0  0
    0.1850   -1.0333   -0.6603 H   0  0  0  0  0  0  0  0  0  0  0  0
   -1.5397   -0.2683   -1.7079 C   0  0  0  0  0  0  0  0  0  0  0  0
   -1.0656   -0.5803   -2.6395 H   0  0  0  0  0  0  0  0  0  0  0  0
   -2.2921   -1.0074   -1.4259 H   0  0  0  0  0  0  0  0  0  0  0  0
   -2.2182    1.0922   -1.9194 C   0  0  0  0  0  0  0  0  0  0  0  0
   -2.6793    1.4089   -0.9808 H   0  0  0  0  0  0  0  0  0  0  0  0
   -1.4632    1.8253   -2.2102 H   0  0  0  0  0  0  0  0  0  0  0  0
   -3.2904    0.9920   -3.0116 C   0  0  0  0  0  0  0  0  0  0  0  0
   -2.8105    0.6665   -3.9403 H   0  0  0  0  0  0  0  0  0  0  0  0
   -4.0126    0.2233   -2.7204 H   0  0  0  0  0  0  0  0  0  0  0  0
   -3.9801    2.2902   -3.2203 N   0  3  0  0  0  0  0  0  0  0  0  0
   -3.3184    3.0033   -3.5003 H   0  0  0  0  0  0  0  0  0  0  0  0
   -4.6841    2.2071   -3.9431 H   0  0  0  0  0  0  0  0  0  0  0  0
   -4.4336    2.5916   -2.3657 H   0  0  0  0  0  0  0  0  0  0  0  0
   -1.3103    1.3348    1.2791 C   0  0  0  0  0  0  0  0  0  0  0  0
   -2.2333    1.9891    0.8084 O   0  0  0  0  0  0  0  0  0  0  0  0
   -0.4429    1.8293    2.1683 N   0  0  0  0  0  0  0  0  0  0  0  0
    0.2668    1.2118    2.5263 H   0  0  0  0  0  0  0  0  0  0  0  0
   -0.5118    3.1863    2.7135 C   0  0  0  0  0  0  0  0  0  0  0  0
   -1.4470    3.3159    3.2625 H   0  0  0  0  0  0  0  0  0  0  0  0
    0.3243    3.3682    3.3896 H   0  0  0  0  0  0  0  0  0  0  0  0
   -0.4850    3.9172    1.9023 H   0  0  0  0  0  0  0  0  0  0  0  0
  5  6  2  0  0  0  0
  5  7  1  0  0  0  0
  2  3  1  0  0  0  0
  2  4  1  0  0  0  0
  2  5  1  0  0  0  0
  1  2  1  0  0  0  0
 27 28  2  0  0  0  0
 27 29  1  0  0  0  0
 23 24  1  0  0  0  0
 23 25  1  0  0  0  0
 23 26  1  0  0  0  0
 20 21  1  0  0  0  0
 20 22  1  0  0  0  0
 20 23  1  0  0  0  0
 17 18  1  0  0  0  0
 17 19  1  0  0  0  0
 17 20  1  0  0  0  0
 14 15  1  0  0  0  0
 14 16  1  0  0  0  0
 14 17  1  0  0  0  0
 11 12  1  0  0  0  0
 11 13  1  0  0  0  0
 11 14  1  0  0  0  0
  9 10  1  0  0  0  0
  9 11  1  0  0  0  0
  9 27  1  0  0  0  0
  7  8  1  0  0  0  0
  7  9  1  0  0  0  0
 31 32  1  0  0  0  0
 31 33  1  0  0  0  0
 31 34  1  0  0  0  0
 29 30  1  0  0  0  0
 29 31  1  0  0  0  0
M  CHG  1  23   1
M  END
$$$$
default_name
  -OEChem-02102213163D

 34 33  0     1  0  0  0  0  0999 V2000
   -3.8899   -3.6747    1.6490 H   0  0  0  0  0  0  0  0  0  0  0  0
   -3.9109   -2.6717    1.2250 C   0  0  0  0  0  0  0  0  0  0  0  0
   -4.6009   -2.0517    1.7950 H   0  0  0  0  0  0  0  0  0  0  0  0
   -4.2309   -2.7237    0.1860 H   0  0  0  0  0  0  0  0  0  0  0  0
   -2.5229   -2.0787    1.2980 C   0  0  0  0  0  0  0  0  0  0  0  0
   -1.5999   -2.7227    1.7810 O   0  0  0  0  0  0  0  0  0  0  0  0
   -2.3659   -0.8447    0.8120 N   0  0  0  0  0  0  0  0  0  0  0  0
   -3.1749   -0.3807    0.4220 H   0  0  0  0  0  0  0  0  0  0  0  0
   -1.0919   -0.1077    0.8170 C   0  0  1  0  0  0  0  0  0  0  0  0
   -0.4136   -0.6011    1.5155 H   0  0  0  0  0  0  0  0  0  0  0  0
   -0.4834   -0.1723   -0.5965 C   0  0  0  0  0  0  0  0  0  0  0  0
    0.1077    0.7298   -0.7620 H   0  0  0  0  0  0  0  0  0  0  0  0
    0.1850   -1.0333   -0.6603 H   0  0  0  0  0  0  0  0  0  0  0  0
   -1.5397   -0.2683   -1.7079 C   0  0  0  0  0  0  0  0  0  0  0  0
   -1.1337   -0.8250   -2.5536 H   0  0  0  0  0  0  0  0  0  0  0  0
   -2.4178   -0.7919   -1.3250 H   0  0  0  0  0  0  0  0  0  0  0  0
   -1.9495    1.1341   -2.1785 C   0  0  0  0  0  0  0  0  0  0  0  0
   -2.3417    1.6942   -1.3262 H   0  0  0  0  0  0  0  0  0  0  0  0
   -1.0699    1.6499   -2.5689 H   0  0  0  0  0  0  0  0  0  0  0  0
   -3.0222    1.0404   -3.2708 C   0  0  0  0  0  0  0  0  0  0  0  0
   -2.6130    0.4701   -4.1110 H   0  0  0  0  0  0  0  0  0  0  0  0
   -3.8762    0.4843   -2.8725 H   0  0  0  0  0  0  0  0  0  0  0  0
   -3.4547    2.3852   -3.7279 N   0  3  0  0  0  0  0  0  0  0  0  0
   -2.6705    2.9009   -4.1072 H   0  0  0  0  0  0  0  0  0  0  0  0
   -4.1622    2.3060   -4.4477 H   0  0  0  0  0  0  0  0  0  0  0  0
   -3.8425    2.9141   -2.9554 H   0  0  0  0  0  0  0  0  0  0  0  0
   -1.3103    1.3348    1.2791 C   0  0  0  0  0  0  0  0  0  0  0  0
   -2.2333    1.9891    0.8084 O   0  0  0  0  0  0  0  0  0  0  0  0
   -0.4429    1.8293    2.1683 N   0  0  0  0  0  0  0  0  0  0  0  0
    0.2668    1.2118    2.5263 H   0  0  0  0  0  0  0  0  0  0  0  0
   -0.5118    3.1863    2.7135 C   0  0  0  0  0  0  0  0  0  0  0  0
   -1.4470    3.3159    3.2625 H   0  0  0  0  0  0  0  0  0  0  0  0
    0.3243    3.3682    3.3896 H   0  0  0  0  0  0  0  0  0  0  0  0
   -0.4850    3.9172    1.9023 H   0  0  0  0  0  0  0  0  0  0  0  0
  5  6  2  0  0  0  0
  5  7  1  0  0  0  0
  2  3  1  0  0  0  0
  2  4  1  0  0  0  0
  2  5  1  0  0  0  0
  1  2  1  0  0  0  0
 27 28  2  0  0  0  0
 27 29  1  0  0  0  0
 23 24  1  0  0  0  0
 23 25  1  0  0  0  0
 23 26  1  0  0  0  0
 20 21  1  0  0  0  0
 20 22  1  0  0  0  0
 20 23  1  0  0  0  0
 17 18  1  0  0  0  0
 17 19  1  0  0  0  0
 17 20  1  0  0  0  0
 14 15  1  0  0  0  0
 14 16  1  0  0  0  0
 14 17  1  0  0  0  0
 11 12  1  0  0  0  0
 11 13  1  0  0  0  0
 11 14  1  0  0  0  0
  9 10  1  0  0  0  0
  9 11  1  0  0  0  0
  9 27  1  0  0  0  0
  7  8  1  0  0  0  0
  7  9  1  0  0  0  0
 31 32  1  0  0  0  0
 31 33  1  0  0  0  0
 31 34  1  0  0  0  0
 29 30  1  0  0  0  0
 29 31  1  0  0  0  0
M  CHG  1  23   1
M  END
$$$$
default_name
  -OEChem-02102213163D

 34 33  0     1  0  0  0  0  0999 V2000
   -3.8899   -3.6747    1.6490 H   0  0  0  0  0  0  0  0  0  0  0  0
   -3.9109   -2.6717    1.2250 C   0  0  0  0  0  0  0  0  0  0  0  0
   -4.6009   -2.0517    1.7950 H   0  0  0  0  0  0  0  0  0  0  0  0
   -4.2309   -2.7237    0.1860 H   0  0  0  0  0  0  0  0  0  0  0  0
   -2.5229   -2.0787    1.2980 C   0  0  0  0  0  0  0  0  0  0  0  0
   -1.5999   -2.7227    1.7810 O   0  0  0  0  0  0  0  0  0  0  0  0
   -2.3659   -0.8447    0.8120 N   0  0  0  0  0  0  0  0  0  0  0  0
   -3.1749   -0.3807    0.4220 H   0  0  0  0  0  0  0  0  0  0  0  0
   -1.0919   -0.1077    0.8170 C   0  0  1  0  0  0  0  0  0  0  0  0
   -0.4136   -0.6011    1.5155 H   0  0  0  0  0  0  0  0  0  0  0  0
   -0.4834   -0.1723   -0.5965 C   0  0  0  0  0  0  0  0  0  0  0  0
    0.1077    0.7298   -0.7620 H   0  0  0  0  0  0  0  0  0  0  0  0
    0.1850   -1.0333   -0.6603 H   0  0  0  0  0  0  0  0  0  0  0  0
   -1.5397   -0.2683   -1.7079 C   0  0  0  0  0  0  0  0  0  0  0  0
   -1.2467   -1.0333   -2.4282 H   0  0  0  0  0  0  0  0  0  0  0  0
   -2.5006   -0.5423   -1.2679 H   0  0  0  0  0  0  0  0  0  0  0  0
   -1.6779    1.0782   -2.4318 C   0  0  0  0  0  0  0  0  0  0  0  0
   -1.9567    1.8451   -1.7052 H   0  0  0  0  0  0  0  0  0  0  0  0
   -0.7171    1.3430   -2.8777 H   0  0  0  0  0  0  0  0  0  0  0  0
   -2.7498    0.9909   -3.5253 C   0  0  0  0  0  0  0  0  0  0  0  0
   -2.4562    0.2131   -4.2378 H   0  0  0  0  0  0  0  0  0  0  0  0
   -3.6931    0.6837   -3.0637 H   0  0  0  0  0  0  0  0  0  0  0  0
   -2.9211    2.2883   -4.2266 N   0  3  0  0  0  0  0  0  0  0  0  0
   -2.0540    2.5728   -4.6648 H   0  0  0  0  0  0  0  0  0  0  0  0
   -3.6315    2.2141   -4.9442 H   0  0  0  0  0  0  0  0  0  0  0  0
   -3.2016    3.0099   -3.5728 H   0  0  0  0  0  0  0  0  0  0  0  0
   -1.3103    1.3348    1.2791 C   0  0  0  0  0  0  0  0  0  0  0  0
   -2.2333    1.9891    0.8084 O   0  0  0  0  0  0  0  0  0  0  0  0
   -0.4429    1.8293    2.1683 N   0  0  0  0  0  0  0  0  0  0  0  0
    0.2668    1.2118    2.5263 H   0  0  0  0  0  0  0  0  0  0  0  0
   -0.5118    3.1863    2.7135 C   0  0  0  0  0  0  0  0  0  0  0  0
   -1.4470    3.3159    3.2625 H   0  0  0  0  0  0  0  0  0  0  0  0
    0.3243    3.3682    3.3896 H   0  0  0  0  0  0  0  0  0  0  0  0
   -0.4850    3.9172    1.9023 H   0  0  0  0  0  0  0  0  0  0  0  0
  5  6  2  0  0  0  0
  5  7  1  0  0  0  0
  2  3  1  0  0  0  0
  2  4  1  0  0  0  0
  2  5  1  0  0  0  0
  1  2  1  0  0  0  0
 27 28  2  0  0  0  0
 27 29  1  0  0  0  0
 23 24  1  0  0  0  0
 23 25  1  0  0  0  0
 23 26  1  0  0  0  0
 20 21  1  0  0  0  0
 20 22  1  0  0  0  0
 20 23  1  0  0  0  0
 17 18  1  0  0  0  0
 17 19  1  0  0  0  0
 17 20  1  0  0  0  0
 14 15  1  0  0  0  0
 14 16  1  0  0  0  0
 14 17  1  0  0  0  0
 11 12  1  0  0  0  0
 11 13  1  0  0  0  0
 11 14  1  0  0  0  0
  9 10  1  0  0  0  0
  9 11  1  0  0  0  0
  9 27  1  0  0  0  0
  7  8  1  0  0  0  0
  7  9  1  0  0  0  0
 31 32  1  0  0  0  0
 31 33  1  0  0  0  0
 31 34  1  0  0  0  0
 29 30  1  0  0  0  0
 29 31  1  0  0  0  0
M  CHG  1  23   1
M  END
$$$$
default_name
  -OEChem-02102213163D

 34 33  0     1  0  0  0  0  0999 V2000
   -3.8899   -3.6747    1.6490 H   0  0  0  0  0  0  0  0  0  0  0  0
   -3.9109   -2.6717    1.2250 C   0  0  0  0  0  0  0  0  0  0  0  0
   -4.6009   -2.0517    1.7950 H   0  0  0  0  0  0  0  0  0  0  0  0
   -4.2309   -2.7237    0.1860 H   0  0  0  0  0  0  0  0  0  0  0  0
   -2.5229   -2.0787    1.2980 C   0  0  0  0  0  0  0  0  0  0  0  0
   -1.5999   -2.7227    1.7810 O   0  0  0  0  0  0  0  0  0  0  0  0
   -2.3659   -0.8447    0.8120 N   0  0  0  0  0  0  0  0  0  0  0  0
   -3.1749   -0.3807    0.4220 H   0  0  0  0  0  0  0  0  0  0  0  0
   -1.0919   -0.1077    0.8170 C   0  0  1  0  0  0  0  0  0  0  0  0
   -0.4136   -0.6011    1.5155 H   0  0  0  0  0  0  0  0  0  0  0  0
   -0.4834   -0.1723   -0.5965 C   0  0  0  0  0  0  0  0  0  0  0  0
    0.1077    0.7298   -0.7620 H   0  0  0  0  0  0  0  0  0  0  0  0
    0.1850   -1.0333   -0.6603 H   0  0  0  0  0  0  0  0  0  0  0  0
   -1.5397   -0.2683   -1.7079 C   0  0  0  0  0  0  0  0  0  0  0  0
   -1.3969   -1.1911   -2.2718 H   0  0  0  0  0  0  0  0  0  0  0  0
   -2.5346   -0.2755   -1.2585 H   0  0  0  0  0  0  0  0  0  0  0  0
   -1.4219    0.9282   -2.6622 C   0  0  0  0  0  0  0  0  0  0  0  0
   -1.5504    1.8513   -2.0919 H   0  0  0  0  0  0  0  0  0  0  0  0
   -0.4287    0.9255   -3.1157 H   0  0  0  0  0  0  0  0  0  0  0  0
   -2.4919    0.8468   -3.7580 C   0  0  0  0  0  0  0  0  0  0  0  0
   -2.3509   -0.0871   -4.3120 H   0  0  0  0  0  0  0  0  0  0  0  0
   -3.4759    0.8081   -3.2810 H   0  0  0  0  0  0  0  0  0  0  0  0
   -2.4159    2.0061   -4.6825 N   0  3  0  0  0  0  0  0  0  0  0  0
   -1.5110    2.0411   -5.1350 H   0  0  0  0  0  0  0  0  0  0  0  0
   -3.1280    1.9375   -5.3988 H   0  0  0  0  0  0  0  0  0  0  0  0
   -2.5546    2.8727   -4.1759 H   0  0  0  0  0  0  0  0  0  0  0  0
   -1.3103    1.3348    1.2791 C   0  0  0  0  0  0  0  0  0  0  0  0
   -2.2333    1.9891    0.8084 O   0  0  0  0  0  0  0  0  0  0  0  0
   -0.4429    1.8293    2.1683 N   0  0  0  0  0  0  0  0  0  0  0  0
    0.2668    1.2118    2.5263 H   0  0  0  0  0  0  0  0  0  0  0  0
   -0.5118    3.1863    2.7135 C   0  0  0  0  0  0  0  0  0  0  0  0
   -1.4470    3.3159    3.2625 H   0  0  0  0  0  0  0  0  0  0  0  0
    0.3243    3.3682    3.3896 H   0  0  0  0  0  0  0  0  0  0  0  0
   -0.4850    3.9172    1.9023 H   0  0  0  0  0  0  0  0  0  0  0  0
  5  6  2  0  0  0  0
  5  7  1  0  0  0  0
  2  3  1  0  0  0  0
  2  4  1  0  0  0  0
  2  5  1  0  0  0  0
  1  2  1  0  0  0  0
 27 28  2  0  0  0  0
 27 29  1  0  0  0  0
 23 24  1  0  0  0  0
 23 25  1  0  0  0  0
 23 26  1  0  0  0  0
 20 21  1  0  0  0  0
 20 22  1  0  0  0  0
 20 23  1  0  0  0  0
 17 18  1  0  0  0  0
 17 19  1  0  0  0  0
 17 20  1  0  0  0  0
 14 15  1  0  0  0  0
 14 16  1  0  0  0  0
 14 17  1  0  0  0  0
 11 12  1  0  0  0  0
 11 13  1  0  0  0  0
 11 14  1  0  0  0  0
  9 10  1  0  0  0  0
  9 11  1  0  0  0  0
  9 27  1  0  0  0  0
  7  8  1  0  0  0  0
  7  9  1  0  0  0  0
 31 32  1  0  0  0  0
 31 33  1  0  0  0  0
 31 34  1  0  0  0  0
 29 30  1  0  0  0  0
 29 31  1  0  0  0  0
M  CHG  1  23   1
M  END
$$$$
default_name
  -OEChem-02102213163D

 34 33  0     1  0  0  0  0  0999 V2000
   -3.8899   -3.6747    1.6490 H   0  0  0  0  0  0  0  0  0  0  0  0
   -3.9109   -2.6717    1.2250 C   0  0  0  0  0  0  0  0  0  0  0  0
   -4.6009   -2.0517    1.7950 H   0  0  0  0  0  0  0  0  0  0  0  0
   -4.2309   -2.7237    0.1860 H   0  0  0  0  0  0  0  0  0  0  0  0
   -2.5229   -2.0787    1.2980 C   0  0  0  0  0  0  0  0  0  0  0  0
   -1.5999   -2.7227    1.7810 O   0  0  0  0  0  0  0  0  0  0  0  0
   -2.3659   -0.8447    0.8120 N   0  0  0  0  0  0  0  0  0  0  0  0
   -3.1749   -0.3807    0.4220 H   0  0  0  0  0  0  0  0  0  0  0  0
   -1.0919   -0.1077    0.8170 C   0  0  1  0  0  0  0  0  0  0  0  0
   -0.4136   -0.6011    1.5155 H   0  0  0  0  0  0  0  0  0  0  0  0
   -0.4834   -0.1723   -0.5965 C   0  0  0  0  0  0  0  0  0  0  0  0
    0.1077    0.7298   -0.7620 H   0  0  0  0  0  0  0  0  0  0  0  0
    0.1850   -1.0333   -0.6603 H   0  0  0  0  0  0  0  0  0  0  0  0
   -1.5397   -0.2683   -1.7079 C   0  0  0  0  0  0  0  0  0  0  0  0
   -1.5740   -1.2875   -2.0951 H   0  0  0  0  0  0  0  0  0  0  0  0
   -2.5178   -0.0097   -1.2975 H   0  0  0  0  0  0  0  0  0  0  0  0
   -1.1990    0.6944   -2.8538 C   0  0  0  0  0  0  0  0  0  0  0  0
   -1.1506    1.7124   -2.4599 H   0  0  0  0  0  0  0  0  0  0  0  0
   -0.2245    0.4259   -3.2667 H   0  0  0  0  0  0  0  0  0  0  0  0
   -2.2660    0.6178   -3.9530 C   0  0  0  0  0  0  0  0  0  0  0  0
   -2.3042   -0.4099   -4.3285 H   0  0  0  0  0  0  0  0  0  0  0  0
   -3.2392    0.8489   -3.5094 H   0  0  0  0  0  0  0  0  0  0  0  0
   -1.9733    1.5577   -5.0644 N   0  3  0  0  0  0  0  0  0  0  0  0
   -1.0784    1.3423   -5.4858 H   0  0  0  0  0  0  0  0  0  0  0  0
   -2.6861    1.4952   -5.7806 H   0  0  0  0  0  0  0  0  0  0  0  0
   -1.9456    2.5116   -4.7235 H   0  0  0  0  0  0  0  0  0  0  0  0
   -1.3103    1.3348    1.2791 C   0  0  0  0  0  0  0  0  0  0  0  0
   -2.2333    1.9891    0.8084 O   0  0  0  0  0  0  0  0  0  0  0  0
   -0.4429    1.8293    2.1683 N   0  0  0  0  0  0  0  0  0  0  0  0
    0.2668    1.2118    2.5263 H   0  0  0  0  0  0  0  0  0  0  0  0
   -0.5118    3.1863    2.7135 C   0  0  0  0  0  0  0  0  0  0  0  0
   -1.4470    3.3159    3.2625 H   0  0  0  0  0  0  0  0  0  0  0  0
    0.3243    3.3682    3.3896 H   0  0  0  0  0  0  0  0  0  0  0  0
   -0.4850    3.9172    1.9023 H   0  0  0  0  0  0  0  0  0  0  0  0
  5  6  2  0  0  0  0
  5  7  1  0  0  0  0
  2  3  1  0  0  0  0
  2  4  1  0  0  0  0
  2  5  1  0  0  0  0
  1  2  1  0  0  0  0
 27 28  2  0  0  0  0
 27 29  1  0  0  0  0
 23 24  1  0  0  0  0
 23 25  1  0  0  0  0
 23 26  1  0  0  0  0
 20 21  1  0  0  0  0
 20 22  1  0  0  0  0
 20 23  1  0  0  0  0
 17 18  1  0  0  0  0
 17 19  1  0  0  0  0
 17 20  1  0  0  0  0
 14 15  1  0  0  0  0
 14 16  1  0  0  0  0
 14 17  1  0  0  0  0
 11 12  1  0  0  0  0
 11 13  1  0  0  0  0
 11 14  1  0  0  0  0
  9 10  1  0  0  0  0
  9 11  1  0  0  0  0
  9 27  1  0  0  0  0
  7  8  1  0  0  0  0
  7  9  1  0  0  0  0
 31 32  1  0  0  0  0
 31 33  1  0  0  0  0
 31 34  1  0  0  0  0
 29 30  1  0  0  0  0
 29 31  1  0  0  0  0
M  CHG  1  23   1
M  END
$$$$
default_name
  -OEChem-02102213163D

 34 33  0     1  0  0  0  0  0999 V2000
   -3.8899   -3.6747    1.6490 H   0  0  0  0  0  0  0  0  0  0  0  0
   -3.9109   -2.6717    1.2250 C   0  0  0  0  0  0  0  0  0  0  0  0
   -4.6009   -2.0517    1.7950 H   0  0  0  0  0  0  0  0  0  0  0  0
   -4.2309   -2.7237    0.1860 H   0  0  0  0  0  0  0  0  0  0  0  0
   -2.5229   -2.0787    1.2980 C   0  0  0  0  0  0  0  0  0  0  0  0
   -1.5999   -2.7227    1.7810 O   0  0  0  0  0  0  0  0  0  0  0  0
   -2.3659   -0.8447    0.8120 N   0  0  0  0  0  0  0  0  0  0  0  0
   -3.1749   -0.3807    0.4220 H   0  0  0  0  0  0  0  0  0  0  0  0
   -1.0919   -0.1077    0.8170 C   0  0  1  0  0  0  0  0  0  0  0  0
   -0.4136   -0.6011    1.5155 H   0  0  0  0  0  0  0  0  0  0  0  0
   -0.4834   -0.1723   -0.5965 C   0  0  0  0  0  0  0  0  0  0  0  0
    0.1077    0.7298   -0.7620 H   0  0  0  0  0  0  0  0  0  0  0  0
    0.1850   -1.0333   -0.6603 H   0  0  0  0  0  0  0  0  0  0  0  0
   -1.5397   -0.2683   -1.7079 C   0  0  0  0  0  0  0  0  0  0  0  0
   -1.7661   -1.3160   -1.9102 H   0  0  0  0  0  0  0  0  0  0  0  0
   -2.4511    0.2369   -1.3822 H   0  0  0  0  0  0  0  0  0  0  0  0
   -1.0243    0.3928   -2.9938 C   0  0  0  0  0  0  0  0  0  0  0  0
   -0.7844    1.4379   -2.7842 H   0  0  0  0  0  0  0  0  0  0  0  0
   -0.1184   -0.1218   -3.3203 H   0  0  0  0  0  0  0  0  0  0  0  0
   -2.0875    0.3197   -4.0969 C   0  0  0  0  0  0  0  0  0  0  0  0
   -2.3192   -0.7335   -4.2863 H   0  0  0  0  0  0  0  0  0  0  0  0
   -2.9993    0.8033   -3.7336 H   0  0  0  0  0  0  0  0  0  0  0  0
   -1.6235    0.9738   -5.3464 N   0  3  0  0  0  0  0  0  0  0  0  0
   -0.7857    0.5238   -5.6933 H   0  0  0  0  0  0  0  0  0  0  0  0
   -2.3359    0.9173   -6.0635 H   0  0  0  0  0  0  0  0  0  0  0  0
   -1.4161    1.9514   -5.1784 H   0  0  0  0  0  0  0  0  0  0  0  0
   -1.3103    1.3348    1.2791 C   0  0  0  0  0  0  0  0  0  0  0  0
   -2.2333    1.9891    0.8084 O   0  0  0  0  0  0  0  0  0  0  0  0
   -0.4429    1.8293    2.1683 N   0  0  0  0  0  0  0  0  0  0  0  0
    0.2668    1.2118    2.5263 H   0  0  0  0  0  0  0  0  0  0  0  0
   -0.5118    3.1863    2.7135 C   0  0  0  0  0  0  0  0  0  0  0  0
   -1.4470    3.3159    3.2625 H   0  0  0  0  0  0  0  0  0  0  0  0
    0.3243    3.3682    3.3896 H   0  0  0  0  0  0  0  0  0  0  0  0
   -0.4850    3.9172    1.9023 H   0  0  0  0  0  0  0  0  0  0  0  0
  5  6  2  0  0  0  0
  5  7  1  0  0  0  0
  2  3  1  0  0  0  0
  2  4  1  0  0  0  0
  2  5  1  0  0  0  0
  1  2  1  0  0  0  0
 27 28  2  0  0  0  0
 27 29  1  0  0  0  0
 23 24  1  0  0  0  0
 23 25  1  0  0  0  0
 23 26  1  0  0  0  0
 20 21  1  0  0  0  0
 20 22  1  0  0  0  0
 20 23  1  0  0  0  0
 17 18  1  0  0  0  0
 17 19  1  0  0  0  0
 17 20  1  0  0  0  0
 14 15  1  0  0  0  0
 14 16  1  0  0  0  0
 14 17  1  0  0  0  0
 11 12  1  0  0  0  0
 11 13  1  0  0  0  0
 11 14  1  0  0  0  0
  9 10  1  0  0  0  0
  9 11  1  0  0  0  0
  9 27  1  0  0  0  0
  7  8  1  0  0  0  0
  7  9  1  0  0  0  0
 31 32  1  0  0  0  0
 31 33  1  0  0  0  0
 31 34  1  0  0  0  0
 29 30  1  0  0  0  0
 29 31  1  0  0  0  0
M  CHG  1  23   1
M  END
$$$$
default_name
  -OEChem-02102213163D

 34 33  0     1  0  0  0  0  0999 V2000
   -3.8899   -3.6747    1.6490 H   0  0  0  0  0  0  0  0  0  0  0  0
   -3.9109   -2.6717    1.2250 C   0  0  0  0  0  0  0  0  0  0  0  0
   -4.6009   -2.0517    1.7950 H   0  0  0  0  0  0  0  0  0  0  0  0
   -4.2309   -2.7237    0.1860 H   0  0  0  0  0  0  0  0  0  0  0  0
   -2.5229   -2.0787    1.2980 C   0  0  0  0  0  0  0  0  0  0  0  0
   -1.5999   -2.7227    1.7810 O   0  0  0  0  0  0  0  0  0  0  0  0
   -2.3659   -0.8447    0.8120 N   0  0  0  0  0  0  0  0  0  0  0  0
   -3.1749   -0.3807    0.4220 H   0  0  0  0  0  0  0  0  0  0  0  0
   -1.0919   -0.1077    0.8170 C   0  0  1  0  0  0  0  0  0  0  0  0
   -0.4136   -0.6011    1.5155 H   0  0  0  0  0  0  0  0  0  0  0  0
   -0.4834   -0.1723   -0.5965 C   0  0  0  0  0  0  0  0  0  0  0  0
    0.1077    0.7298   -0.7620 H   0  0  0  0  0  0  0  0  0  0  0  0
    0.1850   -1.0333   -0.6603 H   0  0  0  0  0  0  0  0  0  0  0  0
   -1.5397   -0.2683   -1.7079 C   0  0  0  0  0  0  0  0  0  0  0  0
   -1.9599   -1.2747   -1.7296 H   0  0  0  0  0  0  0  0  0  0  0  0
   -2.3391    0.4475   -1.5068 H   0  0  0  0  0  0  0  0  0  0  0  0
   -0.9098    0.0438   -3.0725 C   0  0  0  0  0  0  0  0  0  0  0  0
   -0.4768    1.0465   -3.0428 H   0  0  0  0  0  0  0  0  0  0  0  0
   -0.1175   -0.6802   -3.2729 H   0  0  0  0  0  0  0  0  0  0  0  0
   -1.9686   -0.0273   -4.1800 C   0  0  0  0  0  0  0  0  0  0  0  0
   -2.3950   -1.0357   -4.1882 H   0  0  0  0  0  0  0  0  0  0  0  0
   -2.7724    0.6745   -3.9380 H   0  0  0  0  0  0  0  0  0  0  0  0
   -1.3905    0.2942   -5.5092 N   0  3  0  0  0  0  0  0  0  0  0  0
   -0.6529   -0.3585   -5.7434 H   0  0  0  0  0  0  0  0  0  0  0  0
   -2.1013    0.2432   -6.2283 H   0  0  0  0  0  0  0  0  0  0  0  0
   -1.0021    1.2301   -5.5095 H   0  0  0  0  0  0  0  0  0  0  0  0
   -1.3103    1.3348    1.2791 C   0  0  0  0  0  0  0  0  0  0  0  0
   -2.2333    1.9891    0.8084 O   0  0  0  0  0  0  0  0  0  0  0  0
   -0.4429    1.8293    2.1683 N   0  0  0  0  0  0  0  0  0  0  0  0
    0.2668    1.2118    2.5263 H   0  0  0  0  0  0  0  0  0  0  0  0
   -0.5118    3.1863    2.7135 C   0  0  0  0  0  0  0  0  0  0  0  0
   -1.4470    3.3159    3.2625 H   0  0  0  0  0  0  0  0  0  0  0  0
    0.3243    3.3682    3.3896 H   0  0  0  0  0  0  0  0  0  0  0  0
   -0.4850    3.9172    1.9023 H   0  0  0  0  0  0  0  0  0  0  0  0
  5  6  2  0  0  0  0
  5  7  1  0  0  0  0
  2  3  1  0  0  0  0
  2  4  1  0  0  0  0
  2  5  1  0  0  0  0
  1  2  1  0  0  0  0
 27 28  2  0  0  0  0
 27 29  1  0  0  0  0
 23 24  1  0  0  0  0
 23 25  1  0  0  0  0
 23 26  1  0  0  0  0
 20 21  1  0  0  0  0
 20 22  1  0  0  0  0
 20 23  1  0  0  0  0
 17 18  1  0  0  0  0
 17 19  1  0  0  0  0
 17 20  1  0  0  0  0
 14 15  1  0  0  0  0
 14 16  1  0  0  0  0
 14 17  1  0  0  0  0
 11 12  1  0  0  0  0
 11 13  1  0  0  0  0
 11 14  1  0  0  0  0
  9 10  1  0  0  0  0
  9 11  1  0  0  0  0
  9 27  1  0  0  0  0
  7  8  1  0  0  0  0
  7  9  1  0  0  0  0
 31 32  1  0  0  0  0
 31 33  1  0  0  0  0
 31 34  1  0  0  0  0
 29 30  1  0  0  0  0
 29 31  1  0  0  0  0
M  CHG  1  23   1
M  END
$$$$
default_name
  -OEChem-02102213163D

 34 33  0     1  0  0  0  0  0999 V2000
   -3.8899   -3.6747    1.6490 H   0  0  0  0  0  0  0  0  0  0  0  0
   -3.9109   -2.6717    1.2250 C   0  0  0  0  0  0  0  0  0  0  0  0
   -4.6009   -2.0517    1.7950 H   0  0  0  0  0  0  0  0  0  0  0  0
   -4.2309   -2.7237    0.1860 H   0  0  0  0  0  0  0  0  0  0  0  0
   -2.5229   -2.0787    1.2980 C   0  0  0  0  0  0  0  0  0  0  0  0
   -1.5999   -2.7227    1.7810 O   0  0  0  0  0  0  0  0  0  0  0  0
   -2.3659   -0.8447    0.8120 N   0  0  0  0  0  0  0  0  0  0  0  0
   -3.1749   -0.3807    0.4220 H   0  0  0  0  0  0  0  0  0  0  0  0
   -1.0919   -0.1077    0.8170 C   0  0  1  0  0  0  0  0  0  0  0  0
   -0.4136   -0.6011    1.5155 H   0  0  0  0  0  0  0  0  0  0  0  0
   -0.4834   -0.1723   -0.5965 C   0  0  0  0  0  0  0  0  0  0  0  0
    0.3083    0.5751   -0.6686 H   0  0  0  0  0  0  0  0  0  0  0  0
   -0.0367   -1.1567   -0.7501 H   0  0  0  0  0  0  0  0  0  0  0  0
   -1.5063    0.0987   -1.7103 C   0  0  0  0  0  0  0  0  0  0  0  0
   -2.3076   -0.6398   -1.6608 H   0  0  0  0  0  0  0  0  0  0  0  0
   -1.9309    1.0951   -1.5737 H   0  0  0  0  0  0  0  0  0  0  0  0
   -0.8317    0.0182   -3.0867 C   0  0  0  0  0  0  0  0  0  0  0  0
   -0.0201    0.7486   -3.1277 H   0  0  0  0  0  0  0  0  0  0  0  0
   -0.4170   -0.9827   -3.2221 H   0  0  0  0  0  0  0  0  0  0  0  0
   -1.8464    0.3130   -4.1985 C   0  0  0  0  0  0  0  0  0  0  0  0
   -2.6539   -0.4236   -4.1356 H   0  0  0  0  0  0  0  0  0  0  0  0
   -2.2800    1.3017   -4.0203 H   0  0  0  0  0  0  0  0  0  0  0  0
   -1.2142    0.2652   -5.5412 N   0  3  0  0  0  0  0  0  0  0  0  0
   -0.8203   -0.6507   -5.7162 H   0  0  0  0  0  0  0  0  0  0  0  0
   -1.8963    0.4621   -6.2629 H   0  0  0  0  0  0  0  0  0  0  0  0
   -0.4716    0.9515   -5.6075 H   0  0  0  0  0  0  0  0  0  0  0  0
   -1.3103    1.3348    1.2791 C   0  0  0  0  0  0  0  0  0  0  0  0
   -2.2333    1.9891    0.8084 O   0  0  0  0  0  0  0  0  0  0  0  0
   -0.4429    1.8293    2.1683 N   0  0  0  0  0  0  0  0  0  0  0  0
    0.2668    1.2118    2.5263 H   0  0  0  0  0  0  0  0  0  0  0  0
   -0.5118    3.1863    2.7135 C   0  0  0  0  0  0  0  0  0  0  0  0
   -1.4470    3.3159    3.2625 H   0  0  0  0  0  0  0  0  0  0  0  0
    0.3243    3.3682    3.3896 H   0  0  0  0  0  0  0  0  0  0  0  0
   -0.4850    3.9172    1.9023 H   0  0  0  0  0  0  0  0  0  0  0  0
  5  6  2  0  0  0  0
  5  7  1  0  0  0  0
  2  3  1  0  0  0  0
  2  4  1  0  0  0  0
  2  5  1  0  0  0  0
  1  2  1  0  0  0  0
 27 28  2  0  0  0  0
 27 29  1  0  0  0  0
 23 24  1  0  0  0  0
 23 25  1  0  0  0  0
 23 26  1  0  0  0  0
 20 21  1  0  0  0  0
 20 22  1  0  0  0  0
 20 23  1  0  0  0  0
 17 18  1  0  0  0  0
 17 19  1  0  0  0  0
 17 20  1  0  0  0  0
 14 15  1  0  0  0  0
 14 16  1  0  0  0  0
 14 17  1  0  0  0  0
 11 12  1  0  0  0  0
 11 13  1  0  0  0  0
 11 14  1  0  0  0  0
  9 10  1  0  0  0  0
  9 11  1  0  0  0  0
  9 27  1  0  0  0  0
  7  8  1  0  0  0  0
  7  9  1  0  0  0  0
 31 32  1  0  0  0  0
 31 33  1  0  0  0  0
 31 34  1  0  0  0  0
 29 30  1  0  0  0  0
 29 31  1  0  0  0  0
M  CHG  1  23   1
M  END
$$$$
default_name
  -OEChem-02102213163D

 34 33  0     1  0  0  0  0  0999 V2000
   -3.8899   -3.6747    1.6490 H   0  0  0  0  0  0  0  0  0  0  0  0
   -3.9109   -2.6717    1.2250 C   0  0  0  0  0  0  0  0  0  0  0  0
   -4.6009   -2.0517    1.7950 H   0  0  0  0  0  0  0  0  0  0  0  0
   -4.2309   -2.7237    0.1860 H   0  0  0  0  0  0  0  0  0  0  0  0
   -2.5229   -2.0787    1.2980 C   0  0  0  0  0  0  0  0  0  0  0  0
   -1.5999   -2.7227    1.7810 O   0  0  0  0  0  0  0  0  0  0  0  0
   -2.3659   -0.8447    0.8120 N   0  0  0  0  0  0  0  0  0  0  0  0
   -3.1749   -0.3807    0.4220 H   0  0  0  0  0  0  0  0  0  0  0  0
   -1.0919   -0.1077    0.8170 C   0  0  1  0  0  0  0  0  0  0  0  0
   -0.4136   -0.6011    1.5155 H   0  0  0  0  0  0  0  0  0  0  0  0
   -0.4834   -0.1723   -0.5965 C   0  0  0  0  0  0  0  0  0  0  0  0
    0.3083    0.5751   -0.6686 H   0  0  0  0  0  0  0  0  0  0  0  0
   -0.0367   -1.1567   -0.7501 H   0  0  0  0  0  0  0  0  0  0  0  0
   -1.5063    0.0987   -1.7103 C   0  0  0  0  0  0  0  0  0  0  0  0
   -2.4249   -0.4536   -1.5078 H   0  0  0  0  0  0  0  0  0  0  0  0
   -1.7314    1.1666   -1.7396 H   0  0  0  0  0  0  0  0  0  0  0  0
   -0.9448   -0.3396   -3.0700 C   0  0  0  0  0  0  0  0  0  0  0  0
   -0.0170    0.2042   -3.2630 H   0  0  0  0  0  0  0  0  0  0  0  0
   -0.7301   -1.4097   -3.0384 H   0  0  0  0  0  0  0  0  0  0  0  0
   -1.9551   -0.0468   -4.1863 C   0  0  0  0  0  0  0  0  0  0  0  0
   -2.8787   -0.5938   -3.9706 H   0  0  0  0  0  0  0  0  0  0  0  0
   -2.1878    1.0222   -4.1729 H   0  0  0  0  0  0  0  0  0  0  0  0
   -1.4271   -0.4397   -5.5172 N   0  3  0  0  0  0  0  0  0  0  0  0
   -1.2197   -1.4303   -5.5391 H   0  0  0  0  0  0  0  0  0  0  0  0
   -2.1049   -0.2399   -6.2422 H   0  0  0  0  0  0  0  0  0  0  0  0
   -0.5767    0.0705   -5.7254 H   0  0  0  0  0  0  0  0  0  0  0  0
   -1.3103    1.3348    1.2791 C   0  0  0  0  0  0  0  0  0  0  0  0
   -2.2333    1.9891    0.8084 O   0  0  0  0  0  0  0  0  0  0  0  0
   -0.4429    1.8293    2.1683 N   0  0  0  0  0  0  0  0  0  0  0  0
    0.2668    1.2118    2.5263 H   0  0  0  0  0  0  0  0  0  0  0  0
   -0.5118    3.1863    2.7135 C   0  0  0  0  0  0  0  0  0  0  0  0
   -1.4470    3.3159    3.2625 H   0  0  0  0  0  0  0  0  0  0  0  0
    0.3243    3.3682    3.3896 H   0  0  0  0  0  0  0  0  0  0  0  0
   -0.4850    3.9172    1.9023 H   0  0  0  0  0  0  0  0  0  0  0  0
  5  6  2  0  0  0  0
  5  7  1  0  0  0  0
  2  3  1  0  0  0  0
  2  4  1  0  0  0  0
  2  5  1  0  0  0  0
  1  2  1  0  0  0  0
 27 28  2  0  0  0  0
 27 29  1  0  0  0  0
 23 24  1  0  0  0  0
 23 25  1  0  0  0  0
 23 26  1  0  0  0  0
 20 21  1  0  0  0  0
 20 22  1  0  0  0  0
 20 23  1  0  0  0  0
 17 18  1  0  0  0  0
 17 19  1  0  0  0  0
 17 20  1  0  0  0  0
 14 15  1  0  0  0  0
 14 16  1  0  0  0  0
 14 17  1  0  0  0  0
 11 12  1  0  0  0  0
 11 13  1  0  0  0  0
 11 14  1  0  0  0  0
  9 10  1  0  0  0  0
  9 11  1  0  0  0  0
  9 27  1  0  0  0  0
  7  8  1  0  0  0  0
  7  9  1  0  0  0  0
 31 32  1  0  0  0  0
 31 33  1  0  0  0  0
 31 34  1  0  0  0  0
 29 30  1  0  0  0  0
 29 31  1  0  0  0  0
M  CHG  1  23   1
M  END
$$$$
default_name
  -OEChem-02102213163D

 34 33  0     1  0  0  0  0  0999 V2000
   -3.8899   -3.6747    1.6490 H   0  0  0  0  0  0  0  0  0  0  0  0
   -3.9109   -2.6717    1.2250 C   0  0  0  0  0  0  0  0  0  0  0  0
   -4.6009   -2.0517    1.7950 H   0  0  0  0  0  0  0  0  0  0  0  0
   -4.2309   -2.7237    0.1860 H   0  0  0  0  0  0  0  0  0  0  0  0
   -2.5229   -2.0787    1.2980 C   0  0  0  0  0  0  0  0  0  0  0  0
   -1.5999   -2.7227    1.7810 O   0  0  0  0  0  0  0  0  0  0  0  0
   -2.3659   -0.8447    0.8120 N   0  0  0  0  0  0  0  0  0  0  0  0
   -3.1749   -0.3807    0.4220 H   0  0  0  0  0  0  0  0  0  0  0  0
   -1.0919   -0.1077    0.8170 C   0  0  1  0  0  0  0  0  0  0  0  0
   -0.4136   -0.6011    1.5155 H   0  0  0  0  0  0  0  0  0  0  0  0
   -0.4834   -0.1723   -0.5965 C   0  0  0  0  0  0  0  0  0  0  0  0
    0.3083    0.5751   -0.6686 H   0  0  0  0  0  0  0  0  0  0  0  0
   -0.0367   -1.1567   -0.7501 H   0  0  0  0  0  0  0  0  0  0  0  0
   -1.5063    0.0987   -1.7103 C   0  0  0  0  0  0  0  0  0  0  0  0
   -2.4963   -0.2253   -1.3866 H   0  0  0  0  0  0  0  0  0  0  0  0
   -1.5328    1.1695   -1.9212 H   0  0  0  0  0  0  0  0  0  0  0  0
   -1.1203   -0.6611   -2.9869 C   0  0  0  0  0  0  0  0  0  0  0  0
   -0.1223   -0.3455   -3.3001 H   0  0  0  0  0  0  0  0  0  0  0  0
   -1.1043   -1.7317   -2.7731 H   0  0  0  0  0  0  0  0  0  0  0  0
   -2.1270   -0.3719   -4.1074 C   0  0  0  0  0  0  0  0  0  0  0  0
   -3.1202   -0.6876   -3.7716 H   0  0  0  0  0  0  0  0  0  0  0  0
   -2.1582    0.7087   -4.2764 H   0  0  0  0  0  0  0  0  0  0  0  0
   -1.7639   -1.0765   -5.3629 N   0  3  0  0  0  0  0  0  0  0  0  0
   -1.7436   -2.0778   -5.2154 H   0  0  0  0  0  0  0  0  0  0  0  0
   -2.4372   -0.8752   -6.0916 H   0  0  0  0  0  0  0  0  0  0  0  0
   -0.8488   -0.7811   -5.6827 H   0  0  0  0  0  0  0  0  0  0  0  0
   -1.3103    1.3348    1.2791 C   0  0  0  0  0  0  0  0  0  0  0  0
   -2.2333    1.9891    0.8084 O   0  0  0  0  0  0  0  0  0  0  0  0
   -0.4429    1.8293    2.1683 N   0  0  0  0  0  0  0  0  0  0  0  0
    0.2668    1.2118    2.5263 H   0  0  0  0  0  0  0  0  0  0  0  0
   -0.5118    3.1863    2.7135 C   0  0  0  0  0  0  0  0  0  0  0  0
   -1.4470    3.3159    3.2625 H   0  0  0  0  0  0  0  0  0  0  0  0
    0.3243    3.3682    3.3896 H   0  0  0  0  0  0  0  0  0  0  0  0
   -0.4850    3.9172    1.9023 H   0  0  0  0  0  0  0  0  0  0  0  0
  5  6  2  0  0  0  0
  5  7  1  0  0  0  0
  2  3  1  0  0  0  0
  2  4  1  0  0  0  0
  2  5  1  0  0  0  0
  1  2  1  0  0  0  0
 27 28  2  0  0  0  0
 27 29  1  0  0  0  0
 23 24  1  0  0  0  0
 23 25  1  0  0  0  0
 23 26  1  0  0  0  0
 20 21  1  0  0  0  0
 20 22  1  0  0  0  0
 20 23  1  0  0  0  0
 17 18  1  0  0  0  0
 17 19  1  0  0  0  0
 17 20  1  0  0  0  0
 14 15  1  0  0  0  0
 14 16  1  0  0  0  0
 14 17  1  0  0  0  0
 11 12  1  0  0  0  0
 11 13  1  0  0  0  0
 11 14  1  0  0  0  0
  9 10  1  0  0  0  0
  9 11  1  0  0  0  0
  9 27  1  0  0  0  0
  7  8  1  0  0  0  0
  7  9  1  0  0  0  0
 31 32  1  0  0  0  0
 31 33  1  0  0  0  0
 31 34  1  0  0  0  0
 29 30  1  0  0  0  0
 29 31  1  0  0  0  0
M  CHG  1  23   1
M  END
$$$$
default_name
  -OEChem-02102213163D

 34 33  0     1  0  0  0  0  0999 V2000
   -3.8899   -3.6747    1.6490 H   0  0  0  0  0  0  0  0  0  0  0  0
   -3.9109   -2.6717    1.2250 C   0  0  0  0  0  0  0  0  0  0  0  0
   -4.6009   -2.0517    1.7950 H   0  0  0  0  0  0  0  0  0  0  0  0
   -4.2309   -2.7237    0.1860 H   0  0  0  0  0  0  0  0  0  0  0  0
   -2.5229   -2.0787    1.2980 C   0  0  0  0  0  0  0  0  0  0  0  0
   -1.5999   -2.7227    1.7810 O   0  0  0  0  0  0  0  0  0  0  0  0
   -2.3659   -0.8447    0.8120 N   0  0  0  0  0  0  0  0  0  0  0  0
   -3.1749   -0.3807    0.4220 H   0  0  0  0  0  0  0  0  0  0  0  0
   -1.0919   -0.1077    0.8170 C   0  0  1  0  0  0  0  0  0  0  0  0
   -0.4136   -0.6011    1.5155 H   0  0  0  0  0  0  0  0  0  0  0  0
   -0.4834   -0.1723   -0.5965 C   0  0  0  0  0  0  0  0  0  0  0  0
    0.3083    0.5751   -0.6686 H   0  0  0  0  0  0  0  0  0  0  0  0
   -0.0367   -1.1567   -0.7501 H   0  0  0  0  0  0  0  0  0  0  0  0
   -1.5063    0.0987   -1.7103 C   0  0  0  0  0  0  0  0  0  0  0  0
   -2.5169    0.0295   -1.3057 H   0  0  0  0  0  0  0  0  0  0  0  0
   -1.3488    1.1038   -2.1062 H   0  0  0  0  0  0  0  0  0  0  0  0
   -1.3465   -0.9244   -2.8433 C   0  0  0  0  0  0  0  0  0  0  0  0
   -0.3288   -0.8631   -3.2363 H   0  0  0  0  0  0  0  0  0  0  0  0
   -1.5140   -1.9268   -2.4443 H   0  0  0  0  0  0  0  0  0  0  0  0
   -2.3505   -0.6400   -3.9674 C   0  0  0  0  0  0  0  0  0  0  0  0
   -3.3620   -0.6986   -3.5523 H   0  0  0  0  0  0  0  0  0  0  0  0
   -2.1932    0.3825   -4.3236 H   0  0  0  0  0  0  0  0  0  0  0  0
   -2.2016   -1.6019   -5.0887 N   0  3  0  0  0  0  0  0  0  0  0  0
   -2.3565   -2.5492   -4.7673 H   0  0  0  0  0  0  0  0  0  0  0  0
   -2.8704   -1.4005   -5.8215 H   0  0  0  0  0  0  0  0  0  0  0  0
   -1.2695   -1.5453   -5.4822 H   0  0  0  0  0  0  0  0  0  0  0  0
   -1.3103    1.3348    1.2791 C   0  0  0  0  0  0  0  0  0  0  0  0
   -2.2333    1.9891    0.8084 O   0  0  0  0  0  0  0  0  0  0  0  0
   -0.4429    1.8293    2.1683 N   0  0  0  0  0  0  0  0  0  0  0  0
    0.2668    1.2118    2.5263 H   0  0  0  0  0  0  0  0  0  0  0  0
   -0.5118    3.1863    2.7135 C   0  0  0  0  0  0  0  0  0  0  0  0
   -1.4470    3.3159    3.2625 H   0  0  0  0  0  0  0  0  0  0  0  0
    0.3243    3.3682    3.3896 H   0  0  0  0  0  0  0  0  0  0  0  0
   -0.4850    3.9172    1.9023 H   0  0  0  0  0  0  0  0  0  0  0  0
  5  6  2  0  0  0  0
  5  7  1  0  0  0  0
  2  3  1  0  0  0  0
  2  4  1  0  0  0  0
  2  5  1  0  0  0  0
  1  2  1  0  0  0  0
 27 28  2  0  0  0  0
 27 29  1  0  0  0  0
 23 24  1  0  0  0  0
 23 25  1  0  0  0  0
 23 26  1  0  0  0  0
 20 21  1  0  0  0  0
 20 22  1  0  0  0  0
 20 23  1  0  0  0  0
 17 18  1  0  0  0  0
 17 19  1  0  0  0  0
 17 20  1  0  0  0  0
 14 15  1  0  0  0  0
 14 16  1  0  0  0  0
 14 17  1  0  0  0  0
 11 12  1  0  0  0  0
 11 13  1  0  0  0  0
 11 14  1  0  0  0  0
  9 10  1  0  0  0  0
  9 11  1  0  0  0  0
  9 27  1  0  0  0  0
  7  8  1  0  0  0  0
  7  9  1  0  0  0  0
 31 32  1  0  0  0  0
 31 33  1  0  0  0  0
 31 34  1  0  0  0  0
 29 30  1  0  0  0  0
 29 31  1  0  0  0  0
M  CHG  1  23   1
M  END
$$$$
default_name
  -OEChem-02102213163D

 34 33  0     1  0  0  0  0  0999 V2000
   -3.8899   -3.6747    1.6490 H   0  0  0  0  0  0  0  0  0  0  0  0
   -3.9109   -2.6717    1.2250 C   0  0  0  0  0  0  0  0  0  0  0  0
   -4.6009   -2.0517    1.7950 H   0  0  0  0  0  0  0  0  0  0  0  0
   -4.2309   -2.7237    0.1860 H   0  0  0  0  0  0  0  0  0  0  0  0
   -2.5229   -2.0787    1.2980 C   0  0  0  0  0  0  0  0  0  0  0  0
   -1.5999   -2.7227    1.7810 O   0  0  0  0  0  0  0  0  0  0  0  0
   -2.3659   -0.8447    0.8120 N   0  0  0  0  0  0  0  0  0  0  0  0
   -3.1749   -0.3807    0.4220 H   0  0  0  0  0  0  0  0  0  0  0  0
   -1.0919   -0.1077    0.8170 C   0  0  1  0  0  0  0  0  0  0  0  0
   -0.4136   -0.6011    1.5155 H   0  0  0  0  0  0  0  0  0  0  0  0
   -0.4834   -0.1723   -0.5965 C   0  0  0  0  0  0  0  0  0  0  0  0
    0.3083    0.5751   -0.6686 H   0  0  0  0  0  0  0  0  0  0  0  0
   -0.0367   -1.1567   -0.7501 H   0  0  0  0  0  0  0  0  0  0  0  0
   -1.5063    0.0987   -1.7103 C   0  0  0  0  0  0  0  0  0  0  0  0
   -2.4853    0.2935   -1.2705 H   0  0  0  0  0  0  0  0  0  0  0  0
   -1.1917    0.9740   -2.2820 H   0  0  0  0  0  0  0  0  0  0  0  0
   -1.6077   -1.1116   -2.6489 C   0  0  0  0  0  0  0  0  0  0  0  0
   -0.6225   -1.3133   -3.0761 H   0  0  0  0  0  0  0  0  0  0  0  0
   -1.9314   -1.9817   -2.0743 H   0  0  0  0  0  0  0  0  0  0  0  0
   -2.6103   -0.8330   -3.7757 C   0  0  0  0  0  0  0  0  0  0  0  0
   -3.5876   -0.6260   -3.3274 H   0  0  0  0  0  0  0  0  0  0  0  0
   -2.2903    0.0658   -4.3115 H   0  0  0  0  0  0  0  0  0  0  0  0
   -2.7105   -1.9799   -4.7133 N   0  3  0  0  0  0  0  0  0  0  0  0
   -3.0165   -2.8124   -4.2252 H   0  0  0  0  0  0  0  0  0  0  0  0
   -3.3752   -1.7802   -5.4504 H   0  0  0  0  0  0  0  0  0  0  0  0
   -1.8102   -2.1700   -5.1377 H   0  0  0  0  0  0  0  0  0  0  0  0
   -1.3103    1.3348    1.2791 C   0  0  0  0  0  0  0  0  0  0  0  0
   -2.2333    1.9891    0.8084 O   0  0  0  0  0  0  0  0  0  0  0  0
   -0.4429    1.8293    2.1683 N   0  0  0  0  0  0  0  0  0  0  0  0
    0.2668    1.2118    2.5263 H   0  0  0  0  0  0  0  0  0  0  0  0
   -0.5118    3.1863    2.7135 C   0  0  0  0  0  0  0  0  0  0  0  0
   -1.4470    3.3159    3.2625 H   0  0  0  0  0  0  0  0  0  0  0  0
    0.3243    3.3682    3.3896 H   0  0  0  0  0  0  0  0  0  0  0  0
   -0.4850    3.9172    1.9023 H   0  0  0  0  0  0  0  0  0  0  0  0
  5  6  2  0  0  0  0
  5  7  1  0  0  0  0
  2  3  1  0  0  0  0
  2  4  1  0  0  0  0
  2  5  1  0  0  0  0
  1  2  1  0  0  0  0
 27 28  2  0  0  0  0
 27 29  1  0  0  0  0
 23 24  1  0  0  0  0
 23 25  1  0  0  0  0
 23 26  1  0  0  0  0
 20 21  1  0  0  0  0
 20 22  1  0  0  0  0
 20 23  1  0  0  0  0
 17 18  1  0  0  0  0
 17 19  1  0  0  0  0
 17 20  1  0  0  0  0
 14 15  1  0  0  0  0
 14 16  1  0  0  0  0
 14 17  1  0  0  0  0
 11 12  1  0  0  0  0
 11 13  1  0  0  0  0
 11 14  1  0  0  0  0
  9 10  1  0  0  0  0
  9 11  1  0  0  0  0
  9 27  1  0  0  0  0
  7  8  1  0  0  0  0
  7  9  1  0  0  0  0
 31 32  1  0  0  0  0
 31 33  1  0  0  0  0
 31 34  1  0  0  0  0
 29 30  1  0  0  0  0
 29 31  1  0  0  0  0
M  CHG  1  23   1
M  END
$$$$
default_name
  -OEChem-02102213163D

 34 33  0     1  0  0  0  0  0999 V2000
   -3.8899   -3.6747    1.6490 H   0  0  0  0  0  0  0  0  0  0  0  0
   -3.9109   -2.6717    1.2250 C   0  0  0  0  0  0  0  0  0  0  0  0
   -4.6009   -2.0517    1.7950 H   0  0  0  0  0  0  0  0  0  0  0  0
   -4.2309   -2.7237    0.1860 H   0  0  0  0  0  0  0  0  0  0  0  0
   -2.5229   -2.0787    1.2980 C   0  0  0  0  0  0  0  0  0  0  0  0
   -1.5999   -2.7227    1.7810 O   0  0  0  0  0  0  0  0  0  0  0  0
   -2.3659   -0.8447    0.8120 N   0  0  0  0  0  0  0  0  0  0  0  0
   -3.1749   -0.3807    0.4220 H   0  0  0  0  0  0  0  0  0  0  0  0
   -1.0919   -0.1077    0.8170 C   0  0  1  0  0  0  0  0  0  0  0  0
   -0.4136   -0.6011    1.5155 H   0  0  0  0  0  0  0  0  0  0  0  0
   -0.4834   -0.1723   -0.5965 C   0  0  0  0  0  0  0  0  0  0  0  0
    0.3083    0.5751   -0.6686 H   0  0  0  0  0  0  0  0  0  0  0  0
   -0.0367   -1.1567   -0.7501 H   0  0  0  0  0  0  0  0  0  0  0  0
   -1.5063    0.0987   -1.7103 C   0  0  0  0  0  0  0  0  0  0  0  0
   -2.4037    0.5485   -1.2835 H   0  0  0  0  0  0  0  0  0  0  0  0
   -1.0725    0.7888   -2.4366 H   0  0  0  0  0  0  0  0  0  0  0  0
   -1.8863   -1.2099   -2.4170 C   0  0  0  0  0  0  0  0  0  0  0  0
   -0.9834   -1.6655   -2.8304 H   0  0  0  0  0  0  0  0  0  0  0  0
   -2.3280   -1.8927   -1.6884 H   0  0  0  0  0  0  0  0  0  0  0  0
   -2.8887   -0.9376   -3.5455 C   0  0  0  0  0  0  0  0  0  0  0  0
   -3.7816   -0.4749   -3.1125 H   0  0  0  0  0  0  0  0  0  0  0  0
   -2.4430   -0.2198   -4.2407 H   0  0  0  0  0  0  0  0  0  0  0  0
   -3.2558   -2.1849   -4.2623 N   0  3  0  0  0  0  0  0  0  0  0  0
   -3.6786   -2.8493   -3.6261 H   0  0  0  0  0  0  0  0  0  0  0  0
   -3.9170   -1.9882   -5.0034 H   0  0  0  0  0  0  0  0  0  0  0  0
   -2.4338   -2.6125   -4.6726 H   0  0  0  0  0  0  0  0  0  0  0  0
   -1.3103    1.3348    1.2791 C   0  0  0  0  0  0  0  0  0  0  0  0
   -2.2333    1.9891    0.8084 O   0  0  0  0  0  0  0  0  0  0  0  0
   -0.4429    1.8293    2.1683 N   0  0  0  0  0  0  0  0  0  0  0  0
    0.2668    1.2118    2.5263 H   0  0  0  0  0  0  0  0  0  0  0  0
   -0.5118    3.1863    2.7135 C   0  0  0  0  0  0  0  0  0  0  0  0
   -1.4470    3.3159    3.2625 H   0  0  0  0  0  0  0  0  0  0  0  0
    0.3243    3.3682    3.3896 H   0  0  0  0  0  0  0  0  0  0  0  0
   -0.4850    3.9172    1.9023 H   0  0  0  0  0  0  0  0  0  0  0  0
  5  6  2  0  0  0  0
  5  7  1  0  0  0  0
  2  3  1  0  0  0  0
  2  4  1  0  0  0  0
  2  5  1  0  0  0  0
  1  2  1  0  0  0  0
 27 28  2  0  0  0  0
 27 29  1  0  0  0  0
 23 24  1  0  0  0  0
 23 25  1  0  0  0  0
 23 26  1  0  0  0  0
 20 21  1  0  0  0  0
 20 22  1  0  0  0  0
 20 23  1  0  0  0  0
 17 18  1  0  0  0  0
 17 19  1  0  0  0  0
 17 20  1  0  0  0  0
 14 15  1  0  0  0  0
 14 16  1  0  0  0  0
 14 17  1  0  0  0  0
 11 12  1  0  0  0  0
 11 13  1  0  0  0  0
 11 14  1  0  0  0  0
  9 10  1  0  0  0  0
  9 11  1  0  0  0  0
  9 27  1  0  0  0  0
  7  8  1  0  0  0  0
  7  9  1  0  0  0  0
 31 32  1  0  0  0  0
 31 33  1  0  0  0  0
 31 34  1  0  0  0  0
 29 30  1  0  0  0  0
 29 31  1  0  0  0  0
M  CHG  1  23   1
M  END
$$$$
default_name
  -OEChem-02102213163D

 34 33  0     1  0  0  0  0  0999 V2000
   -3.8899   -3.6747    1.6490 H   0  0  0  0  0  0  0  0  0  0  0  0
   -3.9109   -2.6717    1.2250 C   0  0  0  0  0  0  0  0  0  0  0  0
   -4.6009   -2.0517    1.7950 H   0  0  0  0  0  0  0  0  0  0  0  0
   -4.2309   -2.7237    0.1860 H   0  0  0  0  0  0  0  0  0  0  0  0
   -2.5229   -2.0787    1.2980 C   0  0  0  0  0  0  0  0  0  0  0  0
   -1.5999   -2.7227    1.7810 O   0  0  0  0  0  0  0  0  0  0  0  0
   -2.3659   -0.8447    0.8120 N   0  0  0  0  0  0  0  0  0  0  0  0
   -3.1749   -0.3807    0.4220 H   0  0  0  0  0  0  0  0  0  0  0  0
   -1.0919   -0.1077    0.8170 C   0  0  1  0  0  0  0  0  0  0  0  0
   -0.4136   -0.6011    1.5155 H   0  0  0  0  0  0  0  0  0  0  0  0
   -0.4834   -0.1723   -0.5965 C   0  0  0  0  0  0  0  0  0  0  0  0
    0.3083    0.5751   -0.6686 H   0  0  0  0  0  0  0  0  0  0  0  0
   -0.0367   -1.1567   -0.7501 H   0  0  0  0  0  0  0  0  0  0  0  0
   -1.5063    0.0987   -1.7103 C   0  0  0  0  0  0  0  0  0  0  0  0
   -2.2775    0.7773   -1.3436 H   0  0  0  0  0  0  0  0  0  0  0  0
   -0.9991    0.5609   -2.5594 H   0  0  0  0  0  0  0  0  0  0  0  0
   -2.1633   -1.2125   -2.1633 C   0  0  0  0  0  0  0  0  0  0  0  0
   -1.3868   -1.8956   -2.5159 H   0  0  0  0  0  0  0  0  0  0  0  0
   -2.6767   -1.6658   -1.3130 H   0  0  0  0  0  0  0  0  0  0  0  0
   -3.1668   -0.9467   -3.2924 C   0  0  0  0  0  0  0  0  0  0  0  0
   -3.9308   -0.2554   -2.9220 H   0  0  0  0  0  0  0  0  0  0  0  0
   -2.6408   -0.4547   -4.1162 H   0  0  0  0  0  0  0  0  0  0  0  0
   -3.8005   -2.2029   -3.7665 N   0  3  0  0  0  0  0  0  0  0  0  0
   -4.2977   -2.6574   -3.0109 H   0  0  0  0  0  0  0  0  0  0  0  0
   -4.4590   -2.0104   -4.5110 H   0  0  0  0  0  0  0  0  0  0  0  0
   -3.0981   -2.8428   -4.1186 H   0  0  0  0  0  0  0  0  0  0  0  0
   -1.3103    1.3348    1.2791 C   0  0  0  0  0  0  0  0  0  0  0  0
   -2.2333    1.9891    0.8084 O   0  0  0  0  0  0  0  0  0  0  0  0
   -0.4429    1.8293    2.1683 N   0  0  0  0  0  0  0  0  0  0  0  0
    0.2668    1.2118    2.5263 H   0  0  0  0  0  0  0  0  0  0  0  0
   -0.5118    3.1863    2.7135 C   0  0  0  0  0  0  0  0  0  0  0  0
   -1.4470    3.3159    3.2625 H   0  0  0  0  0  0  0  0  0  0  0  0
    0.3243    3.3682    3.3896 H   0  0  0  0  0  0  0  0  0  0  0  0
   -0.4850    3.9172    1.9023 H   0  0  0  0  0  0  0  0  0  0  0  0
  5  6  2  0  0  0  0
  5  7  1  0  0  0  0
  2  3  1  0  0  0  0
  2  4  1  0  0  0  0
  2  5  1  0  0  0  0
  1  2  1  0  0  0  0
 27 28  2  0  0  0  0
 27 29  1  0  0  0  0
 23 24  1  0  0  0  0
 23 25  1  0  0  0  0
 23 26  1  0  0  0  0
 20 21  1  0  0  0  0
 20 22  1  0  0  0  0
 20 23  1  0  0  0  0
 17 18  1  0  0  0  0
 17 19  1  0  0  0  0
 17 20  1  0  0  0  0
 14 15  1  0  0  0  0
 14 16  1  0  0  0  0
 14 17  1  0  0  0  0
 11 12  1  0  0  0  0
 11 13  1  0  0  0  0
 11 14  1  0  0  0  0
  9 10  1  0  0  0  0
  9 11  1  0  0  0  0
  9 27  1  0  0  0  0
  7  8  1  0  0  0  0
  7  9  1  0  0  0  0
 31 32  1  0  0  0  0
 31 33  1  0  0  0  0
 31 34  1  0  0  0  0
 29 30  1  0  0  0  0
 29 31  1  0  0  0  0
M  CHG  1  23   1
M  END
$$$$
default_name
  -OEChem-02102213163D

 34 33  0     1  0  0  0  0  0999 V2000
   -3.8899   -3.6747    1.6490 H   0  0  0  0  0  0  0  0  0  0  0  0
   -3.9109   -2.6717    1.2250 C   0  0  0  0  0  0  0  0  0  0  0  0
   -4.6009   -2.0517    1.7950 H   0  0  0  0  0  0  0  0  0  0  0  0
   -4.2309   -2.7237    0.1860 H   0  0  0  0  0  0  0  0  0  0  0  0
   -2.5229   -2.0787    1.2980 C   0  0  0  0  0  0  0  0  0  0  0  0
   -1.5999   -2.7227    1.7810 O   0  0  0  0  0  0  0  0  0  0  0  0
   -2.3659   -0.8447    0.8120 N   0  0  0  0  0  0  0  0  0  0  0  0
   -3.1749   -0.3807    0.4220 H   0  0  0  0  0  0  0  0  0  0  0  0
   -1.0919   -0.1077    0.8170 C   0  0  1  0  0  0  0  0  0  0  0  0
   -0.4136   -0.6011    1.5155 H   0  0  0  0  0  0  0  0  0  0  0  0
   -0.4834   -0.1723   -0.5965 C   0  0  0  0  0  0  0  0  0  0  0  0
    0.3083    0.5751   -0.6686 H   0  0  0  0  0  0  0  0  0  0  0  0
   -0.0367   -1.1567   -0.7501 H   0  0  0  0  0  0  0  0  0  0  0  0
   -1.5063    0.0987   -1.7103 C   0  0  0  0  0  0  0  0  0  0  0  0
   -2.1155    0.9643   -1.4469 H   0  0  0  0  0  0  0  0  0  0  0  0
   -0.9766    0.3058   -2.6422 H   0  0  0  0  0  0  0  0  0  0  0  0
   -2.4198   -1.1194   -1.9051 C   0  0  0  0  0  0  0  0  0  0  0  0
   -1.8053   -1.9879   -2.1540 H   0  0  0  0  0  0  0  0  0  0  0  0
   -2.9539   -1.3165   -0.9734 H   0  0  0  0  0  0  0  0  0  0  0  0
   -3.4255   -0.8597   -3.0336 C   0  0  0  0  0  0  0  0  0  0  0  0
   -4.0251    0.0174   -2.7691 H   0  0  0  0  0  0  0  0  0  0  0  0
   -2.8704   -0.6232   -3.9464 H   0  0  0  0  0  0  0  0  0  0  0  0
   -4.3073   -2.0326   -3.2596 N   0  3  0  0  0  0  0  0  0  0  0  0
   -4.8316   -2.2500   -2.4214 H   0  0  0  0  0  0  0  0  0  0  0  0
   -4.9642   -1.8454   -4.0069 H   0  0  0  0  0  0  0  0  0  0  0  0
   -3.7576   -2.8452   -3.5135 H   0  0  0  0  0  0  0  0  0  0  0  0
   -1.3103    1.3348    1.2791 C   0  0  0  0  0  0  0  0  0  0  0  0
   -2.2333    1.9891    0.8084 O   0  0  0  0  0  0  0  0  0  0  0  0
   -0.4429    1.8293    2.1683 N   0  0  0  0  0  0  0  0  0  0  0  0
    0.2668    1.2118    2.5263 H   0  0  0  0  0  0  0  0  0  0  0  0
   -0.5118    3.1863    2.7135 C   0  0  0  0  0  0  0  0  0  0  0  0
   -1.4470    3.3159    3.2625 H   0  0  0  0  0  0  0  0  0  0  0  0
    0.3243    3.3682    3.3896 H   0  0  0  0  0  0  0  0  0  0  0  0
   -0.4850    3.9172    1.9023 H   0  0  0  0  0  0  0  0  0  0  0  0
  5  6  2  0  0  0  0
  5  7  1  0  0  0  0
  2  3  1  0  0  0  0
  2  4  1  0  0  0  0
  2  5  1  0  0  0  0
  1  2  1  0  0  0  0
 27 28  2  0  0  0  0
 27 29  1  0  0  0  0
 23 24  1  0  0  0  0
 23 25  1  0  0  0  0
 23 26  1  0  0  0  0
 20 21  1  0  0  0  0
 20 22  1  0  0  0  0
 20 23  1  0  0  0  0
 17 18  1  0  0  0  0
 17 19  1  0  0  0  0
 17 20  1  0  0  0  0
 14 15  1  0  0  0  0
 14 16  1  0  0  0  0
 14 17  1  0  0  0  0
 11 12  1  0  0  0  0
 11 13  1  0  0  0  0
 11 14  1  0  0  0  0
  9 10  1  0  0  0  0
  9 11  1  0  0  0  0
  9 27  1  0  0  0  0
  7  8  1  0  0  0  0
  7  9  1  0  0  0  0
 31 32  1  0  0  0  0
 31 33  1  0  0  0  0
 31 34  1  0  0  0  0
 29 30  1  0  0  0  0
 29 31  1  0  0  0  0
M  CHG  1  23   1
M  END
$$$$
default_name
  -OEChem-02102213163D

 34 33  0     1  0  0  0  0  0999 V2000
   -3.8899   -3.6747    1.6490 H   0  0  0  0  0  0  0  0  0  0  0  0
   -3.9109   -2.6717    1.2250 C   0  0  0  0  0  0  0  0  0  0  0  0
   -4.6009   -2.0517    1.7950 H   0  0  0  0  0  0  0  0  0  0  0  0
   -4.2309   -2.7237    0.1860 H   0  0  0  0  0  0  0  0  0  0  0  0
   -2.5229   -2.0787    1.2980 C   0  0  0  0  0  0  0  0  0  0  0  0
   -1.5999   -2.7227    1.7810 O   0  0  0  0  0  0  0  0  0  0  0  0
   -2.3659   -0.8447    0.8120 N   0  0  0  0  0  0  0  0  0  0  0  0
   -3.1749   -0.3807    0.4220 H   0  0  0  0  0  0  0  0  0  0  0  0
   -1.0919   -0.1077    0.8170 C   0  0  1  0  0  0  0  0  0  0  0  0
   -0.4136   -0.6011    1.5155 H   0  0  0  0  0  0  0  0  0  0  0  0
   -0.4834   -0.1723   -0.5965 C   0  0  0  0  0  0  0  0  0  0  0  0
    0.3083    0.5751   -0.6686 H   0  0  0  0  0  0  0  0  0  0  0  0
   -0.0367   -1.1567   -0.7501 H   0  0  0  0  0  0  0  0  0  0  0  0
   -1.5063    0.0987   -1.7103 C   0  0  0  0  0  0  0  0  0  0  0  0
   -1.9286    1.0967   -1.5864 H   0  0  0  0  0  0  0  0  0  0  0  0
   -1.0064    0.0409   -2.6792 H   0  0  0  0  0  0  0  0  0  0  0  0
   -2.6382   -0.9368   -1.6600 C   0  0  0  0  0  0  0  0  0  0  0  0
   -2.2104   -1.9363   -1.7694 H   0  0  0  0  0  0  0  0  0  0  0  0
   -3.1405   -0.8686   -0.6930 H   0  0  0  0  0  0  0  0  0  0  0  0
   -3.6472   -0.6825   -2.7869 C   0  0  0  0  0  0  0  0  0  0  0  0
   -4.0580    0.3249   -2.6640 H   0  0  0  0  0  0  0  0  0  0  0  0
   -3.1159   -0.7135   -3.7429 H   0  0  0  0  0  0  0  0  0  0  0  0
   -4.7417   -1.6857   -2.7762 N   0  3  0  0  0  0  0  0  0  0  0  0
   -5.2440   -1.6546   -1.8978 H   0  0  0  0  0  0  0  0  0  0  0  0
   -5.3982   -1.5043   -3.5253 H   0  0  0  0  0  0  0  0  0  0  0  0
   -4.3675   -2.6194   -2.8985 H   0  0  0  0  0  0  0  0  0  0  0  0
   -1.3103    1.3348    1.2791 C   0  0  0  0  0  0  0  0  0  0  0  0
   -2.2333    1.9891    0.8084 O   0  0  0  0  0  0  0  0  0  0  0  0
   -0.4429    1.8293    2.1683 N   0  0  0  0  0  0  0  0  0  0  0  0
    0.2668    1.2118    2.5263 H   0  0  0  0  0  0  0  0  0  0  0  0
   -0.5118    3.1863    2.7135 C   0  0  0  0  0  0  0  0  0  0  0  0
   -1.4470    3.3159    3.2625 H   0  0  0  0  0  0  0  0  0  0  0  0
    0.3243    3.3682    3.3896 H   0  0  0  0  0  0  0  0  0  0  0  0
   -0.4850    3.9172    1.9023 H   0  0  0  0  0  0  0  0  0  0  0  0
  5  6  2  0  0  0  0
  5  7  1  0  0  0  0
  2  3  1  0  0  0  0
  2  4  1  0  0  0  0
  2  5  1  0  0  0  0
  1  2  1  0  0  0  0
 27 28  2  0  0  0  0
 27 29  1  0  0  0  0
 23 24  1  0  0  0  0
 23 25  1  0  0  0  0
 23 26  1  0  0  0  0
 20 21  1  0  0  0  0
 20 22  1  0  0  0  0
 20 23  1  0  0  0  0
 17 18  1  0  0  0  0
 17 19  1  0  0  0  0
 17 20  1  0  0  0  0
 14 15  1  0  0  0  0
 14 16  1  0  0  0  0
 14 17  1  0  0  0  0
 11 12  1  0  0  0  0
 11 13  1  0  0  0  0
 11 14  1  0  0  0  0
  9 10  1  0  0  0  0
  9 11  1  0  0  0  0
  9 27  1  0  0  0  0
  7  8  1  0  0  0  0
  7  9  1  0  0  0  0
 31 32  1  0  0  0  0
 31 33  1  0  0  0  0
 31 34  1  0  0  0  0
 29 30  1  0  0  0  0
 29 31  1  0  0  0  0
M  CHG  1  23   1
M  END
$$$$
default_name
  -OEChem-02102213163D

 34 33  0     1  0  0  0  0  0999 V2000
   -3.8899   -3.6747    1.6490 H   0  0  0  0  0  0  0  0  0  0  0  0
   -3.9109   -2.6717    1.2250 C   0  0  0  0  0  0  0  0  0  0  0  0
   -4.6009   -2.0517    1.7950 H   0  0  0  0  0  0  0  0  0  0  0  0
   -4.2309   -2.7237    0.1860 H   0  0  0  0  0  0  0  0  0  0  0  0
   -2.5229   -2.0787    1.2980 C   0  0  0  0  0  0  0  0  0  0  0  0
   -1.5999   -2.7227    1.7810 O   0  0  0  0  0  0  0  0  0  0  0  0
   -2.3659   -0.8447    0.8120 N   0  0  0  0  0  0  0  0  0  0  0  0
   -3.1749   -0.3807    0.4220 H   0  0  0  0  0  0  0  0  0  0  0  0
   -1.0919   -0.1077    0.8170 C   0  0  1  0  0  0  0  0  0  0  0  0
   -0.4136   -0.6011    1.5155 H   0  0  0  0  0  0  0  0  0  0  0  0
   -0.4834   -0.1723   -0.5965 C   0  0  0  0  0  0  0  0  0  0  0  0
    0.3083    0.5751   -0.6686 H   0  0  0  0  0  0  0  0  0  0  0  0
   -0.0367   -1.1567   -0.7501 H   0  0  0  0  0  0  0  0  0  0  0  0
   -1.5063    0.0987   -1.7103 C   0  0  0  0  0  0  0  0  0  0  0  0
   -1.7296    1.1655   -1.7524 H   0  0  0  0  0  0  0  0  0  0  0  0
   -1.0867   -0.2157   -2.6679 H   0  0  0  0  0  0  0  0  0  0  0  0
   -2.8038   -0.6773   -1.4448 C   0  0  0  0  0  0  0  0  0  0  0  0
   -2.5744   -1.7441   -1.3884 H   0  0  0  0  0  0  0  0  0  0  0  0
   -3.2240   -0.3526   -0.4909 H   0  0  0  0  0  0  0  0  0  0  0  0
   -3.8169   -0.4273   -2.5689 C   0  0  0  0  0  0  0  0  0  0  0  0
   -4.0273    0.6463   -2.6141 H   0  0  0  0  0  0  0  0  0  0  0  0
   -3.3607   -0.7196   -3.5195 H   0  0  0  0  0  0  0  0  0  0  0  0
   -5.0742   -1.1858   -2.3492 N   0  3  0  0  0  0  0  0  0  0  0  0
   -5.5067   -0.9119   -1.4758 H   0  0  0  0  0  0  0  0  0  0  0  0
   -5.7315   -1.0104   -3.0991 H   0  0  0  0  0  0  0  0  0  0  0  0
   -4.8861   -2.1809   -2.3155 H   0  0  0  0  0  0  0  0  0  0  0  0
   -1.3103    1.3348    1.2791 C   0  0  0  0  0  0  0  0  0  0  0  0
   -2.2333    1.9891    0.8084 O   0  0  0  0  0  0  0  0  0  0  0  0
   -0.4429    1.8293    2.1683 N   0  0  0  0  0  0  0  0  0  0  0  0
    0.2668    1.2118    2.5263 H   0  0  0  0  0  0  0  0  0  0  0  0
   -0.5118    3.1863    2.7135 C   0  0  0  0  0  0  0  0  0  0  0  0
   -1.4470    3.3159    3.2625 H   0  0  0  0  0  0  0  0  0  0  0  0
    0.3243    3.3682    3.3896 H   0  0  0  0  0  0  0  0  0  0  0  0
   -0.4850    3.9172    1.9023 H   0  0  0  0  0  0  0  0  0  0  0  0
  5  6  2  0  0  0  0
  5  7  1  0  0  0  0
  2  3  1  0  0  0  0
  2  4  1  0  0  0  0
  2  5  1  0  0  0  0
  1  2  1  0  0  0  0
 27 28  2  0  0  0  0
 27 29  1  0  0  0  0
 23 24  1  0  0  0  0
 23 25  1  0  0  0  0
 23 26  1  0  0  0  0
 20 21  1  0  0  0  0
 20 22  1  0  0  0  0
 20 23  1  0  0  0  0
 17 18  1  0  0  0  0
 17 19  1  0  0  0  0
 17 20  1  0  0  0  0
 14 15  1  0  0  0  0
 14 16  1  0  0  0  0
 14 17  1  0  0  0  0
 11 12  1  0  0  0  0
 11 13  1  0  0  0  0
 11 14  1  0  0  0  0
  9 10  1  0  0  0  0
  9 11  1  0  0  0  0
  9 27  1  0  0  0  0
  7  8  1  0  0  0  0
  7  9  1  0  0  0  0
 31 32  1  0  0  0  0
 31 33  1  0  0  0  0
 31 34  1  0  0  0  0
 29 30  1  0  0  0  0
 29 31  1  0  0  0  0
M  CHG  1  23   1
M  END
$$$$
default_name
  -OEChem-02102213163D

 34 33  0     1  0  0  0  0  0999 V2000
   -3.8899   -3.6747    1.6490 H   0  0  0  0  0  0  0  0  0  0  0  0
   -3.9109   -2.6717    1.2250 C   0  0  0  0  0  0  0  0  0  0  0  0
   -4.6009   -2.0517    1.7950 H   0  0  0  0  0  0  0  0  0  0  0  0
   -4.2309   -2.7237    0.1860 H   0  0  0  0  0  0  0  0  0  0  0  0
   -2.5229   -2.0787    1.2980 C   0  0  0  0  0  0  0  0  0  0  0  0
   -1.5999   -2.7227    1.7810 O   0  0  0  0  0  0  0  0  0  0  0  0
   -2.3659   -0.8447    0.8120 N   0  0  0  0  0  0  0  0  0  0  0  0
   -3.1749   -0.3807    0.4220 H   0  0  0  0  0  0  0  0  0  0  0  0
   -1.0919   -0.1077    0.8170 C   0  0  1  0  0  0  0  0  0  0  0  0
   -0.4136   -0.6011    1.5155 H   0  0  0  0  0  0  0  0  0  0  0  0
   -0.4834   -0.1723   -0.5965 C   0  0  0  0  0  0  0  0  0  0  0  0
    0.3083    0.5751   -0.6686 H   0  0  0  0  0  0  0  0  0  0  0  0
   -0.0367   -1.1567   -0.7501 H   0  0  0  0  0  0  0  0  0  0  0  0
   -1.5063    0.0987   -1.7103 C   0  0  0  0  0  0  0  0  0  0  0  0
   -1.5321    1.1661   -1.9337 H   0  0  0  0  0  0  0  0  0  0  0  0
   -1.2119   -0.4466   -2.6091 H   0  0  0  0  0  0  0  0  0  0  0  0
   -2.9052   -0.3584   -1.2741 C   0  0  0  0  0  0  0  0  0  0  0  0
   -2.8725   -1.4245   -1.0368 H   0  0  0  0  0  0  0  0  0  0  0  0
   -3.1986    0.1963   -0.3807 H   0  0  0  0  0  0  0  0  0  0  0  0
   -3.9230   -0.1113   -2.3946 C   0  0  0  0  0  0  0  0  0  0  0  0
   -3.9350    0.9595   -2.6226 H   0  0  0  0  0  0  0  0  0  0  0  0
   -3.5882   -0.6411   -3.2915 H   0  0  0  0  0  0  0  0  0  0  0  0
   -5.2821   -0.5669   -2.0078 N   0  3  0  0  0  0  0  0  0  0  0  0
   -5.6018   -0.0725   -1.1842 H   0  0  0  0  0  0  0  0  0  0  0  0
   -5.9412   -0.3973   -2.7573 H   0  0  0  0  0  0  0  0  0  0  0  0
   -5.2782   -1.5596   -1.8042 H   0  0  0  0  0  0  0  0  0  0  0  0
   -1.3103    1.3348    1.2791 C   0  0  0  0  0  0  0  0  0  0  0  0
   -2.2333    1.9891    0.8084 O   0  0  0  0  0  0  0  0  0  0  0  0
   -0.4429    1.8293    2.1683 N   0  0  0  0  0  0  0  0  0  0  0  0
    0.2668    1.2118    2.5263 H   0  0  0  0  0  0  0  0  0  0  0  0
   -0.5118    3.1863    2.7135 C   0  0  0  0  0  0  0  0  0  0  0  0
   -1.4470    3.3159    3.2625 H   0  0  0  0  0  0  0  0  0  0  0  0
    0.3243    3.3682    3.3896 H   0  0  0  0  0  0  0  0  0  0  0  0
   -0.4850    3.9172    1.9023 H   0  0  0  0  0  0  0  0  0  0  0  0
  5  6  2  0  0  0  0
  5  7  1  0  0  0  0
  2  3  1  0  0  0  0
  2  4  1  0  0  0  0
  2  5  1  0  0  0  0
  1  2  1  0  0  0  0
 27 28  2  0  0  0  0
 27 29  1  0  0  0  0
 23 24  1  0  0  0  0
 23 25  1  0  0  0  0
 23 26  1  0  0  0  0
 20 21  1  0  0  0  0
 20 22  1  0  0  0  0
 20 23  1  0  0  0  0
 17 18  1  0  0  0  0
 17 19  1  0  0  0  0
 17 20  1  0  0  0  0
 14 15  1  0  0  0  0
 14 16  1  0  0  0  0
 14 17  1  0  0  0  0
 11 12  1  0  0  0  0
 11 13  1  0  0  0  0
 11 14  1  0  0  0  0
  9 10  1  0  0  0  0
  9 11  1  0  0  0  0
  9 27  1  0  0  0  0
  7  8  1  0  0  0  0
  7  9  1  0  0  0  0
 31 32  1  0  0  0  0
 31 33  1  0  0  0  0
 31 34  1  0  0  0  0
 29 30  1  0  0  0  0
 29 31  1  0  0  0  0
M  CHG  1  23   1
M  END
$$$$
default_name
  -OEChem-02102213163D

 34 33  0     1  0  0  0  0  0999 V2000
   -3.8899   -3.6747    1.6490 H   0  0  0  0  0  0  0  0  0  0  0  0
   -3.9109   -2.6717    1.2250 C   0  0  0  0  0  0  0  0  0  0  0  0
   -4.6009   -2.0517    1.7950 H   0  0  0  0  0  0  0  0  0  0  0  0
   -4.2309   -2.7237    0.1860 H   0  0  0  0  0  0  0  0  0  0  0  0
   -2.5229   -2.0787    1.2980 C   0  0  0  0  0  0  0  0  0  0  0  0
   -1.5999   -2.7227    1.7810 O   0  0  0  0  0  0  0  0  0  0  0  0
   -2.3659   -0.8447    0.8120 N   0  0  0  0  0  0  0  0  0  0  0  0
   -3.1749   -0.3807    0.4220 H   0  0  0  0  0  0  0  0  0  0  0  0
   -1.0919   -0.1077    0.8170 C   0  0  1  0  0  0  0  0  0  0  0  0
   -0.4136   -0.6011    1.5155 H   0  0  0  0  0  0  0  0  0  0  0  0
   -0.4834   -0.1723   -0.5965 C   0  0  0  0  0  0  0  0  0  0  0  0
    0.3083    0.5751   -0.6686 H   0  0  0  0  0  0  0  0  0  0  0  0
   -0.0367   -1.1567   -0.7501 H   0  0  0  0  0  0  0  0  0  0  0  0
   -1.5063    0.0987   -1.7103 C   0  0  0  0  0  0  0  0  0  0  0  0
   -1.3495    1.0983   -2.1179 H   0  0  0  0  0  0  0  0  0  0  0  0
   -1.3734   -0.6360   -2.5069 H   0  0  0  0  0  0  0  0  0  0  0  0
   -2.9355   -0.0020   -1.1596 C   0  0  0  0  0  0  0  0  0  0  0  0
   -3.0845   -0.9992   -0.7387 H   0  0  0  0  0  0  0  0  0  0  0  0
   -3.0660    0.7407   -0.3700 H   0  0  0  0  0  0  0  0  0  0  0  0
   -3.9582    0.2438   -2.2759 C   0  0  0  0  0  0  0  0  0  0  0  0
   -3.7875    1.2433   -2.6890 H   0  0  0  0  0  0  0  0  0  0  0  0
   -3.7827   -0.4833   -3.0745 H   0  0  0  0  0  0  0  0  0  0  0  0
   -5.3512    0.1287   -1.7751 N   0  3  0  0  0  0  0  0  0  0  0  0
   -5.5229    0.8063   -1.0429 H   0  0  0  0  0  0  0  0  0  0  0  0
   -6.0132    0.2931   -2.5232 H   0  0  0  0  0  0  0  0  0  0  0  0
   -5.5170   -0.7978   -1.3995 H   0  0  0  0  0  0  0  0  0  0  0  0
   -1.3103    1.3348    1.2791 C   0  0  0  0  0  0  0  0  0  0  0  0
   -2.2333    1.9891    0.8084 O   0  0  0  0  0  0  0  0  0  0  0  0
   -0.4429    1.8293    2.1683 N   0  0  0  0  0  0  0  0  0  0  0  0
    0.2668    1.2118    2.5263 H   0  0  0  0  0  0  0  0  0  0  0  0
   -0.5118    3.1863    2.7135 C   0  0  0  0  0  0  0  0  0  0  0  0
   -1.4470    3.3159    3.2625 H   0  0  0  0  0  0  0  0  0  0  0  0
    0.3243    3.3682    3.3896 H   0  0  0  0  0  0  0  0  0  0  0  0
   -0.4850    3.9172    1.9023 H   0  0  0  0  0  0  0  0  0  0  0  0
  5  6  2  0  0  0  0
  5  7  1  0  0  0  0
  2  3  1  0  0  0  0
  2  4  1  0  0  0  0
  2  5  1  0  0  0  0
  1  2  1  0  0  0  0
 27 28  2  0  0  0  0
 27 29  1  0  0  0  0
 23 24  1  0  0  0  0
 23 25  1  0  0  0  0
 23 26  1  0  0  0  0
 20 21  1  0  0  0  0
 20 22  1  0  0  0  0
 20 23  1  0  0  0  0
 17 18  1  0  0  0  0
 17 19  1  0  0  0  0
 17 20  1  0  0  0  0
 14 15  1  0  0  0  0
 14 16  1  0  0  0  0
 14 17  1  0  0  0  0
 11 12  1  0  0  0  0
 11 13  1  0  0  0  0
 11 14  1  0  0  0  0
  9 10  1  0  0  0  0
  9 11  1  0  0  0  0
  9 27  1  0  0  0  0
  7  8  1  0  0  0  0
  7  9  1  0  0  0  0
 31 32  1  0  0  0  0
 31 33  1  0  0  0  0
 31 34  1  0  0  0  0
 29 30  1  0  0  0  0
 29 31  1  0  0  0  0
M  CHG  1  23   1
M  END
$$$$
default_name
  -OEChem-02102213163D

 34 33  0     1  0  0  0  0  0999 V2000
   -3.8899   -3.6747    1.6490 H   0  0  0  0  0  0  0  0  0  0  0  0
   -3.9109   -2.6717    1.2250 C   0  0  0  0  0  0  0  0  0  0  0  0
   -4.6009   -2.0517    1.7950 H   0  0  0  0  0  0  0  0  0  0  0  0
   -4.2309   -2.7237    0.1860 H   0  0  0  0  0  0  0  0  0  0  0  0
   -2.5229   -2.0787    1.2980 C   0  0  0  0  0  0  0  0  0  0  0  0
   -1.5999   -2.7227    1.7810 O   0  0  0  0  0  0  0  0  0  0  0  0
   -2.3659   -0.8447    0.8120 N   0  0  0  0  0  0  0  0  0  0  0  0
   -3.1749   -0.3807    0.4220 H   0  0  0  0  0  0  0  0  0  0  0  0
   -1.0919   -0.1077    0.8170 C   0  0  1  0  0  0  0  0  0  0  0  0
   -0.4136   -0.6011    1.5155 H   0  0  0  0  0  0  0  0  0  0  0  0
   -0.4834   -0.1723   -0.5965 C   0  0  0  0  0  0  0  0  0  0  0  0
    0.3083    0.5751   -0.6686 H   0  0  0  0  0  0  0  0  0  0  0  0
   -0.0367   -1.1567   -0.7501 H   0  0  0  0  0  0  0  0  0  0  0  0
   -1.5063    0.0987   -1.7103 C   0  0  0  0  0  0  0  0  0  0  0  0
   -1.1942    0.9668   -2.2925 H   0  0  0  0  0  0  0  0  0  0  0  0
   -1.5603   -0.7710   -2.3681 H   0  0  0  0  0  0  0  0  0  0  0  0
   -2.8927    0.3677   -1.1090 C   0  0  0  0  0  0  0  0  0  0  0  0
   -3.1958   -0.4974   -0.5143 H   0  0  0  0  0  0  0  0  0  0  0  0
   -2.8352    1.2435   -0.4595 H   0  0  0  0  0  0  0  0  0  0  0  0
   -3.9202    0.6139   -2.2208 C   0  0  0  0  0  0  0  0  0  0  0  0
   -3.5948    1.4783   -2.8088 H   0  0  0  0  0  0  0  0  0  0  0  0
   -3.9311   -0.2570   -2.8831 H   0  0  0  0  0  0  0  0  0  0  0  0
   -5.2768    0.8536   -1.6670 N   0  3  0  0  0  0  0  0  0  0  0  0
   -5.2753    1.6648   -1.0614 H   0  0  0  0  0  0  0  0  0  0  0  0
   -5.9425    1.0139   -2.4128 H   0  0  0  0  0  0  0  0  0  0  0  0
   -5.5862    0.0526   -1.1290 H   0  0  0  0  0  0  0  0  0  0  0  0
   -1.3103    1.3348    1.2791 C   0  0  0  0  0  0  0  0  0  0  0  0
   -2.2333    1.9891    0.8084 O   0  0  0  0  0  0  0  0  0  0  0  0
   -0.4429    1.8293    2.1683 N   0  0  0  0  0  0  0  0  0  0  0  0
    0.2668    1.2118    2.5263 H   0  0  0  0  0  0  0  0  0  0  0  0
   -0.5118    3.1863    2.7135 C   0  0  0  0  0  0  0  0  0  0  0  0
   -1.4470    3.3159    3.2625 H   0  0  0  0  0  0  0  0  0  0  0  0
    0.3243    3.3682    3.3896 H   0  0  0  0  0  0  0  0  0  0  0  0
   -0.4850    3.9172    1.9023 H   0  0  0  0  0  0  0  0  0  0  0  0
  5  6  2  0  0  0  0
  5  7  1  0  0  0  0
  2  3  1  0  0  0  0
  2  4  1  0  0  0  0
  2  5  1  0  0  0  0
  1  2  1  0  0  0  0
 27 28  2  0  0  0  0
 27 29  1  0  0  0  0
 23 24  1  0  0  0  0
 23 25  1  0  0  0  0
 23 26  1  0  0  0  0
 20 21  1  0  0  0  0
 20 22  1  0  0  0  0
 20 23  1  0  0  0  0
 17 18  1  0  0  0  0
 17 19  1  0  0  0  0
 17 20  1  0  0  0  0
 14 15  1  0  0  0  0
 14 16  1  0  0  0  0
 14 17  1  0  0  0  0
 11 12  1  0  0  0  0
 11 13  1  0  0  0  0
 11 14  1  0  0  0  0
  9 10  1  0  0  0  0
  9 11  1  0  0  0  0
  9 27  1  0  0  0  0
  7  8  1  0  0  0  0
  7  9  1  0  0  0  0
 31 32  1  0  0  0  0
 31 33  1  0  0  0  0
 31 34  1  0  0  0  0
 29 30  1  0  0  0  0
 29 31  1  0  0  0  0
M  CHG  1  23   1
M  END
$$$$
default_name
  -OEChem-02102213163D

 34 33  0     1  0  0  0  0  0999 V2000
   -3.8899   -3.6747    1.6490 H   0  0  0  0  0  0  0  0  0  0  0  0
   -3.9109   -2.6717    1.2250 C   0  0  0  0  0  0  0  0  0  0  0  0
   -4.6009   -2.0517    1.7950 H   0  0  0  0  0  0  0  0  0  0  0  0
   -4.2309   -2.7237    0.1860 H   0  0  0  0  0  0  0  0  0  0  0  0
   -2.5229   -2.0787    1.2980 C   0  0  0  0  0  0  0  0  0  0  0  0
   -1.5999   -2.7227    1.7810 O   0  0  0  0  0  0  0  0  0  0  0  0
   -2.3659   -0.8447    0.8120 N   0  0  0  0  0  0  0  0  0  0  0  0
   -3.1749   -0.3807    0.4220 H   0  0  0  0  0  0  0  0  0  0  0  0
   -1.0919   -0.1077    0.8170 C   0  0  1  0  0  0  0  0  0  0  0  0
   -0.4136   -0.6011    1.5155 H   0  0  0  0  0  0  0  0  0  0  0  0
   -0.4834   -0.1723   -0.5965 C   0  0  0  0  0  0  0  0  0  0  0  0
    0.3083    0.5751   -0.6686 H   0  0  0  0  0  0  0  0  0  0  0  0
   -0.0367   -1.1567   -0.7501 H   0  0  0  0  0  0  0  0  0  0  0  0
   -1.5063    0.0987   -1.7103 C   0  0  0  0  0  0  0  0  0  0  0  0
   -1.0769    0.7805   -2.4456 H   0  0  0  0  0  0  0  0  0  0  0  0
   -1.7598   -0.8424   -2.2022 H   0  0  0  0  0  0  0  0  0  0  0  0
   -2.7796    0.7255   -1.1257 C   0  0  0  0  0  0  0  0  0  0  0  0
   -3.1990    0.0470   -0.3790 H   0  0  0  0  0  0  0  0  0  0  0  0
   -2.5221    1.6705   -0.6432 H   0  0  0  0  0  0  0  0  0  0  0  0
   -3.8115    0.9738   -2.2331 C   0  0  0  0  0  0  0  0  0  0  0  0
   -3.3701    1.6485   -2.9738 H   0  0  0  0  0  0  0  0  0  0  0  0
   -4.0233    0.0225   -2.7305 H   0  0  0  0  0  0  0  0  0  0  0  0
   -5.0639    1.5585   -1.6910 N   0  3  0  0  0  0  0  0  0  0  0  0
   -4.8759    2.4444   -1.2385 H   0  0  0  0  0  0  0  0  0  0  0  0
   -5.7339    1.7158   -2.4336 H   0  0  0  0  0  0  0  0  0  0  0  0
   -5.4812    0.9336   -1.0111 H   0  0  0  0  0  0  0  0  0  0  0  0
   -1.3103    1.3348    1.2791 C   0  0  0  0  0  0  0  0  0  0  0  0
   -2.2333    1.9891    0.8084 O   0  0  0  0  0  0  0  0  0  0  0  0
   -0.4429    1.8293    2.1683 N   0  0  0  0  0  0  0  0  0  0  0  0
    0.2668    1.2118    2.5263 H   0  0  0  0  0  0  0  0  0  0  0  0
   -0.5118    3.1863    2.7135 C   0  0  0  0  0  0  0  0  0  0  0  0
   -1.4470    3.3159    3.2625 H   0  0  0  0  0  0  0  0  0  0  0  0
    0.3243    3.3682    3.3896 H   0  0  0  0  0  0  0  0  0  0  0  0
   -0.4850    3.9172    1.9023 H   0  0  0  0  0  0  0  0  0  0  0  0
  5  6  2  0  0  0  0
  5  7  1  0  0  0  0
  2  3  1  0  0  0  0
  2  4  1  0  0  0  0
  2  5  1  0  0  0  0
  1  2  1  0  0  0  0
 27 28  2  0  0  0  0
 27 29  1  0  0  0  0
 23 24  1  0  0  0  0
 23 25  1  0  0  0  0
 23 26  1  0  0  0  0
 20 21  1  0  0  0  0
 20 22  1  0  0  0  0
 20 23  1  0  0  0  0
 17 18  1  0  0  0  0
 17 19  1  0  0  0  0
 17 20  1  0  0  0  0
 14 15  1  0  0  0  0
 14 16  1  0  0  0  0
 14 17  1  0  0  0  0
 11 12  1  0  0  0  0
 11 13  1  0  0  0  0
 11 14  1  0  0  0  0
  9 10  1  0  0  0  0
  9 11  1  0  0  0  0
  9 27  1  0  0  0  0
  7  8  1  0  0  0  0
  7  9  1  0  0  0  0
 31 32  1  0  0  0  0
 31 33  1  0  0  0  0
 31 34  1  0  0  0  0
 29 30  1  0  0  0  0
 29 31  1  0  0  0  0
M  CHG  1  23   1
M  END
$$$$
default_name
  -OEChem-02102213163D

 34 33  0     1  0  0  0  0  0999 V2000
   -3.8899   -3.6747    1.6490 H   0  0  0  0  0  0  0  0  0  0  0  0
   -3.9109   -2.6717    1.2250 C   0  0  0  0  0  0  0  0  0  0  0  0
   -4.6009   -2.0517    1.7950 H   0  0  0  0  0  0  0  0  0  0  0  0
   -4.2309   -2.7237    0.1860 H   0  0  0  0  0  0  0  0  0  0  0  0
   -2.5229   -2.0787    1.2980 C   0  0  0  0  0  0  0  0  0  0  0  0
   -1.5999   -2.7227    1.7810 O   0  0  0  0  0  0  0  0  0  0  0  0
   -2.3659   -0.8447    0.8120 N   0  0  0  0  0  0  0  0  0  0  0  0
   -3.1749   -0.3807    0.4220 H   0  0  0  0  0  0  0  0  0  0  0  0
   -1.0919   -0.1077    0.8170 C   0  0  1  0  0  0  0  0  0  0  0  0
   -0.4136   -0.6011    1.5155 H   0  0  0  0  0  0  0  0  0  0  0  0
   -0.4834   -0.1723   -0.5965 C   0  0  0  0  0  0  0  0  0  0  0  0
    0.3083    0.5751   -0.6686 H   0  0  0  0  0  0  0  0  0  0  0  0
   -0.0367   -1.1567   -0.7501 H   0  0  0  0  0  0  0  0  0  0  0  0
   -1.5063    0.0987   -1.7103 C   0  0  0  0  0  0  0  0  0  0  0  0
   -1.0054    0.5522   -2.5667 H   0  0  0  0  0  0  0  0  0  0  0  0
   -1.9584   -0.8454   -2.0206 H   0  0  0  0  0  0  0  0  0  0  0  0
   -2.6040    1.0470   -1.2087 C   0  0  0  0  0  0  0  0  0  0  0  0
   -3.0937    0.5967   -0.3420 H   0  0  0  0  0  0  0  0  0  0  0  0
   -2.1479    1.9925   -0.9085 H   0  0  0  0  0  0  0  0  0  0  0  0
   -3.6395    1.2988   -2.3119 C   0  0  0  0  0  0  0  0  0  0  0  0
   -3.1286    1.7423   -3.1728 H   0  0  0  0  0  0  0  0  0  0  0  0
   -4.0529    0.3360   -2.6270 H   0  0  0  0  0  0  0  0  0  0  0  0
   -4.7272    2.1954   -1.8454 N   0  3  0  0  0  0  0  0  0  0  0  0
   -4.3519    3.0920   -1.5622 H   0  0  0  0  0  0  0  0  0  0  0  0
   -5.4016    2.3511   -2.5841 H   0  0  0  0  0  0  0  0  0  0  0  0
   -5.2091    1.7853   -1.0539 H   0  0  0  0  0  0  0  0  0  0  0  0
   -1.3103    1.3348    1.2791 C   0  0  0  0  0  0  0  0  0  0  0  0
   -2.2333    1.9891    0.8084 O   0  0  0  0  0  0  0  0  0  0  0  0
   -0.4429    1.8293    2.1683 N   0  0  0  0  0  0  0  0  0  0  0  0
    0.2668    1.2118    2.5263 H   0  0  0  0  0  0  0  0  0  0  0  0
   -0.5118    3.1863    2.7135 C   0  0  0  0  0  0  0  0  0  0  0  0
   -1.4470    3.3159    3.2625 H   0  0  0  0  0  0  0  0  0  0  0  0
    0.3243    3.3682    3.3896 H   0  0  0  0  0  0  0  0  0  0  0  0
   -0.4850    3.9172    1.9023 H   0  0  0  0  0  0  0  0  0  0  0  0
  5  6  2  0  0  0  0
  5  7  1  0  0  0  0
  2  3  1  0  0  0  0
  2  4  1  0  0  0  0
  2  5  1  0  0  0  0
  1  2  1  0  0  0  0
 27 28  2  0  0  0  0
 27 29  1  0  0  0  0
 23 24  1  0  0  0  0
 23 25  1  0  0  0  0
 23 26  1  0  0  0  0
 20 21  1  0  0  0  0
 20 22  1  0  0  0  0
 20 23  1  0  0  0  0
 17 18  1  0  0  0  0
 17 19  1  0  0  0  0
 17 20  1  0  0  0  0
 14 15  1  0  0  0  0
 14 16  1  0  0  0  0
 14 17  1  0  0  0  0
 11 12  1  0  0  0  0
 11 13  1  0  0  0  0
 11 14  1  0  0  0  0
  9 10  1  0  0  0  0
  9 11  1  0  0  0  0
  9 27  1  0  0  0  0
  7  8  1  0  0  0  0
  7  9  1  0  0  0  0
 31 32  1  0  0  0  0
 31 33  1  0  0  0  0
 31 34  1  0  0  0  0
 29 30  1  0  0  0  0
 29 31  1  0  0  0  0
M  CHG  1  23   1
M  END
$$$$
default_name
  -OEChem-02102213163D

 34 33  0     1  0  0  0  0  0999 V2000
   -3.8899   -3.6747    1.6490 H   0  0  0  0  0  0  0  0  0  0  0  0
   -3.9109   -2.6717    1.2250 C   0  0  0  0  0  0  0  0  0  0  0  0
   -4.6009   -2.0517    1.7950 H   0  0  0  0  0  0  0  0  0  0  0  0
   -4.2309   -2.7237    0.1860 H   0  0  0  0  0  0  0  0  0  0  0  0
   -2.5229   -2.0787    1.2980 C   0  0  0  0  0  0  0  0  0  0  0  0
   -1.5999   -2.7227    1.7810 O   0  0  0  0  0  0  0  0  0  0  0  0
   -2.3659   -0.8447    0.8120 N   0  0  0  0  0  0  0  0  0  0  0  0
   -3.1749   -0.3807    0.4220 H   0  0  0  0  0  0  0  0  0  0  0  0
   -1.0919   -0.1077    0.8170 C   0  0  1  0  0  0  0  0  0  0  0  0
   -0.4136   -0.6011    1.5155 H   0  0  0  0  0  0  0  0  0  0  0  0
   -0.4834   -0.1723   -0.5965 C   0  0  0  0  0  0  0  0  0  0  0  0
    0.3083    0.5751   -0.6686 H   0  0  0  0  0  0  0  0  0  0  0  0
   -0.0367   -1.1567   -0.7501 H   0  0  0  0  0  0  0  0  0  0  0  0
   -1.5063    0.0987   -1.7103 C   0  0  0  0  0  0  0  0  0  0  0  0
   -0.9848    0.2974   -2.6476 H   0  0  0  0  0  0  0  0  0  0  0  0
   -2.1424   -0.7797   -1.8356 H   0  0  0  0  0  0  0  0  0  0  0  0
   -2.3779    1.3104   -1.3524 C   0  0  0  0  0  0  0  0  0  0  0  0
   -2.8871    1.1143   -0.4057 H   0  0  0  0  0  0  0  0  0  0  0  0
   -1.7382    2.1876   -1.2373 H   0  0  0  0  0  0  0  0  0  0  0  0
   -3.4160    1.5670   -2.4519 C   0  0  0  0  0  0  0  0  0  0  0  0
   -2.8868    1.7533   -3.3921 H   0  0  0  0  0  0  0  0  0  0  0  0
   -4.0179    0.6622   -2.5798 H   0  0  0  0  0  0  0  0  0  0  0  0
   -4.2894    2.7207   -2.1196 N   0  3  0  0  0  0  0  0  0  0  0  0
   -3.7391    3.5633   -2.0103 H   0  0  0  0  0  0  0  0  0  0  0  0
   -4.9684    2.8765   -2.8542 H   0  0  0  0  0  0  0  0  0  0  0  0
   -4.7883    2.5494   -1.2543 H   0  0  0  0  0  0  0  0  0  0  0  0
   -1.3103    1.3348    1.2791 C   0  0  0  0  0  0  0  0  0  0  0  0
   -2.2333    1.9891    0.8084 O   0  0  0  0  0  0  0  0  0  0  0  0
   -0.4429    1.8293    2.1683 N   0  0  0  0  0  0  0  0  0  0  0  0
    0.2668    1.2118    2.5263 H   0  0  0  0  0  0  0  0  0  0  0  0
   -0.5118    3.1863    2.7135 C   0  0  0  0  0  0  0  0  0  0  0  0
   -1.4470    3.3159    3.2625 H   0  0  0  0  0  0  0  0  0  0  0  0
    0.3243    3.3682    3.3896 H   0  0  0  0  0  0  0  0  0  0  0  0
   -0.4850    3.9172    1.9023 H   0  0  0  0  0  0  0  0  0  0  0  0
  5  6  2  0  0  0  0
  5  7  1  0  0  0  0
  2  3  1  0  0  0  0
  2  4  1  0  0  0  0
  2  5  1  0  0  0  0
  1  2  1  0  0  0  0
 27 28  2  0  0  0  0
 27 29  1  0  0  0  0
 23 24  1  0  0  0  0
 23 25  1  0  0  0  0
 23 26  1  0  0  0  0
 20 21  1  0  0  0  0
 20 22  1  0  0  0  0
 20 23  1  0  0  0  0
 17 18  1  0  0  0  0
 17 19  1  0  0  0  0
 17 20  1  0  0  0  0
 14 15  1  0  0  0  0
 14 16  1  0  0  0  0
 14 17  1  0  0  0  0
 11 12  1  0  0  0  0
 11 13  1  0  0  0  0
 11 14  1  0  0  0  0
  9 10  1  0  0  0  0
  9 11  1  0  0  0  0
  9 27  1  0  0  0  0
  7  8  1  0  0  0  0
  7  9  1  0  0  0  0
 31 32  1  0  0  0  0
 31 33  1  0  0  0  0
 31 34  1  0  0  0  0
 29 30  1  0  0  0  0
 29 31  1  0  0  0  0
M  CHG  1  23   1
M  END
$$$$
default_name
  -OEChem-02102213163D

 34 33  0     1  0  0  0  0  0999 V2000
   -3.8899   -3.6747    1.6490 H   0  0  0  0  0  0  0  0  0  0  0  0
   -3.9109   -2.6717    1.2250 C   0  0  0  0  0  0  0  0  0  0  0  0
   -4.6009   -2.0517    1.7950 H   0  0  0  0  0  0  0  0  0  0  0  0
   -4.2309   -2.7237    0.1860 H   0  0  0  0  0  0  0  0  0  0  0  0
   -2.5229   -2.0787    1.2980 C   0  0  0  0  0  0  0  0  0  0  0  0
   -1.5999   -2.7227    1.7810 O   0  0  0  0  0  0  0  0  0  0  0  0
   -2.3659   -0.8447    0.8120 N   0  0  0  0  0  0  0  0  0  0  0  0
   -3.1749   -0.3807    0.4220 H   0  0  0  0  0  0  0  0  0  0  0  0
   -1.0919   -0.1077    0.8170 C   0  0  1  0  0  0  0  0  0  0  0  0
   -0.4136   -0.6011    1.5155 H   0  0  0  0  0  0  0  0  0  0  0  0
   -0.4834   -0.1723   -0.5965 C   0  0  0  0  0  0  0  0  0  0  0  0
    0.3083    0.5751   -0.6686 H   0  0  0  0  0  0  0  0  0  0  0  0
   -0.0367   -1.1567   -0.7501 H   0  0  0  0  0  0  0  0  0  0  0  0
   -1.5063    0.0987   -1.7103 C   0  0  0  0  0  0  0  0  0  0  0  0
   -1.0164    0.0335   -2.6828 H   0  0  0  0  0  0  0  0  0  0  0  0
   -2.2994   -0.6498   -1.6598 H   0  0  0  0  0  0  0  0  0  0  0  0
   -2.1166    1.4975   -1.5468 C   0  0  0  0  0  0  0  0  0  0  0  0
   -2.5934    1.5645   -0.5659 H   0  0  0  0  0  0  0  0  0  0  0  0
   -1.3208    2.2426   -1.6073 H   0  0  0  0  0  0  0  0  0  0  0  0
   -3.1562    1.7599   -2.6436 C   0  0  0  0  0  0  0  0  0  0  0  0
   -2.6612    1.6807   -3.6170 H   0  0  0  0  0  0  0  0  0  0  0  0
   -3.9208    0.9789   -2.5919 H   0  0  0  0  0  0  0  0  0  0  0  0
   -3.7805    3.0988   -2.4949 N   0  3  0  0  0  0  0  0  0  0  0  0
   -3.0791    3.8265   -2.5524 H   0  0  0  0  0  0  0  0  0  0  0  0
   -4.4636    3.2561   -3.2254 H   0  0  0  0  0  0  0  0  0  0  0  0
   -4.2477    3.1741   -1.5989 H   0  0  0  0  0  0  0  0  0  0  0  0
   -1.3103    1.3348    1.2791 C   0  0  0  0  0  0  0  0  0  0  0  0
   -2.2333    1.9891    0.8084 O   0  0  0  0  0  0  0  0  0  0  0  0
   -0.4429    1.8293    2.1683 N   0  0  0  0  0  0  0  0  0  0  0  0
    0.2668    1.2118    2.5263 H   0  0  0  0  0  0  0  0  0  0  0  0
   -0.5118    3.1863    2.7135 C   0  0  0  0  0  0  0  0  0  0  0  0
   -1.4470    3.3159    3.2625 H   0  0  0  0  0  0  0  0  0  0  0  0
    0.3243    3.3682    3.3896 H   0  0  0  0  0  0  0  0  0  0  0  0
   -0.4850    3.9172    1.9023 H   0  0  0  0  0  0  0  0  0  0  0  0
  5  6  2  0  0  0  0
  5  7  1  0  0  0  0
  2  3  1  0  0  0  0
  2  4  1  0  0  0  0
  2  5  1  0  0  0  0
  1  2  1  0  0  0  0
 27 28  2  0  0  0  0
 27 29  1  0  0  0  0
 23 24  1  0  0  0  0
 23 25  1  0  0  0  0
 23 26  1  0  0  0  0
 20 21  1  0  0  0  0
 20 22  1  0  0  0  0
 20 23  1  0  0  0  0
 17 18  1  0  0  0  0
 17 19  1  0  0  0  0
 17 20  1  0  0  0  0
 14 15  1  0  0  0  0
 14 16  1  0  0  0  0
 14 17  1  0  0  0  0
 11 12  1  0  0  0  0
 11 13  1  0  0  0  0
 11 14  1  0  0  0  0
  9 10  1  0  0  0  0
  9 11  1  0  0  0  0
  9 27  1  0  0  0  0
  7  8  1  0  0  0  0
  7  9  1  0  0  0  0
 31 32  1  0  0  0  0
 31 33  1  0  0  0  0
 31 34  1  0  0  0  0
 29 30  1  0  0  0  0
 29 31  1  0  0  0  0
M  CHG  1  23   1
M  END
$$$$
default_name
  -OEChem-02102213163D

 34 33  0     1  0  0  0  0  0999 V2000
   -3.8899   -3.6747    1.6490 H   0  0  0  0  0  0  0  0  0  0  0  0
   -3.9109   -2.6717    1.2250 C   0  0  0  0  0  0  0  0  0  0  0  0
   -4.6009   -2.0517    1.7950 H   0  0  0  0  0  0  0  0  0  0  0  0
   -4.2309   -2.7237    0.1860 H   0  0  0  0  0  0  0  0  0  0  0  0
   -2.5229   -2.0787    1.2980 C   0  0  0  0  0  0  0  0  0  0  0  0
   -1.5999   -2.7227    1.7810 O   0  0  0  0  0  0  0  0  0  0  0  0
   -2.3659   -0.8447    0.8120 N   0  0  0  0  0  0  0  0  0  0  0  0
   -3.1749   -0.3807    0.4220 H   0  0  0  0  0  0  0  0  0  0  0  0
   -1.0919   -0.1077    0.8170 C   0  0  1  0  0  0  0  0  0  0  0  0
   -0.4136   -0.6011    1.5155 H   0  0  0  0  0  0  0  0  0  0  0  0
   -0.4834   -0.1723   -0.5965 C   0  0  0  0  0  0  0  0  0  0  0  0
    0.3083    0.5751   -0.6686 H   0  0  0  0  0  0  0  0  0  0  0  0
   -0.0367   -1.1567   -0.7501 H   0  0  0  0  0  0  0  0  0  0  0  0
   -1.5063    0.0987   -1.7103 C   0  0  0  0  0  0  0  0  0  0  0  0
   -1.0981   -0.2216   -2.6699 H   0  0  0  0  0  0  0  0  0  0  0  0
   -2.4187   -0.4646   -1.5052 H   0  0  0  0  0  0  0  0  0  0  0  0
   -1.8380    1.5958   -1.7787 C   0  0  0  0  0  0  0  0  0  0  0  0
   -2.2325    1.9167   -0.8117 H   0  0  0  0  0  0  0  0  0  0  0  0
   -0.9242    2.1536   -1.9932 H   0  0  0  0  0  0  0  0  0  0  0  0
   -2.8778    1.8645   -2.8738 C   0  0  0  0  0  0  0  0  0  0  0  0
   -2.4672    1.5296   -3.8319 H   0  0  0  0  0  0  0  0  0  0  0  0
   -3.7681    1.2645   -2.6627 H   0  0  0  0  0  0  0  0  0  0  0  0
   -3.2352    3.3038   -2.9459 N   0  3  0  0  0  0  0  0  0  0  0  0
   -2.4170    3.8634   -3.1515 H   0  0  0  0  0  0  0  0  0  0  0  0
   -3.9218    3.4641   -3.6724 H   0  0  0  0  0  0  0  0  0  0  0  0
   -3.6240    3.6166   -2.0640 H   0  0  0  0  0  0  0  0  0  0  0  0
   -1.3103    1.3348    1.2791 C   0  0  0  0  0  0  0  0  0  0  0  0
   -2.2333    1.9891    0.8084 O   0  0  0  0  0  0  0  0  0  0  0  0
   -0.4429    1.8293    2.1683 N   0  0  0  0  0  0  0  0  0  0  0  0
    0.2668    1.2118    2.5263 H   0  0  0  0  0  0  0  0  0  0  0  0
   -0.5118    3.1863    2.7135 C   0  0  0  0  0  0  0  0  0  0  0  0
   -1.4470    3.3159    3.2625 H   0  0  0  0  0  0  0  0  0  0  0  0
    0.3243    3.3682    3.3896 H   0  0  0  0  0  0  0  0  0  0  0  0
   -0.4850    3.9172    1.9023 H   0  0  0  0  0  0  0  0  0  0  0  0
  5  6  2  0  0  0  0
  5  7  1  0  0  0  0
  2  3  1  0  0  0  0
  2  4  1  0  0  0  0
  2  5  1  0  0  0  0
  1  2  1  0  0  0  0
 27 28  2  0  0  0  0
 27 29  1  0  0  0  0
 23 24  1  0  0  0  0
 23 25  1  0  0  0  0
 23 26  1  0  0  0  0
 20 21  1  0  0  0  0
 20 22  1  0  0  0  0
 20 23  1  0  0  0  0
 17 18  1  0  0  0  0
 17 19  1  0  0  0  0
 17 20  1  0  0  0  0
 14 15  1  0  0  0  0
 14 16  1  0  0  0  0
 14 17  1  0  0  0  0
 11 12  1  0  0  0  0
 11 13  1  0  0  0  0
 11 14  1  0  0  0  0
  9 10  1  0  0  0  0
  9 11  1  0  0  0  0
  9 27  1  0  0  0  0
  7  8  1  0  0  0  0
  7  9  1  0  0  0  0
 31 32  1  0  0  0  0
 31 33  1  0  0  0  0
 31 34  1  0  0  0  0
 29 30  1  0  0  0  0
 29 31  1  0  0  0  0
M  CHG  1  23   1
M  END
$$$$
default_name
  -OEChem-02102213163D

 34 33  0     1  0  0  0  0  0999 V2000
   -3.8899   -3.6747    1.6490 H   0  0  0  0  0  0  0  0  0  0  0  0
   -3.9109   -2.6717    1.2250 C   0  0  0  0  0  0  0  0  0  0  0  0
   -4.6009   -2.0517    1.7950 H   0  0  0  0  0  0  0  0  0  0  0  0
   -4.2309   -2.7237    0.1860 H   0  0  0  0  0  0  0  0  0  0  0  0
   -2.5229   -2.0787    1.2980 C   0  0  0  0  0  0  0  0  0  0  0  0
   -1.5999   -2.7227    1.7810 O   0  0  0  0  0  0  0  0  0  0  0  0
   -2.3659   -0.8447    0.8120 N   0  0  0  0  0  0  0  0  0  0  0  0
   -3.1749   -0.3807    0.4220 H   0  0  0  0  0  0  0  0  0  0  0  0
   -1.0919   -0.1077    0.8170 C   0  0  1  0  0  0  0  0  0  0  0  0
   -0.4136   -0.6011    1.5155 H   0  0  0  0  0  0  0  0  0  0  0  0
   -0.4834   -0.1723   -0.5965 C   0  0  0  0  0  0  0  0  0  0  0  0
    0.3083    0.5751   -0.6686 H   0  0  0  0  0  0  0  0  0  0  0  0
   -0.0367   -1.1567   -0.7501 H   0  0  0  0  0  0  0  0  0  0  0  0
   -1.5063    0.0987   -1.7103 C   0  0  0  0  0  0  0  0  0  0  0  0
   -1.2242   -0.4504   -2.6097 H   0  0  0  0  0  0  0  0  0  0  0  0
   -2.4921   -0.2367   -1.3823 H   0  0  0  0  0  0  0  0  0  0  0  0
   -1.5611    1.5984   -2.0324 C   0  0  0  0  0  0  0  0  0  0  0  0
   -1.8291    2.1468   -1.1262 H   0  0  0  0  0  0  0  0  0  0  0  0
   -0.5755    1.9267   -2.3686 H   0  0  0  0  0  0  0  0  0  0  0  0
   -2.5998    1.8736   -3.1270 C   0  0  0  0  0  0  0  0  0  0  0  0
   -2.3179    1.3101   -4.0224 H   0  0  0  0  0  0  0  0  0  0  0  0
   -3.5702    1.4995   -2.7872 H   0  0  0  0  0  0  0  0  0  0  0  0
   -2.6906    3.3218   -3.4417 N   0  3  0  0  0  0  0  0  0  0  0  0
   -1.7979    3.6715   -3.7668 H   0  0  0  0  0  0  0  0  0  0  0  0
   -3.3798    3.4864   -4.1647 H   0  0  0  0  0  0  0  0  0  0  0  0
   -2.9598    3.8469   -2.6180 H   0  0  0  0  0  0  0  0  0  0  0  0
   -1.3103    1.3348    1.2791 C   0  0  0  0  0  0  0  0  0  0  0  0
   -2.2333    1.9891    0.8084 O   0  0  0  0  0  0  0  0  0  0  0  0
   -0.4429    1.8293    2.1683 N   0  0  0  0  0  0  0  0  0  0  0  0
    0.2668    1.2118    2.5263 H   0  0  0  0  0  0  0  0  0  0  0  0
   -0.5118    3.1863    2.7135 C   0  0  0  0  0  0  0  0  0  0  0  0
   -1.4470    3.3159    3.2625 H   0  0  0  0  0  0  0  0  0  0  0  0
    0.3243    3.3682    3.3896 H   0  0  0  0  0  0  0  0  0  0  0  0
   -0.4850    3.9172    1.9023 H   0  0  0  0  0  0  0  0  0  0  0  0
  5  6  2  0  0  0  0
  5  7  1  0  0  0  0
  2  3  1  0  0  0  0
  2  4  1  0  0  0  0
  2  5  1  0  0  0  0
  1  2  1  0  0  0  0
 27 28  2  0  0  0  0
 27 29  1  0  0  0  0
 23 24  1  0  0  0  0
 23 25  1  0  0  0  0
 23 26  1  0  0  0  0
 20 21  1  0  0  0  0
 20 22  1  0  0  0  0
 20 23  1  0  0  0  0
 17 18  1  0  0  0  0
 17 19  1  0  0  0  0
 17 20  1  0  0  0  0
 14 15  1  0  0  0  0
 14 16  1  0  0  0  0
 14 17  1  0  0  0  0
 11 12  1  0  0  0  0
 11 13  1  0  0  0  0
 11 14  1  0  0  0  0
  9 10  1  0  0  0  0
  9 11  1  0  0  0  0
  9 27  1  0  0  0  0
  7  8  1  0  0  0  0
  7  9  1  0  0  0  0
 31 32  1  0  0  0  0
 31 33  1  0  0  0  0
 31 34  1  0  0  0  0
 29 30  1  0  0  0  0
 29 31  1  0  0  0  0
M  CHG  1  23   1
M  END
$$$$
default_name
  -OEChem-02102213163D

 34 33  0     1  0  0  0  0  0999 V2000
   -3.8899   -3.6747    1.6490 H   0  0  0  0  0  0  0  0  0  0  0  0
   -3.9109   -2.6717    1.2250 C   0  0  0  0  0  0  0  0  0  0  0  0
   -4.6009   -2.0517    1.7950 H   0  0  0  0  0  0  0  0  0  0  0  0
   -4.2309   -2.7237    0.1860 H   0  0  0  0  0  0  0  0  0  0  0  0
   -2.5229   -2.0787    1.2980 C   0  0  0  0  0  0  0  0  0  0  0  0
   -1.5999   -2.7227    1.7810 O   0  0  0  0  0  0  0  0  0  0  0  0
   -2.3659   -0.8447    0.8120 N   0  0  0  0  0  0  0  0  0  0  0  0
   -3.1749   -0.3807    0.4220 H   0  0  0  0  0  0  0  0  0  0  0  0
   -1.0919   -0.1077    0.8170 C   0  0  1  0  0  0  0  0  0  0  0  0
   -0.4136   -0.6011    1.5155 H   0  0  0  0  0  0  0  0  0  0  0  0
   -0.4834   -0.1723   -0.5965 C   0  0  0  0  0  0  0  0  0  0  0  0
    0.3083    0.5751   -0.6686 H   0  0  0  0  0  0  0  0  0  0  0  0
   -0.0367   -1.1567   -0.7501 H   0  0  0  0  0  0  0  0  0  0  0  0
   -1.5063    0.0987   -1.7103 C   0  0  0  0  0  0  0  0  0  0  0  0
   -1.3863   -0.6374   -2.5064 H   0  0  0  0  0  0  0  0  0  0  0  0
   -2.5146    0.0184   -1.2996 H   0  0  0  0  0  0  0  0  0  0  0  0
   -1.3046    1.5053   -2.2906 C   0  0  0  0  0  0  0  0  0  0  0  0
   -1.4106    2.2391   -1.4881 H   0  0  0  0  0  0  0  0  0  0  0  0
   -0.2984    1.5774   -2.7081 H   0  0  0  0  0  0  0  0  0  0  0  0
   -2.3410    1.7866   -3.3857 C   0  0  0  0  0  0  0  0  0  0  0  0
   -2.2237    1.0373   -4.1753 H   0  0  0  0  0  0  0  0  0  0  0  0
   -3.3407    1.6679   -2.9570 H   0  0  0  0  0  0  0  0  0  0  0  0
   -2.1837    3.1515   -3.9486 N   0  3  0  0  0  0  0  0  0  0  0  0
   -1.2640    3.2641   -4.3563 H   0  0  0  0  0  0  0  0  0  0  0  0
   -2.8746    3.3213   -4.6689 H   0  0  0  0  0  0  0  0  0  0  0  0
   -2.3003    3.8493   -3.2231 H   0  0  0  0  0  0  0  0  0  0  0  0
   -1.3103    1.3348    1.2791 C   0  0  0  0  0  0  0  0  0  0  0  0
   -2.2333    1.9891    0.8084 O   0  0  0  0  0  0  0  0  0  0  0  0
   -0.4429    1.8293    2.1683 N   0  0  0  0  0  0  0  0  0  0  0  0
    0.2668    1.2118    2.5263 H   0  0  0  0  0  0  0  0  0  0  0  0
   -0.5118    3.1863    2.7135 C   0  0  0  0  0  0  0  0  0  0  0  0
   -1.4470    3.3159    3.2625 H   0  0  0  0  0  0  0  0  0  0  0  0
    0.3243    3.3682    3.3896 H   0  0  0  0  0  0  0  0  0  0  0  0
   -0.4850    3.9172    1.9023 H   0  0  0  0  0  0  0  0  0  0  0  0
  5  6  2  0  0  0  0
  5  7  1  0  0  0  0
  2  3  1  0  0  0  0
  2  4  1  0  0  0  0
  2  5  1  0  0  0  0
  1  2  1  0  0  0  0
 27 28  2  0  0  0  0
 27 29  1  0  0  0  0
 23 24  1  0  0  0  0
 23 25  1  0  0  0  0
 23 26  1  0  0  0  0
 20 21  1  0  0  0  0
 20 22  1  0  0  0  0
 20 23  1  0  0  0  0
 17 18  1  0  0  0  0
 17 19  1  0  0  0  0
 17 20  1  0  0  0  0
 14 15  1  0  0  0  0
 14 16  1  0  0  0  0
 14 17  1  0  0  0  0
 11 12  1  0  0  0  0
 11 13  1  0  0  0  0
 11 14  1  0  0  0  0
  9 10  1  0  0  0  0
  9 11  1  0  0  0  0
  9 27  1  0  0  0  0
  7  8  1  0  0  0  0
  7  9  1  0  0  0  0
 31 32  1  0  0  0  0
 31 33  1  0  0  0  0
 31 34  1  0  0  0  0
 29 30  1  0  0  0  0
 29 31  1  0  0  0  0
M  CHG  1  23   1
M  END
$$$$
default_name
  -OEChem-02102213163D

 34 33  0     1  0  0  0  0  0999 V2000
   -3.8899   -3.6747    1.6490 H   0  0  0  0  0  0  0  0  0  0  0  0
   -3.9109   -2.6717    1.2250 C   0  0  0  0  0  0  0  0  0  0  0  0
   -4.6009   -2.0517    1.7950 H   0  0  0  0  0  0  0  0  0  0  0  0
   -4.2309   -2.7237    0.1860 H   0  0  0  0  0  0  0  0  0  0  0  0
   -2.5229   -2.0787    1.2980 C   0  0  0  0  0  0  0  0  0  0  0  0
   -1.5999   -2.7227    1.7810 O   0  0  0  0  0  0  0  0  0  0  0  0
   -2.3659   -0.8447    0.8120 N   0  0  0  0  0  0  0  0  0  0  0  0
   -3.1749   -0.3807    0.4220 H   0  0  0  0  0  0  0  0  0  0  0  0
   -1.0919   -0.1077    0.8170 C   0  0  1  0  0  0  0  0  0  0  0  0
   -0.4136   -0.6011    1.5155 H   0  0  0  0  0  0  0  0  0  0  0  0
   -0.4834   -0.1723   -0.5965 C   0  0  0  0  0  0  0  0  0  0  0  0
    0.3083    0.5751   -0.6686 H   0  0  0  0  0  0  0  0  0  0  0  0
   -0.0367   -1.1567   -0.7501 H   0  0  0  0  0  0  0  0  0  0  0  0
   -1.5063    0.0987   -1.7103 C   0  0  0  0  0  0  0  0  0  0  0  0
   -1.5731   -0.7698   -2.3670 H   0  0  0  0  0  0  0  0  0  0  0  0
   -2.4847    0.2832   -1.2626 H   0  0  0  0  0  0  0  0  0  0  0  0
   -1.0862    1.3228   -2.5356 C   0  0  0  0  0  0  0  0  0  0  0  0
   -1.0056    2.1875   -1.8726 H   0  0  0  0  0  0  0  0  0  0  0  0
   -0.1117    1.1295   -2.9886 H   0  0  0  0  0  0  0  0  0  0  0  0
   -2.1193    1.6094   -3.6325 C   0  0  0  0  0  0  0  0  0  0  0  0
   -2.1908    0.7297   -4.2804 H   0  0  0  0  0  0  0  0  0  0  0  0
   -3.0952    1.7582   -3.1605 H   0  0  0  0  0  0  0  0  0  0  0  0
   -1.7493    2.8046   -4.4320 N   0  3  0  0  0  0  0  0  0  0  0  0
   -0.8516    2.6687   -4.8798 H   0  0  0  0  0  0  0  0  0  0  0  0
   -2.4406    2.9802   -5.1505 H   0  0  0  0  0  0  0  0  0  0  0  0
   -1.6904    3.6235   -3.8381 H   0  0  0  0  0  0  0  0  0  0  0  0
   -1.3103    1.3348    1.2791 C   0  0  0  0  0  0  0  0  0  0  0  0
   -2.2333    1.9891    0.8084 O   0  0  0  0  0  0  0  0  0  0  0  0
   -0.4429    1.8293    2.1683 N   0  0  0  0  0  0  0  0  0  0  0  0
    0.2668    1.2118    2.5263 H   0  0  0  0  0  0  0  0  0  0  0  0
   -0.5118    3.1863    2.7135 C   0  0  0  0  0  0  0  0  0  0  0  0
   -1.4470    3.3159    3.2625 H   0  0  0  0  0  0  0  0  0  0  0  0
    0.3243    3.3682    3.3896 H   0  0  0  0  0  0  0  0  0  0  0  0
   -0.4850    3.9172    1.9023 H   0  0  0  0  0  0  0  0  0  0  0  0
  5  6  2  0  0  0  0
  5  7  1  0  0  0  0
  2  3  1  0  0  0  0
  2  4  1  0  0  0  0
  2  5  1  0  0  0  0
  1  2  1  0  0  0  0
 27 28  2  0  0  0  0
 27 29  1  0  0  0  0
 23 24  1  0  0  0  0
 23 25  1  0  0  0  0
 23 26  1  0  0  0  0
 20 21  1  0  0  0  0
 20 22  1  0  0  0  0
 20 23  1  0  0  0  0
 17 18  1  0  0  0  0
 17 19  1  0  0  0  0
 17 20  1  0  0  0  0
 14 15  1  0  0  0  0
 14 16  1  0  0  0  0
 14 17  1  0  0  0  0
 11 12  1  0  0  0  0
 11 13  1  0  0  0  0
 11 14  1  0  0  0  0
  9 10  1  0  0  0  0
  9 11  1  0  0  0  0
  9 27  1  0  0  0  0
  7  8  1  0  0  0  0
  7  9  1  0  0  0  0
 31 32  1  0  0  0  0
 31 33  1  0  0  0  0
 31 34  1  0  0  0  0
 29 30  1  0  0  0  0
 29 31  1  0  0  0  0
M  CHG  1  23   1
M  END
$$$$
default_name
  -OEChem-02102213163D

 34 33  0     1  0  0  0  0  0999 V2000
   -3.8899   -3.6747    1.6490 H   0  0  0  0  0  0  0  0  0  0  0  0
   -3.9109   -2.6717    1.2250 C   0  0  0  0  0  0  0  0  0  0  0  0
   -4.6009   -2.0517    1.7950 H   0  0  0  0  0  0  0  0  0  0  0  0
   -4.2309   -2.7237    0.1860 H   0  0  0  0  0  0  0  0  0  0  0  0
   -2.5229   -2.0787    1.2980 C   0  0  0  0  0  0  0  0  0  0  0  0
   -1.5999   -2.7227    1.7810 O   0  0  0  0  0  0  0  0  0  0  0  0
   -2.3659   -0.8447    0.8120 N   0  0  0  0  0  0  0  0  0  0  0  0
   -3.1749   -0.3807    0.4220 H   0  0  0  0  0  0  0  0  0  0  0  0
   -1.0919   -0.1077    0.8170 C   0  0  1  0  0  0  0  0  0  0  0  0
   -0.4136   -0.6011    1.5155 H   0  0  0  0  0  0  0  0  0  0  0  0
   -0.4834   -0.1723   -0.5965 C   0  0  0  0  0  0  0  0  0  0  0  0
    0.3083    0.5751   -0.6686 H   0  0  0  0  0  0  0  0  0  0  0  0
   -0.0367   -1.1567   -0.7501 H   0  0  0  0  0  0  0  0  0  0  0  0
   -1.5063    0.0987   -1.7103 C   0  0  0  0  0  0  0  0  0  0  0  0
   -1.7721   -0.8386   -2.2010 H   0  0  0  0  0  0  0  0  0  0  0  0
   -2.4045    0.5399   -1.2739 H   0  0  0  0  0  0  0  0  0  0  0  0
   -0.9206    1.0632   -2.7508 C   0  0  0  0  0  0  0  0  0  0  0  0
   -0.6416    1.9953   -2.2537 H   0  0  0  0  0  0  0  0  0  0  0  0
   -0.0282    0.6135   -3.1907 H   0  0  0  0  0  0  0  0  0  0  0  0
   -1.9496    1.3542   -3.8504 C   0  0  0  0  0  0  0  0  0  0  0  0
   -2.2215    0.4084   -4.3303 H   0  0  0  0  0  0  0  0  0  0  0  0
   -2.8504    1.7643   -3.3839 H   0  0  0  0  0  0  0  0  0  0  0  0
   -1.4168    2.3047   -4.8590 N   0  3  0  0  0  0  0  0  0  0  0  0
   -0.5889    1.9260   -5.3018 H   0  0  0  0  0  0  0  0  0  0  0  0
   -2.1073    2.4863   -5.5767 H   0  0  0  0  0  0  0  0  0  0  0  0
   -1.1718    3.1851   -4.4211 H   0  0  0  0  0  0  0  0  0  0  0  0
   -1.3103    1.3348    1.2791 C   0  0  0  0  0  0  0  0  0  0  0  0
   -2.2333    1.9891    0.8084 O   0  0  0  0  0  0  0  0  0  0  0  0
   -0.4429    1.8293    2.1683 N   0  0  0  0  0  0  0  0  0  0  0  0
    0.2668    1.2118    2.5263 H   0  0  0  0  0  0  0  0  0  0  0  0
   -0.5118    3.1863    2.7135 C   0  0  0  0  0  0  0  0  0  0  0  0
   -1.4470    3.3159    3.2625 H   0  0  0  0  0  0  0  0  0  0  0  0
    0.3243    3.3682    3.3896 H   0  0  0  0  0  0  0  0  0  0  0  0
   -0.4850    3.9172    1.9023 H   0  0  0  0  0  0  0  0  0  0  0  0
  5  6  2  0  0  0  0
  5  7  1  0  0  0  0
  2  3  1  0  0  0  0
  2  4  1  0  0  0  0
  2  5  1  0  0  0  0
  1  2  1  0  0  0  0
 27 28  2  0  0  0  0
 27 29  1  0  0  0  0
 23 24  1  0  0  0  0
 23 25  1  0  0  0  0
 23 26  1  0  0  0  0
 20 21  1  0  0  0  0
 20 22  1  0  0  0  0
 20 23  1  0  0  0  0
 17 18  1  0  0  0  0
 17 19  1  0  0  0  0
 17 20  1  0  0  0  0
 14 15  1  0  0  0  0
 14 16  1  0  0  0  0
 14 17  1  0  0  0  0
 11 12  1  0  0  0  0
 11 13  1  0  0  0  0
 11 14  1  0  0  0  0
  9 10  1  0  0  0  0
  9 11  1  0  0  0  0
  9 27  1  0  0  0  0
  7  8  1  0  0  0  0
  7  9  1  0  0  0  0
 31 32  1  0  0  0  0
 31 33  1  0  0  0  0
 31 34  1  0  0  0  0
 29 30  1  0  0  0  0
 29 31  1  0  0  0  0
M  CHG  1  23   1
M  END
$$$$
default_name
  -OEChem-02102213163D

 34 33  0     1  0  0  0  0  0999 V2000
   -3.8899   -3.6747    1.6490 H   0  0  0  0  0  0  0  0  0  0  0  0
   -3.9109   -2.6717    1.2250 C   0  0  0  0  0  0  0  0  0  0  0  0
   -4.6009   -2.0517    1.7950 H   0  0  0  0  0  0  0  0  0  0  0  0
   -4.2309   -2.7237    0.1860 H   0  0  0  0  0  0  0  0  0  0  0  0
   -2.5229   -2.0787    1.2980 C   0  0  0  0  0  0  0  0  0  0  0  0
   -1.5999   -2.7227    1.7810 O   0  0  0  0  0  0  0  0  0  0  0  0
   -2.3659   -0.8447    0.8120 N   0  0  0  0  0  0  0  0  0  0  0  0
   -3.1749   -0.3807    0.4220 H   0  0  0  0  0  0  0  0  0  0  0  0
   -1.0919   -0.1077    0.8170 C   0  0  1  0  0  0  0  0  0  0  0  0
   -0.4136   -0.6011    1.5155 H   0  0  0  0  0  0  0  0  0  0  0  0
   -0.4834   -0.1723   -0.5965 C   0  0  0  0  0  0  0  0  0  0  0  0
    0.3083    0.5751   -0.6686 H   0  0  0  0  0  0  0  0  0  0  0  0
   -0.0367   -1.1567   -0.7501 H   0  0  0  0  0  0  0  0  0  0  0  0
   -1.5063    0.0987   -1.7103 C   0  0  0  0  0  0  0  0  0  0  0  0
   -1.9697   -0.8391   -2.0197 H   0  0  0  0  0  0  0  0  0  0  0  0
   -2.2793    0.7707   -1.3326 H   0  0  0  0  0  0  0  0  0  0  0  0
   -0.8192    0.7443   -2.9215 C   0  0  0  0  0  0  0  0  0  0  0  0
   -0.3434    1.6757   -2.6052 H   0  0  0  0  0  0  0  0  0  0  0  0
   -0.0537    0.0646   -3.3009 H   0  0  0  0  0  0  0  0  0  0  0  0
   -1.8435    1.0382   -4.0247 C   0  0  0  0  0  0  0  0  0  0  0  0
   -2.3137    0.0952   -4.3218 H   0  0  0  0  0  0  0  0  0  0  0  0
   -2.6229    1.6858   -3.6119 H   0  0  0  0  0  0  0  0  0  0  0  0
   -1.2089    1.6858   -5.2004 N   0  3  0  0  0  0  0  0  0  0  0  0
   -0.4938    1.0866   -5.5934 H   0  0  0  0  0  0  0  0  0  0  0  0
   -1.8976    1.8732   -5.9185 H   0  0  0  0  0  0  0  0  0  0  0  0
   -0.7797    2.5637   -4.9324 H   0  0  0  0  0  0  0  0  0  0  0  0
   -1.3103    1.3348    1.2791 C   0  0  0  0  0  0  0  0  0  0  0  0
   -2.2333    1.9891    0.8084 O   0  0  0  0  0  0  0  0  0  0  0  0
   -0.4429    1.8293    2.1683 N   0  0  0  0  0  0  0  0  0  0  0  0
    0.2668    1.2118    2.5263 H   0  0  0  0  0  0  0  0  0  0  0  0
   -0.5118    3.1863    2.7135 C   0  0  0  0  0  0  0  0  0  0  0  0
   -1.4470    3.3159    3.2625 H   0  0  0  0  0  0  0  0  0  0  0  0
    0.3243    3.3682    3.3896 H   0  0  0  0  0  0  0  0  0  0  0  0
   -0.4850    3.9172    1.9023 H   0  0  0  0  0  0  0  0  0  0  0  0
  5  6  2  0  0  0  0
  5  7  1  0  0  0  0
  2  3  1  0  0  0  0
  2  4  1  0  0  0  0
  2  5  1  0  0  0  0
  1  2  1  0  0  0  0
 27 28  2  0  0  0  0
 27 29  1  0  0  0  0
 23 24  1  0  0  0  0
 23 25  1  0  0  0  0
 23 26  1  0  0  0  0
 20 21  1  0  0  0  0
 20 22  1  0  0  0  0
 20 23  1  0  0  0  0
 17 18  1  0  0  0  0
 17 19  1  0  0  0  0
 17 20  1  0  0  0  0
 14 15  1  0  0  0  0
 14 16  1  0  0  0  0
 14 17  1  0  0  0  0
 11 12  1  0  0  0  0
 11 13  1  0  0  0  0
 11 14  1  0  0  0  0
  9 10  1  0  0  0  0
  9 11  1  0  0  0  0
  9 27  1  0  0  0  0
  7  8  1  0  0  0  0
  7  9  1  0  0  0  0
 31 32  1  0  0  0  0
 31 33  1  0  0  0  0
 31 34  1  0  0  0  0
 29 30  1  0  0  0  0
 29 31  1  0  0  0  0
M  CHG  1  23   1
M  END
$$$$
default_name
  -OEChem-02102213163D

 34 33  0     1  0  0  0  0  0999 V2000
   -3.8899   -3.6747    1.6490 H   0  0  0  0  0  0  0  0  0  0  0  0
   -3.9109   -2.6717    1.2250 C   0  0  0  0  0  0  0  0  0  0  0  0
   -4.6009   -2.0517    1.7950 H   0  0  0  0  0  0  0  0  0  0  0  0
   -4.2309   -2.7237    0.1860 H   0  0  0  0  0  0  0  0  0  0  0  0
   -2.5229   -2.0787    1.2980 C   0  0  0  0  0  0  0  0  0  0  0  0
   -1.5999   -2.7227    1.7810 O   0  0  0  0  0  0  0  0  0  0  0  0
   -2.3659   -0.8447    0.8120 N   0  0  0  0  0  0  0  0  0  0  0  0
   -3.1749   -0.3807    0.4220 H   0  0  0  0  0  0  0  0  0  0  0  0
   -1.0919   -0.1077    0.8170 C   0  0  1  0  0  0  0  0  0  0  0  0
   -0.4136   -0.6011    1.5155 H   0  0  0  0  0  0  0  0  0  0  0  0
   -0.4834   -0.1723   -0.5965 C   0  0  0  0  0  0  0  0  0  0  0  0
    0.3083    0.5751   -0.6686 H   0  0  0  0  0  0  0  0  0  0  0  0
   -0.0367   -1.1567   -0.7501 H   0  0  0  0  0  0  0  0  0  0  0  0
   -1.5063    0.0987   -1.7103 C   0  0  0  0  0  0  0  0  0  0  0  0
   -2.1523   -0.7713   -1.8354 H   0  0  0  0  0  0  0  0  0  0  0  0
   -2.1178    0.9601   -1.4349 H   0  0  0  0  0  0  0  0  0  0  0  0
   -0.7889    0.3879   -3.0361 C   0  0  0  0  0  0  0  0  0  0  0  0
   -0.1314    1.2505   -2.9034 H   0  0  0  0  0  0  0  0  0  0  0  0
   -0.1863   -0.4799   -3.3116 H   0  0  0  0  0  0  0  0  0  0  0  0
   -1.8083    0.6831   -4.1434 C   0  0  0  0  0  0  0  0  0  0  0  0
   -2.4612   -0.1886   -4.2554 H   0  0  0  0  0  0  0  0  0  0  0  0
   -2.4284    1.5280   -3.8289 H   0  0  0  0  0  0  0  0  0  0  0  0
   -1.1398    0.9902   -5.4331 N   0  3  0  0  0  0  0  0  0  0  0  0
   -0.5727    0.2078   -5.7347 H   0  0  0  0  0  0  0  0  0  0  0  0
   -1.8256    1.1828   -6.1525 H   0  0  0  0  0  0  0  0  0  0  0  0
   -0.5409    1.8019   -5.3370 H   0  0  0  0  0  0  0  0  0  0  0  0
   -1.3103    1.3348    1.2791 C   0  0  0  0  0  0  0  0  0  0  0  0
   -2.2333    1.9891    0.8084 O   0  0  0  0  0  0  0  0  0  0  0  0
   -0.4429    1.8293    2.1683 N   0  0  0  0  0  0  0  0  0  0  0  0
    0.2668    1.2118    2.5263 H   0  0  0  0  0  0  0  0  0  0  0  0
   -0.5118    3.1863    2.7135 C   0  0  0  0  0  0  0  0  0  0  0  0
   -1.4470    3.3159    3.2625 H   0  0  0  0  0  0  0  0  0  0  0  0
    0.3243    3.3682    3.3896 H   0  0  0  0  0  0  0  0  0  0  0  0
   -0.4850    3.9172    1.9023 H   0  0  0  0  0  0  0  0  0  0  0  0
  5  6  2  0  0  0  0
  5  7  1  0  0  0  0
  2  3  1  0  0  0  0
  2  4  1  0  0  0  0
  2  5  1  0  0  0  0
  1  2  1  0  0  0  0
 27 28  2  0  0  0  0
 27 29  1  0  0  0  0
 23 24  1  0  0  0  0
 23 25  1  0  0  0  0
 23 26  1  0  0  0  0
 20 21  1  0  0  0  0
 20 22  1  0  0  0  0
 20 23  1  0  0  0  0
 17 18  1  0  0  0  0
 17 19  1  0  0  0  0
 17 20  1  0  0  0  0
 14 15  1  0  0  0  0
 14 16  1  0  0  0  0
 14 17  1  0  0  0  0
 11 12  1  0  0  0  0
 11 13  1  0  0  0  0
 11 14  1  0  0  0  0
  9 10  1  0  0  0  0
  9 11  1  0  0  0  0
  9 27  1  0  0  0  0
  7  8  1  0  0  0  0
  7  9  1  0  0  0  0
 31 32  1  0  0  0  0
 31 33  1  0  0  0  0
 31 34  1  0  0  0  0
 29 30  1  0  0  0  0
 29 31  1  0  0  0  0
M  CHG  1  23   1
M  END
$$$$
default_name
  -OEChem-02102213163D

 34 33  0     1  0  0  0  0  0999 V2000
   -3.8899   -3.6747    1.6490 H   0  0  0  0  0  0  0  0  0  0  0  0
   -3.9109   -2.6717    1.2250 C   0  0  0  0  0  0  0  0  0  0  0  0
   -4.6009   -2.0517    1.7950 H   0  0  0  0  0  0  0  0  0  0  0  0
   -4.2309   -2.7237    0.1860 H   0  0  0  0  0  0  0  0  0  0  0  0
   -2.5229   -2.0787    1.2980 C   0  0  0  0  0  0  0  0  0  0  0  0
   -1.5999   -2.7227    1.7810 O   0  0  0  0  0  0  0  0  0  0  0  0
   -2.3659   -0.8447    0.8120 N   0  0  0  0  0  0  0  0  0  0  0  0
   -3.1749   -0.3807    0.4220 H   0  0  0  0  0  0  0  0  0  0  0  0
   -1.0919   -0.1077    0.8170 C   0  0  1  0  0  0  0  0  0  0  0  0
   -0.4136   -0.6011    1.5155 H   0  0  0  0  0  0  0  0  0  0  0  0
   -0.4834   -0.1723   -0.5965 C   0  0  0  0  0  0  0  0  0  0  0  0
    0.4643    0.3685   -0.5919 H   0  0  0  0  0  0  0  0  0  0  0  0
   -0.2792   -1.2140   -0.8519 H   0  0  0  0  0  0  0  0  0  0  0  0
   -1.3868    0.4454   -1.6747 C   0  0  0  0  0  0  0  0  0  0  0  0
   -2.3412   -0.0822   -1.7008 H   0  0  0  0  0  0  0  0  0  0  0  0
   -1.5663    1.4953   -1.4350 H   0  0  0  0  0  0  0  0  0  0  0  0
   -0.7188    0.3461   -3.0531 C   0  0  0  0  0  0  0  0  0  0  0  0
    0.2435    0.8625   -3.0194 H   0  0  0  0  0  0  0  0  0  0  0  0
   -0.5500   -0.7059   -3.2920 H   0  0  0  0  0  0  0  0  0  0  0  0
   -1.6086    0.9846   -4.1269 C   0  0  0  0  0  0  0  0  0  0  0  0
   -2.5689    0.4590   -4.1394 H   0  0  0  0  0  0  0  0  0  0  0  0
   -1.7996    2.0249   -3.8465 H   0  0  0  0  0  0  0  0  0  0  0  0
   -0.9748    0.9235   -5.4681 N   0  3  0  0  0  0  0  0  0  0  0  0
   -0.8051   -0.0374   -5.7377 H   0  0  0  0  0  0  0  0  0  0  0  0
   -1.5739    1.3489   -6.1646 H   0  0  0  0  0  0  0  0  0  0  0  0
   -0.0894    1.4164   -5.4642 H   0  0  0  0  0  0  0  0  0  0  0  0
   -1.3103    1.3348    1.2791 C   0  0  0  0  0  0  0  0  0  0  0  0
   -2.2333    1.9891    0.8084 O   0  0  0  0  0  0  0  0  0  0  0  0
   -0.4429    1.8293    2.1683 N   0  0  0  0  0  0  0  0  0  0  0  0
    0.2668    1.2118    2.5263 H   0  0  0  0  0  0  0  0  0  0  0  0
   -0.5118    3.1863    2.7135 C   0  0  0  0  0  0  0  0  0  0  0  0
   -1.4470    3.3159    3.2625 H   0  0  0  0  0  0  0  0  0  0  0  0
    0.3243    3.3682    3.3896 H   0  0  0  0  0  0  0  0  0  0  0  0
   -0.4850    3.9172    1.9023 H   0  0  0  0  0  0  0  0  0  0  0  0
  5  6  2  0  0  0  0
  5  7  1  0  0  0  0
  2  3  1  0  0  0  0
  2  4  1  0  0  0  0
  2  5  1  0  0  0  0
  1  2  1  0  0  0  0
 27 28  2  0  0  0  0
 27 29  1  0  0  0  0
 23 24  1  0  0  0  0
 23 25  1  0  0  0  0
 23 26  1  0  0  0  0
 20 21  1  0  0  0  0
 20 22  1  0  0  0  0
 20 23  1  0  0  0  0
 17 18  1  0  0  0  0
 17 19  1  0  0  0  0
 17 20  1  0  0  0  0
 14 15  1  0  0  0  0
 14 16  1  0  0  0  0
 14 17  1  0  0  0  0
 11 12  1  0  0  0  0
 11 13  1  0  0  0  0
 11 14  1  0  0  0  0
  9 10  1  0  0  0  0
  9 11  1  0  0  0  0
  9 27  1  0  0  0  0
  7  8  1  0  0  0  0
  7  9  1  0  0  0  0
 31 32  1  0  0  0  0
 31 33  1  0  0  0  0
 31 34  1  0  0  0  0
 29 30  1  0  0  0  0
 29 31  1  0  0  0  0
M  CHG  1  23   1
M  END
$$$$
default_name
  -OEChem-02102213163D

 34 33  0     1  0  0  0  0  0999 V2000
   -3.8899   -3.6747    1.6490 H   0  0  0  0  0  0  0  0  0  0  0  0
   -3.9109   -2.6717    1.2250 C   0  0  0  0  0  0  0  0  0  0  0  0
   -4.6009   -2.0517    1.7950 H   0  0  0  0  0  0  0  0  0  0  0  0
   -4.2309   -2.7237    0.1860 H   0  0  0  0  0  0  0  0  0  0  0  0
   -2.5229   -2.0787    1.2980 C   0  0  0  0  0  0  0  0  0  0  0  0
   -1.5999   -2.7227    1.7810 O   0  0  0  0  0  0  0  0  0  0  0  0
   -2.3659   -0.8447    0.8120 N   0  0  0  0  0  0  0  0  0  0  0  0
   -3.1749   -0.3807    0.4220 H   0  0  0  0  0  0  0  0  0  0  0  0
   -1.0919   -0.1077    0.8170 C   0  0  1  0  0  0  0  0  0  0  0  0
   -0.4136   -0.6011    1.5155 H   0  0  0  0  0  0  0  0  0  0  0  0
   -0.4834   -0.1723   -0.5965 C   0  0  0  0  0  0  0  0  0  0  0  0
    0.4643    0.3685   -0.5919 H   0  0  0  0  0  0  0  0  0  0  0  0
   -0.2792   -1.2140   -0.8519 H   0  0  0  0  0  0  0  0  0  0  0  0
   -1.3868    0.4454   -1.6747 C   0  0  0  0  0  0  0  0  0  0  0  0
   -2.4146    0.1102   -1.5291 H   0  0  0  0  0  0  0  0  0  0  0  0
   -1.3517    1.5335   -1.5929 H   0  0  0  0  0  0  0  0  0  0  0  0
   -0.9137    0.0256   -3.0733 C   0  0  0  0  0  0  0  0  0  0  0  0
    0.1207    0.3496   -3.2104 H   0  0  0  0  0  0  0  0  0  0  0  0
   -0.9595   -1.0623   -3.1530 H   0  0  0  0  0  0  0  0  0  0  0  0
   -1.7997    0.6617   -4.1517 C   0  0  0  0  0  0  0  0  0  0  0  0
   -2.8314    0.3314   -3.9925 H   0  0  0  0  0  0  0  0  0  0  0  0
   -1.7727    1.7484   -4.0274 H   0  0  0  0  0  0  0  0  0  0  0  0
   -1.3491    0.2909   -5.5170 N   0  3  0  0  0  0  0  0  0  0  0  0
   -1.3818   -0.7132   -5.6417 H   0  0  0  0  0  0  0  0  0  0  0  0
   -1.9432    0.7184   -6.2164 H   0  0  0  0  0  0  0  0  0  0  0  0
   -0.3974    0.6022   -5.6725 H   0  0  0  0  0  0  0  0  0  0  0  0
   -1.3103    1.3348    1.2791 C   0  0  0  0  0  0  0  0  0  0  0  0
   -2.2333    1.9891    0.8084 O   0  0  0  0  0  0  0  0  0  0  0  0
   -0.4429    1.8293    2.1683 N   0  0  0  0  0  0  0  0  0  0  0  0
    0.2668    1.2118    2.5263 H   0  0  0  0  0  0  0  0  0  0  0  0
   -0.5118    3.1863    2.7135 C   0  0  0  0  0  0  0  0  0  0  0  0
   -1.4470    3.3159    3.2625 H   0  0  0  0  0  0  0  0  0  0  0  0
    0.3243    3.3682    3.3896 H   0  0  0  0  0  0  0  0  0  0  0  0
   -0.4850    3.9172    1.9023 H   0  0  0  0  0  0  0  0  0  0  0  0
  5  6  2  0  0  0  0
  5  7  1  0  0  0  0
  2  3  1  0  0  0  0
  2  4  1  0  0  0  0
  2  5  1  0  0  0  0
  1  2  1  0  0  0  0
 27 28  2  0  0  0  0
 27 29  1  0  0  0  0
 23 24  1  0  0  0  0
 23 25  1  0  0  0  0
 23 26  1  0  0  0  0
 20 21  1  0  0  0  0
 20 22  1  0  0  0  0
 20 23  1  0  0  0  0
 17 18  1  0  0  0  0
 17 19  1  0  0  0  0
 17 20  1  0  0  0  0
 14 15  1  0  0  0  0
 14 16  1  0  0  0  0
 14 17  1  0  0  0  0
 11 12  1  0  0  0  0
 11 13  1  0  0  0  0
 11 14  1  0  0  0  0
  9 10  1  0  0  0  0
  9 11  1  0  0  0  0
  9 27  1  0  0  0  0
  7  8  1  0  0  0  0
  7  9  1  0  0  0  0
 31 32  1  0  0  0  0
 31 33  1  0  0  0  0
 31 34  1  0  0  0  0
 29 30  1  0  0  0  0
 29 31  1  0  0  0  0
M  CHG  1  23   1
M  END
$$$$
default_name
  -OEChem-02102213163D

 34 33  0     1  0  0  0  0  0999 V2000
   -3.8899   -3.6747    1.6490 H   0  0  0  0  0  0  0  0  0  0  0  0
   -3.9109   -2.6717    1.2250 C   0  0  0  0  0  0  0  0  0  0  0  0
   -4.6009   -2.0517    1.7950 H   0  0  0  0  0  0  0  0  0  0  0  0
   -4.2309   -2.7237    0.1860 H   0  0  0  0  0  0  0  0  0  0  0  0
   -2.5229   -2.0787    1.2980 C   0  0  0  0  0  0  0  0  0  0  0  0
   -1.5999   -2.7227    1.7810 O   0  0  0  0  0  0  0  0  0  0  0  0
   -2.3659   -0.8447    0.8120 N   0  0  0  0  0  0  0  0  0  0  0  0
   -3.1749   -0.3807    0.4220 H   0  0  0  0  0  0  0  0  0  0  0  0
   -1.0919   -0.1077    0.8170 C   0  0  1  0  0  0  0  0  0  0  0  0
   -0.4136   -0.6011    1.5155 H   0  0  0  0  0  0  0  0  0  0  0  0
   -0.4834   -0.1723   -0.5965 C   0  0  0  0  0  0  0  0  0  0  0  0
    0.4643    0.3685   -0.5919 H   0  0  0  0  0  0  0  0  0  0  0  0
   -0.2792   -1.2140   -0.8519 H   0  0  0  0  0  0  0  0  0  0  0  0
   -1.3868    0.4454   -1.6747 C   0  0  0  0  0  0  0  0  0  0  0  0
   -2.4326    0.3356   -1.3849 H   0  0  0  0  0  0  0  0  0  0  0  0
   -1.1539    1.5075   -1.7735 H   0  0  0  0  0  0  0  0  0  0  0  0
   -1.1624   -0.2515   -3.0238 C   0  0  0  0  0  0  0  0  0  0  0  0
   -0.1109   -0.1526   -3.3040 H   0  0  0  0  0  0  0  0  0  0  0  0
   -1.4054   -1.3111   -2.9220 H   0  0  0  0  0  0  0  0  0  0  0  0
   -2.0456    0.3806   -4.1067 C   0  0  0  0  0  0  0  0  0  0  0  0
   -3.0928    0.2782   -3.8040 H   0  0  0  0  0  0  0  0  0  0  0  0
   -1.8159    1.4490   -4.1628 H   0  0  0  0  0  0  0  0  0  0  0  0
   -1.8306   -0.2597   -5.4289 N   0  3  0  0  0  0  0  0  0  0  0  0
   -2.0517   -1.2467   -5.3861 H   0  0  0  0  0  0  0  0  0  0  0  0
   -2.4200    0.1686   -6.1319 H   0  0  0  0  0  0  0  0  0  0  0  0
   -0.8645   -0.1600   -5.7178 H   0  0  0  0  0  0  0  0  0  0  0  0
   -1.3103    1.3348    1.2791 C   0  0  0  0  0  0  0  0  0  0  0  0
   -2.2333    1.9891    0.8084 O   0  0  0  0  0  0  0  0  0  0  0  0
   -0.4429    1.8293    2.1683 N   0  0  0  0  0  0  0  0  0  0  0  0
    0.2668    1.2118    2.5263 H   0  0  0  0  0  0  0  0  0  0  0  0
   -0.5118    3.1863    2.7135 C   0  0  0  0  0  0  0  0  0  0  0  0
   -1.4470    3.3159    3.2625 H   0  0  0  0  0  0  0  0  0  0  0  0
    0.3243    3.3682    3.3896 H   0  0  0  0  0  0  0  0  0  0  0  0
   -0.4850    3.9172    1.9023 H   0  0  0  0  0  0  0  0  0  0  0  0
  5  6  2  0  0  0  0
  5  7  1  0  0  0  0
  2  3  1  0  0  0  0
  2  4  1  0  0  0  0
  2  5  1  0  0  0  0
  1  2  1  0  0  0  0
 27 28  2  0  0  0  0
 27 29  1  0  0  0  0
 23 24  1  0  0  0  0
 23 25  1  0  0  0  0
 23 26  1  0  0  0  0
 20 21  1  0  0  0  0
 20 22  1  0  0  0  0
 20 23  1  0  0  0  0
 17 18  1  0  0  0  0
 17 19  1  0  0  0  0
 17 20  1  0  0  0  0
 14 15  1  0  0  0  0
 14 16  1  0  0  0  0
 14 17  1  0  0  0  0
 11 12  1  0  0  0  0
 11 13  1  0  0  0  0
 11 14  1  0  0  0  0
  9 10  1  0  0  0  0
  9 11  1  0  0  0  0
  9 27  1  0  0  0  0
  7  8  1  0  0  0  0
  7  9  1  0  0  0  0
 31 32  1  0  0  0  0
 31 33  1  0  0  0  0
 31 34  1  0  0  0  0
 29 30  1  0  0  0  0
 29 31  1  0  0  0  0
M  CHG  1  23   1
M  END
$$$$
default_name
  -OEChem-02102213163D

 34 33  0     1  0  0  0  0  0999 V2000
   -3.8899   -3.6747    1.6490 H   0  0  0  0  0  0  0  0  0  0  0  0
   -3.9109   -2.6717    1.2250 C   0  0  0  0  0  0  0  0  0  0  0  0
   -4.6009   -2.0517    1.7950 H   0  0  0  0  0  0  0  0  0  0  0  0
   -4.2309   -2.7237    0.1860 H   0  0  0  0  0  0  0  0  0  0  0  0
   -2.5229   -2.0787    1.2980 C   0  0  0  0  0  0  0  0  0  0  0  0
   -1.5999   -2.7227    1.7810 O   0  0  0  0  0  0  0  0  0  0  0  0
   -2.3659   -0.8447    0.8120 N   0  0  0  0  0  0  0  0  0  0  0  0
   -3.1749   -0.3807    0.4220 H   0  0  0  0  0  0  0  0  0  0  0  0
   -1.0919   -0.1077    0.8170 C   0  0  1  0  0  0  0  0  0  0  0  0
   -0.4136   -0.6011    1.5155 H   0  0  0  0  0  0  0  0  0  0  0  0
   -0.4834   -0.1723   -0.5965 C   0  0  0  0  0  0  0  0  0  0  0  0
    0.4643    0.3685   -0.5919 H   0  0  0  0  0  0  0  0  0  0  0  0
   -0.2792   -1.2140   -0.8519 H   0  0  0  0  0  0  0  0  0  0  0  0
   -1.3868    0.4454   -1.6747 C   0  0  0  0  0  0  0  0  0  0  0  0
   -2.3942    0.5784   -1.2780 H   0  0  0  0  0  0  0  0  0  0  0  0
   -0.9864    1.4189   -1.9646 H   0  0  0  0  0  0  0  0  0  0  0  0
   -1.4477   -0.4665   -2.9079 C   0  0  0  0  0  0  0  0  0  0  0  0
   -0.4356   -0.6099   -3.2939 H   0  0  0  0  0  0  0  0  0  0  0  0
   -1.8572   -1.4352   -2.6145 H   0  0  0  0  0  0  0  0  0  0  0  0
   -2.3294    0.1607   -3.9949 C   0  0  0  0  0  0  0  0  0  0  0  0
   -3.3353    0.3030   -3.5866 H   0  0  0  0  0  0  0  0  0  0  0  0
   -1.9260    1.1470   -4.2435 H   0  0  0  0  0  0  0  0  0  0  0  0
   -2.3866   -0.6907   -5.2100 N   0  3  0  0  0  0  0  0  0  0  0  0
   -2.7690   -1.6014   -4.9882 H   0  0  0  0  0  0  0  0  0  0  0  0
   -2.9715   -0.2630   -5.9171 H   0  0  0  0  0  0  0  0  0  0  0  0
   -1.4588   -0.8182   -5.5970 H   0  0  0  0  0  0  0  0  0  0  0  0
   -1.3103    1.3348    1.2791 C   0  0  0  0  0  0  0  0  0  0  0  0
   -2.2333    1.9891    0.8084 O   0  0  0  0  0  0  0  0  0  0  0  0
   -0.4429    1.8293    2.1683 N   0  0  0  0  0  0  0  0  0  0  0  0
    0.2668    1.2118    2.5263 H   0  0  0  0  0  0  0  0  0  0  0  0
   -0.5118    3.1863    2.7135 C   0  0  0  0  0  0  0  0  0  0  0  0
   -1.4470    3.3159    3.2625 H   0  0  0  0  0  0  0  0  0  0  0  0
    0.3243    3.3682    3.3896 H   0  0  0  0  0  0  0  0  0  0  0  0
   -0.4850    3.9172    1.9023 H   0  0  0  0  0  0  0  0  0  0  0  0
  5  6  2  0  0  0  0
  5  7  1  0  0  0  0
  2  3  1  0  0  0  0
  2  4  1  0  0  0  0
  2  5  1  0  0  0  0
  1  2  1  0  0  0  0
 27 28  2  0  0  0  0
 27 29  1  0  0  0  0
 23 24  1  0  0  0  0
 23 25  1  0  0  0  0
 23 26  1  0  0  0  0
 20 21  1  0  0  0  0
 20 22  1  0  0  0  0
 20 23  1  0  0  0  0
 17 18  1  0  0  0  0
 17 19  1  0  0  0  0
 17 20  1  0  0  0  0
 14 15  1  0  0  0  0
 14 16  1  0  0  0  0
 14 17  1  0  0  0  0
 11 12  1  0  0  0  0
 11 13  1  0  0  0  0
 11 14  1  0  0  0  0
  9 10  1  0  0  0  0
  9 11  1  0  0  0  0
  9 27  1  0  0  0  0
  7  8  1  0  0  0  0
  7  9  1  0  0  0  0
 31 32  1  0  0  0  0
 31 33  1  0  0  0  0
 31 34  1  0  0  0  0
 29 30  1  0  0  0  0
 29 31  1  0  0  0  0
M  CHG  1  23   1
M  END
$$$$
default_name
  -OEChem-02102213163D

 34 33  0     1  0  0  0  0  0999 V2000
   -3.8899   -3.6747    1.6490 H   0  0  0  0  0  0  0  0  0  0  0  0
   -3.9109   -2.6717    1.2250 C   0  0  0  0  0  0  0  0  0  0  0  0
   -4.6009   -2.0517    1.7950 H   0  0  0  0  0  0  0  0  0  0  0  0
   -4.2309   -2.7237    0.1860 H   0  0  0  0  0  0  0  0  0  0  0  0
   -2.5229   -2.0787    1.2980 C   0  0  0  0  0  0  0  0  0  0  0  0
   -1.5999   -2.7227    1.7810 O   0  0  0  0  0  0  0  0  0  0  0  0
   -2.3659   -0.8447    0.8120 N   0  0  0  0  0  0  0  0  0  0  0  0
   -3.1749   -0.3807    0.4220 H   0  0  0  0  0  0  0  0  0  0  0  0
   -1.0919   -0.1077    0.8170 C   0  0  1  0  0  0  0  0  0  0  0  0
   -0.4136   -0.6011    1.5155 H   0  0  0  0  0  0  0  0  0  0  0  0
   -0.4834   -0.1723   -0.5965 C   0  0  0  0  0  0  0  0  0  0  0  0
    0.4643    0.3685   -0.5919 H   0  0  0  0  0  0  0  0  0  0  0  0
   -0.2792   -1.2140   -0.8519 H   0  0  0  0  0  0  0  0  0  0  0  0
   -1.3868    0.4454   -1.6747 C   0  0  0  0  0  0  0  0  0  0  0  0
   -2.3018    0.8223   -1.2157 H   0  0  0  0  0  0  0  0  0  0  0  0
   -0.8606    1.2738   -2.1531 H   0  0  0  0  0  0  0  0  0  0  0  0
   -1.7503   -0.6048   -2.7335 C   0  0  0  0  0  0  0  0  0  0  0  0
   -0.8313   -0.9910   -3.1808 H   0  0  0  0  0  0  0  0  0  0  0  0
   -2.2842   -1.4262   -2.2516 H   0  0  0  0  0  0  0  0  0  0  0  0
   -2.6319    0.0168   -3.8239 C   0  0  0  0  0  0  0  0  0  0  0  0
   -3.5424    0.4041   -3.3551 H   0  0  0  0  0  0  0  0  0  0  0  0
   -2.0957    0.8629   -4.2641 H   0  0  0  0  0  0  0  0  0  0  0  0
   -2.9792   -0.9726   -4.8750 N   0  3  0  0  0  0  0  0  0  0  0  0
   -3.4849   -1.7532   -4.4753 H   0  0  0  0  0  0  0  0  0  0  0  0
   -3.5603   -0.5470   -5.5865 H   0  0  0  0  0  0  0  0  0  0  0  0
   -2.1399   -1.3277   -5.3182 H   0  0  0  0  0  0  0  0  0  0  0  0
   -1.3103    1.3348    1.2791 C   0  0  0  0  0  0  0  0  0  0  0  0
   -2.2333    1.9891    0.8084 O   0  0  0  0  0  0  0  0  0  0  0  0
   -0.4429    1.8293    2.1683 N   0  0  0  0  0  0  0  0  0  0  0  0
    0.2668    1.2118    2.5263 H   0  0  0  0  0  0  0  0  0  0  0  0
   -0.5118    3.1863    2.7135 C   0  0  0  0  0  0  0  0  0  0  0  0
   -1.4470    3.3159    3.2625 H   0  0  0  0  0  0  0  0  0  0  0  0
    0.3243    3.3682    3.3896 H   0  0  0  0  0  0  0  0  0  0  0  0
   -0.4850    3.9172    1.9023 H   0  0  0  0  0  0  0  0  0  0  0  0
  5  6  2  0  0  0  0
  5  7  1  0  0  0  0
  2  3  1  0  0  0  0
  2  4  1  0  0  0  0
  2  5  1  0  0  0  0
  1  2  1  0  0  0  0
 27 28  2  0  0  0  0
 27 29  1  0  0  0  0
 23 24  1  0  0  0  0
 23 25  1  0  0  0  0
 23 26  1  0  0  0  0
 20 21  1  0  0  0  0
 20 22  1  0  0  0  0
 20 23  1  0  0  0  0
 17 18  1  0  0  0  0
 17 19  1  0  0  0  0
 17 20  1  0  0  0  0
 14 15  1  0  0  0  0
 14 16  1  0  0  0  0
 14 17  1  0  0  0  0
 11 12  1  0  0  0  0
 11 13  1  0  0  0  0
 11 14  1  0  0  0  0
  9 10  1  0  0  0  0
  9 11  1  0  0  0  0
  9 27  1  0  0  0  0
  7  8  1  0  0  0  0
  7  9  1  0  0  0  0
 31 32  1  0  0  0  0
 31 33  1  0  0  0  0
 31 34  1  0  0  0  0
 29 30  1  0  0  0  0
 29 31  1  0  0  0  0
M  CHG  1  23   1
M  END
$$$$
default_name
  -OEChem-02102213163D

 34 33  0     1  0  0  0  0  0999 V2000
   -3.8899   -3.6747    1.6490 H   0  0  0  0  0  0  0  0  0  0  0  0
   -3.9109   -2.6717    1.2250 C   0  0  0  0  0  0  0  0  0  0  0  0
   -4.6009   -2.0517    1.7950 H   0  0  0  0  0  0  0  0  0  0  0  0
   -4.2309   -2.7237    0.1860 H   0  0  0  0  0  0  0  0  0  0  0  0
   -2.5229   -2.0787    1.2980 C   0  0  0  0  0  0  0  0  0  0  0  0
   -1.5999   -2.7227    1.7810 O   0  0  0  0  0  0  0  0  0  0  0  0
   -2.3659   -0.8447    0.8120 N   0  0  0  0  0  0  0  0  0  0  0  0
   -3.1749   -0.3807    0.4220 H   0  0  0  0  0  0  0  0  0  0  0  0
   -1.0919   -0.1077    0.8170 C   0  0  1  0  0  0  0  0  0  0  0  0
   -0.4136   -0.6011    1.5155 H   0  0  0  0  0  0  0  0  0  0  0  0
   -0.4834   -0.1723   -0.5965 C   0  0  0  0  0  0  0  0  0  0  0  0
    0.4643    0.3685   -0.5919 H   0  0  0  0  0  0  0  0  0  0  0  0
   -0.2792   -1.2140   -0.8519 H   0  0  0  0  0  0  0  0  0  0  0  0
   -1.3868    0.4454   -1.6747 C   0  0  0  0  0  0  0  0  0  0  0  0
   -2.1617    1.0505   -1.2022 H   0  0  0  0  0  0  0  0  0  0  0  0
   -0.7851    1.0821   -2.3263 H   0  0  0  0  0  0  0  0  0  0  0  0
   -2.0496   -0.6568   -2.5125 C   0  0  0  0  0  0  0  0  0  0  0  0
   -1.2709   -1.2701   -2.9723 H   0  0  0  0  0  0  0  0  0  0  0  0
   -2.6572   -1.2848   -1.8580 H   0  0  0  0  0  0  0  0  0  0  0  0
   -2.9324   -0.0411   -3.6053 C   0  0  0  0  0  0  0  0  0  0  0  0
   -3.7000    0.5746   -3.1253 H   0  0  0  0  0  0  0  0  0  0  0  0
   -2.3133    0.6163   -4.2231 H   0  0  0  0  0  0  0  0  0  0  0  0
   -3.5679   -1.0863   -4.4469 N   0  3  0  0  0  0  0  0  0  0  0  0
   -4.1506   -1.6917   -3.8823 H   0  0  0  0  0  0  0  0  0  0  0  0
   -4.1462   -0.6641   -5.1626 H   0  0  0  0  0  0  0  0  0  0  0  0
   -2.8613   -1.6537   -4.9005 H   0  0  0  0  0  0  0  0  0  0  0  0
   -1.3103    1.3348    1.2791 C   0  0  0  0  0  0  0  0  0  0  0  0
   -2.2333    1.9891    0.8084 O   0  0  0  0  0  0  0  0  0  0  0  0
   -0.4429    1.8293    2.1683 N   0  0  0  0  0  0  0  0  0  0  0  0
    0.2668    1.2118    2.5263 H   0  0  0  0  0  0  0  0  0  0  0  0
   -0.5118    3.1863    2.7135 C   0  0  0  0  0  0  0  0  0  0  0  0
   -1.4470    3.3159    3.2625 H   0  0  0  0  0  0  0  0  0  0  0  0
    0.3243    3.3682    3.3896 H   0  0  0  0  0  0  0  0  0  0  0  0
   -0.4850    3.9172    1.9023 H   0  0  0  0  0  0  0  0  0  0  0  0
  5  6  2  0  0  0  0
  5  7  1  0  0  0  0
  2  3  1  0  0  0  0
  2  4  1  0  0  0  0
  2  5  1  0  0  0  0
  1  2  1  0  0  0  0
 27 28  2  0  0  0  0
 27 29  1  0  0  0  0
 23 24  1  0  0  0  0
 23 25  1  0  0  0  0
 23 26  1  0  0  0  0
 20 21  1  0  0  0  0
 20 22  1  0  0  0  0
 20 23  1  0  0  0  0
 17 18  1  0  0  0  0
 17 19  1  0  0  0  0
 17 20  1  0  0  0  0
 14 15  1  0  0  0  0
 14 16  1  0  0  0  0
 14 17  1  0  0  0  0
 11 12  1  0  0  0  0
 11 13  1  0  0  0  0
 11 14  1  0  0  0  0
  9 10  1  0  0  0  0
  9 11  1  0  0  0  0
  9 27  1  0  0  0  0
  7  8  1  0  0  0  0
  7  9  1  0  0  0  0
 31 32  1  0  0  0  0
 31 33  1  0  0  0  0
 31 34  1  0  0  0  0
 29 30  1  0  0  0  0
 29 31  1  0  0  0  0
M  CHG  1  23   1
M  END
$$$$
default_name
  -OEChem-02102213163D

 34 33  0     1  0  0  0  0  0999 V2000
   -3.8899   -3.6747    1.6490 H   0  0  0  0  0  0  0  0  0  0  0  0
   -3.9109   -2.6717    1.2250 C   0  0  0  0  0  0  0  0  0  0  0  0
   -4.6009   -2.0517    1.7950 H   0  0  0  0  0  0  0  0  0  0  0  0
   -4.2309   -2.7237    0.1860 H   0  0  0  0  0  0  0  0  0  0  0  0
   -2.5229   -2.0787    1.2980 C   0  0  0  0  0  0  0  0  0  0  0  0
   -1.5999   -2.7227    1.7810 O   0  0  0  0  0  0  0  0  0  0  0  0
   -2.3659   -0.8447    0.8120 N   0  0  0  0  0  0  0  0  0  0  0  0
   -3.1749   -0.3807    0.4220 H   0  0  0  0  0  0  0  0  0  0  0  0
   -1.0919   -0.1077    0.8170 C   0  0  1  0  0  0  0  0  0  0  0  0
   -0.4136   -0.6011    1.5155 H   0  0  0  0  0  0  0  0  0  0  0  0
   -0.4834   -0.1723   -0.5965 C   0  0  0  0  0  0  0  0  0  0  0  0
    0.4643    0.3685   -0.5919 H   0  0  0  0  0  0  0  0  0  0  0  0
   -0.2792   -1.2140   -0.8519 H   0  0  0  0  0  0  0  0  0  0  0  0
   -1.3868    0.4454   -1.6747 C   0  0  0  0  0  0  0  0  0  0  0  0
   -1.9836    1.2476   -1.2386 H   0  0  0  0  0  0  0  0  0  0  0  0
   -0.7650    0.8569   -2.4722 H   0  0  0  0  0  0  0  0  0  0  0  0
   -2.3251   -0.6190   -2.2600 C   0  0  0  0  0  0  0  0  0  0  0  0
   -1.7246   -1.4281   -2.6827 H   0  0  0  0  0  0  0  0  0  0  0  0
   -2.9509   -1.0205   -1.4605 H   0  0  0  0  0  0  0  0  0  0  0  0
   -3.2105   -0.0093   -3.3541 C   0  0  0  0  0  0  0  0  0  0  0  0
   -3.7974    0.8029   -2.9130 H   0  0  0  0  0  0  0  0  0  0  0  0
   -2.5640    0.4238   -4.1233 H   0  0  0  0  0  0  0  0  0  0  0  0
   -4.1126   -1.0241   -3.9548 N   0  3  0  0  0  0  0  0  0  0  0  0
   -4.7208   -1.4211   -3.2496 H   0  0  0  0  0  0  0  0  0  0  0  0
   -4.6893   -0.6062   -4.6744 H   0  0  0  0  0  0  0  0  0  0  0  0
   -3.5739   -1.7739   -4.3723 H   0  0  0  0  0  0  0  0  0  0  0  0
   -1.3103    1.3348    1.2791 C   0  0  0  0  0  0  0  0  0  0  0  0
   -2.2333    1.9891    0.8084 O   0  0  0  0  0  0  0  0  0  0  0  0
   -0.4429    1.8293    2.1683 N   0  0  0  0  0  0  0  0  0  0  0  0
    0.2668    1.2118    2.5263 H   0  0  0  0  0  0  0  0  0  0  0  0
   -0.5118    3.1863    2.7135 C   0  0  0  0  0  0  0  0  0  0  0  0
   -1.4470    3.3159    3.2625 H   0  0  0  0  0  0  0  0  0  0  0  0
    0.3243    3.3682    3.3896 H   0  0  0  0  0  0  0  0  0  0  0  0
   -0.4850    3.9172    1.9023 H   0  0  0  0  0  0  0  0  0  0  0  0
  5  6  2  0  0  0  0
  5  7  1  0  0  0  0
  2  3  1  0  0  0  0
  2  4  1  0  0  0  0
  2  5  1  0  0  0  0
  1  2  1  0  0  0  0
 27 28  2  0  0  0  0
 27 29  1  0  0  0  0
 23 24  1  0  0  0  0
 23 25  1  0  0  0  0
 23 26  1  0  0  0  0
 20 21  1  0  0  0  0
 20 22  1  0  0  0  0
 20 23  1  0  0  0  0
 17 18  1  0  0  0  0
 17 19  1  0  0  0  0
 17 20  1  0  0  0  0
 14 15  1  0  0  0  0
 14 16  1  0  0  0  0
 14 17  1  0  0  0  0
 11 12  1  0  0  0  0
 11 13  1  0  0  0  0
 11 14  1  0  0  0  0
  9 10  1  0  0  0  0
  9 11  1  0  0  0  0
  9 27  1  0  0  0  0
  7  8  1  0  0  0  0
  7  9  1  0  0  0  0
 31 32  1  0  0  0  0
 31 33  1  0  0  0  0
 31 34  1  0  0  0  0
 29 30  1  0  0  0  0
 29 31  1  0  0  0  0
M  CHG  1  23   1
M  END
$$$$
default_name
  -OEChem-02102213163D

 34 33  0     1  0  0  0  0  0999 V2000
   -3.8899   -3.6747    1.6490 H   0  0  0  0  0  0  0  0  0  0  0  0
   -3.9109   -2.6717    1.2250 C   0  0  0  0  0  0  0  0  0  0  0  0
   -4.6009   -2.0517    1.7950 H   0  0  0  0  0  0  0  0  0  0  0  0
   -4.2309   -2.7237    0.1860 H   0  0  0  0  0  0  0  0  0  0  0  0
   -2.5229   -2.0787    1.2980 C   0  0  0  0  0  0  0  0  0  0  0  0
   -1.5999   -2.7227    1.7810 O   0  0  0  0  0  0  0  0  0  0  0  0
   -2.3659   -0.8447    0.8120 N   0  0  0  0  0  0  0  0  0  0  0  0
   -3.1749   -0.3807    0.4220 H   0  0  0  0  0  0  0  0  0  0  0  0
   -1.0919   -0.1077    0.8170 C   0  0  1  0  0  0  0  0  0  0  0  0
   -0.4136   -0.6011    1.5155 H   0  0  0  0  0  0  0  0  0  0  0  0
   -0.4834   -0.1723   -0.5965 C   0  0  0  0  0  0  0  0  0  0  0  0
    0.4643    0.3685   -0.5919 H   0  0  0  0  0  0  0  0  0  0  0  0
   -0.2792   -1.2140   -0.8519 H   0  0  0  0  0  0  0  0  0  0  0  0
   -1.3868    0.4454   -1.6747 C   0  0  0  0  0  0  0  0  0  0  0  0
   -1.7795    1.4001   -1.3222 H   0  0  0  0  0  0  0  0  0  0  0  0
   -0.8016    0.6135   -2.5809 H   0  0  0  0  0  0  0  0  0  0  0  0
   -2.5581   -0.4941   -1.9932 C   0  0  0  0  0  0  0  0  0  0  0  0
   -2.1614   -1.4542   -2.3317 H   0  0  0  0  0  0  0  0  0  0  0  0
   -3.1452   -0.6514   -1.0862 H   0  0  0  0  0  0  0  0  0  0  0  0
   -3.4472    0.1102   -3.0873 C   0  0  0  0  0  0  0  0  0  0  0  0
   -3.8279    1.0735   -2.7324 H   0  0  0  0  0  0  0  0  0  0  0  0
   -2.8308    0.2986   -3.9715 H   0  0  0  0  0  0  0  0  0  0  0  0
   -4.5763   -0.7901   -3.4323 N   0  3  0  0  0  0  0  0  0  0  0  0
   -5.1565   -0.9598   -2.6202 H   0  0  0  0  0  0  0  0  0  0  0  0
   -5.1526   -0.3774   -4.1551 H   0  0  0  0  0  0  0  0  0  0  0  0
   -4.2291   -1.6803   -3.7697 H   0  0  0  0  0  0  0  0  0  0  0  0
   -1.3103    1.3348    1.2791 C   0  0  0  0  0  0  0  0  0  0  0  0
   -2.2333    1.9891    0.8084 O   0  0  0  0  0  0  0  0  0  0  0  0
   -0.4429    1.8293    2.1683 N   0  0  0  0  0  0  0  0  0  0  0  0
    0.2668    1.2118    2.5263 H   0  0  0  0  0  0  0  0  0  0  0  0
   -0.5118    3.1863    2.7135 C   0  0  0  0  0  0  0  0  0  0  0  0
   -1.4470    3.3159    3.2625 H   0  0  0  0  0  0  0  0  0  0  0  0
    0.3243    3.3682    3.3896 H   0  0  0  0  0  0  0  0  0  0  0  0
   -0.4850    3.9172    1.9023 H   0  0  0  0  0  0  0  0  0  0  0  0
  5  6  2  0  0  0  0
  5  7  1  0  0  0  0
  2  3  1  0  0  0  0
  2  4  1  0  0  0  0
  2  5  1  0  0  0  0
  1  2  1  0  0  0  0
 27 28  2  0  0  0  0
 27 29  1  0  0  0  0
 23 24  1  0  0  0  0
 23 25  1  0  0  0  0
 23 26  1  0  0  0  0
 20 21  1  0  0  0  0
 20 22  1  0  0  0  0
 20 23  1  0  0  0  0
 17 18  1  0  0  0  0
 17 19  1  0  0  0  0
 17 20  1  0  0  0  0
 14 15  1  0  0  0  0
 14 16  1  0  0  0  0
 14 17  1  0  0  0  0
 11 12  1  0  0  0  0
 11 13  1  0  0  0  0
 11 14  1  0  0  0  0
  9 10  1  0  0  0  0
  9 11  1  0  0  0  0
  9 27  1  0  0  0  0
  7  8  1  0  0  0  0
  7  9  1  0  0  0  0
 31 32  1  0  0  0  0
 31 33  1  0  0  0  0
 31 34  1  0  0  0  0
 29 30  1  0  0  0  0
 29 31  1  0  0  0  0
M  CHG  1  23   1
M  END
$$$$
default_name
  -OEChem-02102213163D

 34 33  0     1  0  0  0  0  0999 V2000
   -3.8899   -3.6747    1.6490 H   0  0  0  0  0  0  0  0  0  0  0  0
   -3.9109   -2.6717    1.2250 C   0  0  0  0  0  0  0  0  0  0  0  0
   -4.6009   -2.0517    1.7950 H   0  0  0  0  0  0  0  0  0  0  0  0
   -4.2309   -2.7237    0.1860 H   0  0  0  0  0  0  0  0  0  0  0  0
   -2.5229   -2.0787    1.2980 C   0  0  0  0  0  0  0  0  0  0  0  0
   -1.5999   -2.7227    1.7810 O   0  0  0  0  0  0  0  0  0  0  0  0
   -2.3659   -0.8447    0.8120 N   0  0  0  0  0  0  0  0  0  0  0  0
   -3.1749   -0.3807    0.4220 H   0  0  0  0  0  0  0  0  0  0  0  0
   -1.0919   -0.1077    0.8170 C   0  0  1  0  0  0  0  0  0  0  0  0
   -0.4136   -0.6011    1.5155 H   0  0  0  0  0  0  0  0  0  0  0  0
   -0.4834   -0.1723   -0.5965 C   0  0  0  0  0  0  0  0  0  0  0  0
    0.4643    0.3685   -0.5919 H   0  0  0  0  0  0  0  0  0  0  0  0
   -0.2792   -1.2140   -0.8519 H   0  0  0  0  0  0  0  0  0  0  0  0
   -1.3868    0.4454   -1.6747 C   0  0  0  0  0  0  0  0  0  0  0  0
   -1.5634    1.4976   -1.4474 H   0  0  0  0  0  0  0  0  0  0  0  0
   -0.8925    0.3684   -2.6451 H   0  0  0  0  0  0  0  0  0  0  0  0
   -2.7327   -0.2904   -1.7303 C   0  0  0  0  0  0  0  0  0  0  0  0
   -2.5514   -1.3467   -1.9433 H   0  0  0  0  0  0  0  0  0  0  0  0
   -3.2269   -0.2026   -0.7607 H   0  0  0  0  0  0  0  0  0  0  0  0
   -3.6263    0.3092   -2.8232 C   0  0  0  0  0  0  0  0  0  0  0  0
   -3.7894    1.3678   -2.5960 H   0  0  0  0  0  0  0  0  0  0  0  0
   -3.0954    0.2493   -3.7781 H   0  0  0  0  0  0  0  0  0  0  0  0
   -4.9273   -0.4004   -2.9149 N   0  3  0  0  0  0  0  0  0  0  0  0
   -5.4281   -0.3394   -2.0372 H   0  0  0  0  0  0  0  0  0  0  0  0
   -5.5045    0.0068   -3.6401 H   0  0  0  0  0  0  0  0  0  0  0  0
   -4.7822   -1.3791   -3.1337 H   0  0  0  0  0  0  0  0  0  0  0  0
   -1.3103    1.3348    1.2791 C   0  0  0  0  0  0  0  0  0  0  0  0
   -2.2333    1.9891    0.8084 O   0  0  0  0  0  0  0  0  0  0  0  0
   -0.4429    1.8293    2.1683 N   0  0  0  0  0  0  0  0  0  0  0  0
    0.2668    1.2118    2.5263 H   0  0  0  0  0  0  0  0  0  0  0  0
   -0.5118    3.1863    2.7135 C   0  0  0  0  0  0  0  0  0  0  0  0
   -1.4470    3.3159    3.2625 H   0  0  0  0  0  0  0  0  0  0  0  0
    0.3243    3.3682    3.3896 H   0  0  0  0  0  0  0  0  0  0  0  0
   -0.4850    3.9172    1.9023 H   0  0  0  0  0  0  0  0  0  0  0  0
  5  6  2  0  0  0  0
  5  7  1  0  0  0  0
  2  3  1  0  0  0  0
  2  4  1  0  0  0  0
  2  5  1  0  0  0  0
  1  2  1  0  0  0  0
 27 28  2  0  0  0  0
 27 29  1  0  0  0  0
 23 24  1  0  0  0  0
 23 25  1  0  0  0  0
 23 26  1  0  0  0  0
 20 21  1  0  0  0  0
 20 22  1  0  0  0  0
 20 23  1  0  0  0  0
 17 18  1  0  0  0  0
 17 19  1  0  0  0  0
 17 20  1  0  0  0  0
 14 15  1  0  0  0  0
 14 16  1  0  0  0  0
 14 17  1  0  0  0  0
 11 12  1  0  0  0  0
 11 13  1  0  0  0  0
 11 14  1  0  0  0  0
  9 10  1  0  0  0  0
  9 11  1  0  0  0  0
  9 27  1  0  0  0  0
  7  8  1  0  0  0  0
  7  9  1  0  0  0  0
 31 32  1  0  0  0  0
 31 33  1  0  0  0  0
 31 34  1  0  0  0  0
 29 30  1  0  0  0  0
 29 31  1  0  0  0  0
M  CHG  1  23   1
M  END
$$$$
default_name
  -OEChem-02102213163D

 34 33  0     1  0  0  0  0  0999 V2000
   -3.8899   -3.6747    1.6490 H   0  0  0  0  0  0  0  0  0  0  0  0
   -3.9109   -2.6717    1.2250 C   0  0  0  0  0  0  0  0  0  0  0  0
   -4.6009   -2.0517    1.7950 H   0  0  0  0  0  0  0  0  0  0  0  0
   -4.2309   -2.7237    0.1860 H   0  0  0  0  0  0  0  0  0  0  0  0
   -2.5229   -2.0787    1.2980 C   0  0  0  0  0  0  0  0  0  0  0  0
   -1.5999   -2.7227    1.7810 O   0  0  0  0  0  0  0  0  0  0  0  0
   -2.3659   -0.8447    0.8120 N   0  0  0  0  0  0  0  0  0  0  0  0
   -3.1749   -0.3807    0.4220 H   0  0  0  0  0  0  0  0  0  0  0  0
   -1.0919   -0.1077    0.8170 C   0  0  1  0  0  0  0  0  0  0  0  0
   -0.4136   -0.6011    1.5155 H   0  0  0  0  0  0  0  0  0  0  0  0
   -0.4834   -0.1723   -0.5965 C   0  0  0  0  0  0  0  0  0  0  0  0
    0.4643    0.3685   -0.5919 H   0  0  0  0  0  0  0  0  0  0  0  0
   -0.2792   -1.2140   -0.8519 H   0  0  0  0  0  0  0  0  0  0  0  0
   -1.3868    0.4454   -1.6747 C   0  0  0  0  0  0  0  0  0  0  0  0
   -1.3500    1.5334   -1.6057 H   0  0  0  0  0  0  0  0  0  0  0  0
   -1.0315    0.1385   -2.6604 H   0  0  0  0  0  0  0  0  0  0  0  0
   -2.8370   -0.0220   -1.4891 C   0  0  0  0  0  0  0  0  0  0  0  0
   -2.8683   -1.1128   -1.5438 H   0  0  0  0  0  0  0  0  0  0  0  0
   -3.1904    0.2953   -0.5060 H   0  0  0  0  0  0  0  0  0  0  0  0
   -3.7357    0.5742   -2.5797 C   0  0  0  0  0  0  0  0  0  0  0  0
   -3.6846    1.6658   -2.5131 H   0  0  0  0  0  0  0  0  0  0  0  0
   -3.3398    0.2791   -3.5562 H   0  0  0  0  0  0  0  0  0  0  0  0
   -5.1417    0.1186   -2.4379 N   0  3  0  0  0  0  0  0  0  0  0  0
   -5.5171    0.3979   -1.5402 H   0  0  0  0  0  0  0  0  0  0  0  0
   -5.7210    0.5202   -3.1645 H   0  0  0  0  0  0  0  0  0  0  0  0
   -5.1955   -0.8909   -2.5077 H   0  0  0  0  0  0  0  0  0  0  0  0
   -1.3103    1.3348    1.2791 C   0  0  0  0  0  0  0  0  0  0  0  0
   -2.2333    1.9891    0.8084 O   0  0  0  0  0  0  0  0  0  0  0  0
   -0.4429    1.8293    2.1683 N   0  0  0  0  0  0  0  0  0  0  0  0
    0.2668    1.2118    2.5263 H   0  0  0  0  0  0  0  0  0  0  0  0
   -0.5118    3.1863    2.7135 C   0  0  0  0  0  0  0  0  0  0  0  0
   -1.4470    3.3159    3.2625 H   0  0  0  0  0  0  0  0  0  0  0  0
    0.3243    3.3682    3.3896 H   0  0  0  0  0  0  0  0  0  0  0  0
   -0.4850    3.9172    1.9023 H   0  0  0  0  0  0  0  0  0  0  0  0
  5  6  2  0  0  0  0
  5  7  1  0  0  0  0
  2  3  1  0  0  0  0
  2  4  1  0  0  0  0
  2  5  1  0  0  0  0
  1  2  1  0  0  0  0
 27 28  2  0  0  0  0
 27 29  1  0  0  0  0
 23 24  1  0  0  0  0
 23 25  1  0  0  0  0
 23 26  1  0  0  0  0
 20 21  1  0  0  0  0
 20 22  1  0  0  0  0
 20 23  1  0  0  0  0
 17 18  1  0  0  0  0
 17 19  1  0  0  0  0
 17 20  1  0  0  0  0
 14 15  1  0  0  0  0
 14 16  1  0  0  0  0
 14 17  1  0  0  0  0
 11 12  1  0  0  0  0
 11 13  1  0  0  0  0
 11 14  1  0  0  0  0
  9 10  1  0  0  0  0
  9 11  1  0  0  0  0
  9 27  1  0  0  0  0
  7  8  1  0  0  0  0
  7  9  1  0  0  0  0
 31 32  1  0  0  0  0
 31 33  1  0  0  0  0
 31 34  1  0  0  0  0
 29 30  1  0  0  0  0
 29 31  1  0  0  0  0
M  CHG  1  23   1
M  END
$$$$
default_name
  -OEChem-02102213163D

 34 33  0     1  0  0  0  0  0999 V2000
   -3.8899   -3.6747    1.6490 H   0  0  0  0  0  0  0  0  0  0  0  0
   -3.9109   -2.6717    1.2250 C   0  0  0  0  0  0  0  0  0  0  0  0
   -4.6009   -2.0517    1.7950 H   0  0  0  0  0  0  0  0  0  0  0  0
   -4.2309   -2.7237    0.1860 H   0  0  0  0  0  0  0  0  0  0  0  0
   -2.5229   -2.0787    1.2980 C   0  0  0  0  0  0  0  0  0  0  0  0
   -1.5999   -2.7227    1.7810 O   0  0  0  0  0  0  0  0  0  0  0  0
   -2.3659   -0.8447    0.8120 N   0  0  0  0  0  0  0  0  0  0  0  0
   -3.1749   -0.3807    0.4220 H   0  0  0  0  0  0  0  0  0  0  0  0
   -1.0919   -0.1077    0.8170 C   0  0  1  0  0  0  0  0  0  0  0  0
   -0.4136   -0.6011    1.5155 H   0  0  0  0  0  0  0  0  0  0  0  0
   -0.4834   -0.1723   -0.5965 C   0  0  0  0  0  0  0  0  0  0  0  0
    0.4643    0.3685   -0.5919 H   0  0  0  0  0  0  0  0  0  0  0  0
   -0.2792   -1.2140   -0.8519 H   0  0  0  0  0  0  0  0  0  0  0  0
   -1.3868    0.4454   -1.6747 C   0  0  0  0  0  0  0  0  0  0  0  0
   -1.1538    1.5052   -1.7863 H   0  0  0  0  0  0  0  0  0  0  0  0
   -1.2092   -0.0606   -2.6256 H   0  0  0  0  0  0  0  0  0  0  0  0
   -2.8639    0.2929   -1.2862 C   0  0  0  0  0  0  0  0  0  0  0  0
   -3.0903   -0.7686   -1.1606 H   0  0  0  0  0  0  0  0  0  0  0  0
   -3.0382    0.8084   -0.3396 H   0  0  0  0  0  0  0  0  0  0  0  0
   -3.7679    0.8871   -2.3735 C   0  0  0  0  0  0  0  0  0  0  0  0
   -3.5205    1.9473   -2.4893 H   0  0  0  0  0  0  0  0  0  0  0  0
   -3.5474    0.3861   -3.3209 H   0  0  0  0  0  0  0  0  0  0  0  0
   -5.2049    0.7314   -2.0339 N   0  3  0  0  0  0  0  0  0  0  0  0
   -5.4173    1.2020   -1.1631 H   0  0  0  0  0  0  0  0  0  0  0  0
   -5.7874    1.1279   -2.7608 H   0  0  0  0  0  0  0  0  0  0  0  0
   -5.4410   -0.2490   -1.9342 H   0  0  0  0  0  0  0  0  0  0  0  0
   -1.3103    1.3348    1.2791 C   0  0  0  0  0  0  0  0  0  0  0  0
   -2.2333    1.9891    0.8084 O   0  0  0  0  0  0  0  0  0  0  0  0
   -0.4429    1.8293    2.1683 N   0  0  0  0  0  0  0  0  0  0  0  0
    0.2668    1.2118    2.5263 H   0  0  0  0  0  0  0  0  0  0  0  0
   -0.5118    3.1863    2.7135 C   0  0  0  0  0  0  0  0  0  0  0  0
   -1.4470    3.3159    3.2625 H   0  0  0  0  0  0  0  0  0  0  0  0
    0.3243    3.3682    3.3896 H   0  0  0  0  0  0  0  0  0  0  0  0
   -0.4850    3.9172    1.9023 H   0  0  0  0  0  0  0  0  0  0  0  0
  5  6  2  0  0  0  0
  5  7  1  0  0  0  0
  2  3  1  0  0  0  0
  2  4  1  0  0  0  0
  2  5  1  0  0  0  0
  1  2  1  0  0  0  0
 27 28  2  0  0  0  0
 27 29  1  0  0  0  0
 23 24  1  0  0  0  0
 23 25  1  0  0  0  0
 23 26  1  0  0  0  0
 20 21  1  0  0  0  0
 20 22  1  0  0  0  0
 20 23  1  0  0  0  0
 17 18  1  0  0  0  0
 17 19  1  0  0  0  0
 17 20  1  0  0  0  0
 14 15  1  0  0  0  0
 14 16  1  0  0  0  0
 14 17  1  0  0  0  0
 11 12  1  0  0  0  0
 11 13  1  0  0  0  0
 11 14  1  0  0  0  0
  9 10  1  0  0  0  0
  9 11  1  0  0  0  0
  9 27  1  0  0  0  0
  7  8  1  0  0  0  0
  7  9  1  0  0  0  0
 31 32  1  0  0  0  0
 31 33  1  0  0  0  0
 31 34  1  0  0  0  0
 29 30  1  0  0  0  0
 29 31  1  0  0  0  0
M  CHG  1  23   1
M  END
$$$$
default_name
  -OEChem-02102213163D

 34 33  0     1  0  0  0  0  0999 V2000
   -3.8899   -3.6747    1.6490 H   0  0  0  0  0  0  0  0  0  0  0  0
   -3.9109   -2.6717    1.2250 C   0  0  0  0  0  0  0  0  0  0  0  0
   -4.6009   -2.0517    1.7950 H   0  0  0  0  0  0  0  0  0  0  0  0
   -4.2309   -2.7237    0.1860 H   0  0  0  0  0  0  0  0  0  0  0  0
   -2.5229   -2.0787    1.2980 C   0  0  0  0  0  0  0  0  0  0  0  0
   -1.5999   -2.7227    1.7810 O   0  0  0  0  0  0  0  0  0  0  0  0
   -2.3659   -0.8447    0.8120 N   0  0  0  0  0  0  0  0  0  0  0  0
   -3.1749   -0.3807    0.4220 H   0  0  0  0  0  0  0  0  0  0  0  0
   -1.0919   -0.1077    0.8170 C   0  0  1  0  0  0  0  0  0  0  0  0
   -0.4136   -0.6011    1.5155 H   0  0  0  0  0  0  0  0  0  0  0  0
   -0.4834   -0.1723   -0.5965 C   0  0  0  0  0  0  0  0  0  0  0  0
    0.4643    0.3685   -0.5919 H   0  0  0  0  0  0  0  0  0  0  0  0
   -0.2792   -1.2140   -0.8519 H   0  0  0  0  0  0  0  0  0  0  0  0
   -1.3868    0.4454   -1.6747 C   0  0  0  0  0  0  0  0  0  0  0  0
   -0.9882    1.4148   -1.9768 H   0  0  0  0  0  0  0  0  0  0  0  0
   -1.4133   -0.2155   -2.5433 H   0  0  0  0  0  0  0  0  0  0  0  0
   -2.8115    0.6329   -1.1352 C   0  0  0  0  0  0  0  0  0  0  0  0
   -3.2023   -0.3375   -0.8197 H   0  0  0  0  0  0  0  0  0  0  0  0
   -2.7806    1.3016   -0.2728 H   0  0  0  0  0  0  0  0  0  0  0  0
   -3.7207    1.2265   -2.2186 C   0  0  0  0  0  0  0  0  0  0  0  0
   -3.3085    2.1930   -2.5262 H   0  0  0  0  0  0  0  0  0  0  0  0
   -3.7040    0.5629   -3.0884 H   0  0  0  0  0  0  0  0  0  0  0  0
   -5.1125    1.3963   -1.7303 N   0  3  0  0  0  0  0  0  0  0  0  0
   -5.1357    2.0179   -0.9316 H   0  0  0  0  0  0  0  0  0  0  0  0
   -5.6992    1.7883   -2.4563 H   0  0  0  0  0  0  0  0  0  0  0  0
   -5.5018    0.5029   -1.4525 H   0  0  0  0  0  0  0  0  0  0  0  0
   -1.3103    1.3348    1.2791 C   0  0  0  0  0  0  0  0  0  0  0  0
   -2.2333    1.9891    0.8084 O   0  0  0  0  0  0  0  0  0  0  0  0
   -0.4429    1.8293    2.1683 N   0  0  0  0  0  0  0  0  0  0  0  0
    0.2668    1.2118    2.5263 H   0  0  0  0  0  0  0  0  0  0  0  0
   -0.5118    3.1863    2.7135 C   0  0  0  0  0  0  0  0  0  0  0  0
   -1.4470    3.3159    3.2625 H   0  0  0  0  0  0  0  0  0  0  0  0
    0.3243    3.3682    3.3896 H   0  0  0  0  0  0  0  0  0  0  0  0
   -0.4850    3.9172    1.9023 H   0  0  0  0  0  0  0  0  0  0  0  0
  5  6  2  0  0  0  0
  5  7  1  0  0  0  0
  2  3  1  0  0  0  0
  2  4  1  0  0  0  0
  2  5  1  0  0  0  0
  1  2  1  0  0  0  0
 27 28  2  0  0  0  0
 27 29  1  0  0  0  0
 23 24  1  0  0  0  0
 23 25  1  0  0  0  0
 23 26  1  0  0  0  0
 20 21  1  0  0  0  0
 20 22  1  0  0  0  0
 20 23  1  0  0  0  0
 17 18  1  0  0  0  0
 17 19  1  0  0  0  0
 17 20  1  0  0  0  0
 14 15  1  0  0  0  0
 14 16  1  0  0  0  0
 14 17  1  0  0  0  0
 11 12  1  0  0  0  0
 11 13  1  0  0  0  0
 11 14  1  0  0  0  0
  9 10  1  0  0  0  0
  9 11  1  0  0  0  0
  9 27  1  0  0  0  0
  7  8  1  0  0  0  0
  7  9  1  0  0  0  0
 31 32  1  0  0  0  0
 31 33  1  0  0  0  0
 31 34  1  0  0  0  0
 29 30  1  0  0  0  0
 29 31  1  0  0  0  0
M  CHG  1  23   1
M  END
$$$$
default_name
  -OEChem-02102213163D

 34 33  0     1  0  0  0  0  0999 V2000
   -3.8899   -3.6747    1.6490 H   0  0  0  0  0  0  0  0  0  0  0  0
   -3.9109   -2.6717    1.2250 C   0  0  0  0  0  0  0  0  0  0  0  0
   -4.6009   -2.0517    1.7950 H   0  0  0  0  0  0  0  0  0  0  0  0
   -4.2309   -2.7237    0.1860 H   0  0  0  0  0  0  0  0  0  0  0  0
   -2.5229   -2.0787    1.2980 C   0  0  0  0  0  0  0  0  0  0  0  0
   -1.5999   -2.7227    1.7810 O   0  0  0  0  0  0  0  0  0  0  0  0
   -2.3659   -0.8447    0.8120 N   0  0  0  0  0  0  0  0  0  0  0  0
   -3.1749   -0.3807    0.4220 H   0  0  0  0  0  0  0  0  0  0  0  0
   -1.0919   -0.1077    0.8170 C   0  0  1  0  0  0  0  0  0  0  0  0
   -0.4136   -0.6011    1.5155 H   0  0  0  0  0  0  0  0  0  0  0  0
   -0.4834   -0.1723   -0.5965 C   0  0  0  0  0  0  0  0  0  0  0  0
    0.4643    0.3685   -0.5919 H   0  0  0  0  0  0  0  0  0  0  0  0
   -0.2792   -1.2140   -0.8519 H   0  0  0  0  0  0  0  0  0  0  0  0
   -1.3868    0.4454   -1.6747 C   0  0  0  0  0  0  0  0  0  0  0  0
   -0.8645    1.2685   -2.1643 H   0  0  0  0  0  0  0  0  0  0  0  0
   -1.6300   -0.3154   -2.4189 H   0  0  0  0  0  0  0  0  0  0  0  0
   -2.6835    0.9747   -1.0467 C   0  0  0  0  0  0  0  0  0  0  0  0
   -3.1967    0.1512   -0.5444 H   0  0  0  0  0  0  0  0  0  0  0  0
   -2.4353    1.7415   -0.3101 H   0  0  0  0  0  0  0  0  0  0  0  0
   -3.5973    1.5694   -2.1255 C   0  0  0  0  0  0  0  0  0  0  0  0
   -3.0629    2.3863   -2.6213 H   0  0  0  0  0  0  0  0  0  0  0  0
   -3.7990    0.7976   -2.8744 H   0  0  0  0  0  0  0  0  0  0  0  0
   -4.8710    2.0680   -1.5478 N   0  3  0  0  0  0  0  0  0  0  0  0
   -4.6914    2.7901   -0.8615 H   0  0  0  0  0  0  0  0  0  0  0  0
   -5.4623    2.4566   -2.2720 H   0  0  0  0  0  0  0  0  0  0  0  0
   -5.3739    1.3136   -1.0952 H   0  0  0  0  0  0  0  0  0  0  0  0
   -1.3103    1.3348    1.2791 C   0  0  0  0  0  0  0  0  0  0  0  0
   -2.2333    1.9891    0.8084 O   0  0  0  0  0  0  0  0  0  0  0  0
   -0.4429    1.8293    2.1683 N   0  0  0  0  0  0  0  0  0  0  0  0
    0.2668    1.2118    2.5263 H   0  0  0  0  0  0  0  0  0  0  0  0
   -0.5118    3.1863    2.7135 C   0  0  0  0  0  0  0  0  0  0  0  0
   -1.4470    3.3159    3.2625 H   0  0  0  0  0  0  0  0  0  0  0  0
    0.3243    3.3682    3.3896 H   0  0  0  0  0  0  0  0  0  0  0  0
   -0.4850    3.9172    1.9023 H   0  0  0  0  0  0  0  0  0  0  0  0
  5  6  2  0  0  0  0
  5  7  1  0  0  0  0
  2  3  1  0  0  0  0
  2  4  1  0  0  0  0
  2  5  1  0  0  0  0
  1  2  1  0  0  0  0
 27 28  2  0  0  0  0
 27 29  1  0  0  0  0
 23 24  1  0  0  0  0
 23 25  1  0  0  0  0
 23 26  1  0  0  0  0
 20 21  1  0  0  0  0
 20 22  1  0  0  0  0
 20 23  1  0  0  0  0
 17 18  1  0  0  0  0
 17 19  1  0  0  0  0
 17 20  1  0  0  0  0
 14 15  1  0  0  0  0
 14 16  1  0  0  0  0
 14 17  1  0  0  0  0
 11 12  1  0  0  0  0
 11 13  1  0  0  0  0
 11 14  1  0  0  0  0
  9 10  1  0  0  0  0
  9 11  1  0  0  0  0
  9 27  1  0  0  0  0
  7  8  1  0  0  0  0
  7  9  1  0  0  0  0
 31 32  1  0  0  0  0
 31 33  1  0  0  0  0
 31 34  1  0  0  0  0
 29 30  1  0  0  0  0
 29 31  1  0  0  0  0
M  CHG  1  23   1
M  END
$$$$
default_name
  -OEChem-02102213163D

 34 33  0     1  0  0  0  0  0999 V2000
   -3.8899   -3.6747    1.6490 H   0  0  0  0  0  0  0  0  0  0  0  0
   -3.9109   -2.6717    1.2250 C   0  0  0  0  0  0  0  0  0  0  0  0
   -4.6009   -2.0517    1.7950 H   0  0  0  0  0  0  0  0  0  0  0  0
   -4.2309   -2.7237    0.1860 H   0  0  0  0  0  0  0  0  0  0  0  0
   -2.5229   -2.0787    1.2980 C   0  0  0  0  0  0  0  0  0  0  0  0
   -1.5999   -2.7227    1.7810 O   0  0  0  0  0  0  0  0  0  0  0  0
   -2.3659   -0.8447    0.8120 N   0  0  0  0  0  0  0  0  0  0  0  0
   -3.1749   -0.3807    0.4220 H   0  0  0  0  0  0  0  0  0  0  0  0
   -1.0919   -0.1077    0.8170 C   0  0  1  0  0  0  0  0  0  0  0  0
   -0.4136   -0.6011    1.5155 H   0  0  0  0  0  0  0  0  0  0  0  0
   -0.4834   -0.1723   -0.5965 C   0  0  0  0  0  0  0  0  0  0  0  0
    0.4643    0.3685   -0.5919 H   0  0  0  0  0  0  0  0  0  0  0  0
   -0.2792   -1.2140   -0.8519 H   0  0  0  0  0  0  0  0  0  0  0  0
   -1.3868    0.4454   -1.6747 C   0  0  0  0  0  0  0  0  0  0  0  0
   -0.7911    1.0761   -2.3360 H   0  0  0  0  0  0  0  0  0  0  0  0
   -1.8446   -0.3536   -2.2611 H   0  0  0  0  0  0  0  0  0  0  0  0
   -2.4885    1.2951   -1.0264 C   0  0  0  0  0  0  0  0  0  0  0  0
   -3.0740    0.6641   -0.3534 H   0  0  0  0  0  0  0  0  0  0  0  0
   -2.0258    2.0979   -0.4490 H   0  0  0  0  0  0  0  0  0  0  0  0
   -3.4062    1.8923   -2.1006 C   0  0  0  0  0  0  0  0  0  0  0  0
   -2.8004    2.5138   -2.7681 H   0  0  0  0  0  0  0  0  0  0  0  0
   -3.8258    1.0740   -2.6935 H   0  0  0  0  0  0  0  0  0  0  0  0
   -4.4967    2.7007   -1.4990 N   0  3  0  0  0  0  0  0  0  0  0  0
   -4.1147    3.4660   -0.9575 H   0  0  0  0  0  0  0  0  0  0  0  0
   -5.0929    3.0871   -2.2203 H   0  0  0  0  0  0  0  0  0  0  0  0
   -5.0658    2.1278   -0.8869 H   0  0  0  0  0  0  0  0  0  0  0  0
   -1.3103    1.3348    1.2791 C   0  0  0  0  0  0  0  0  0  0  0  0
   -2.2333    1.9891    0.8084 O   0  0  0  0  0  0  0  0  0  0  0  0
   -0.4429    1.8293    2.1683 N   0  0  0  0  0  0  0  0  0  0  0  0
    0.2668    1.2118    2.5263 H   0  0  0  0  0  0  0  0  0  0  0  0
   -0.5118    3.1863    2.7135 C   0  0  0  0  0  0  0  0  0  0  0  0
   -1.4470    3.3159    3.2625 H   0  0  0  0  0  0  0  0  0  0  0  0
    0.3243    3.3682    3.3896 H   0  0  0  0  0  0  0  0  0  0  0  0
   -0.4850    3.9172    1.9023 H   0  0  0  0  0  0  0  0  0  0  0  0
  5  6  2  0  0  0  0
  5  7  1  0  0  0  0
  2  3  1  0  0  0  0
  2  4  1  0  0  0  0
  2  5  1  0  0  0  0
  1  2  1  0  0  0  0
 27 28  2  0  0  0  0
 27 29  1  0  0  0  0
 23 24  1  0  0  0  0
 23 25  1  0  0  0  0
 23 26  1  0  0  0  0
 20 21  1  0  0  0  0
 20 22  1  0  0  0  0
 20 23  1  0  0  0  0
 17 18  1  0  0  0  0
 17 19  1  0  0  0  0
 17 20  1  0  0  0  0
 14 15  1  0  0  0  0
 14 16  1  0  0  0  0
 14 17  1  0  0  0  0
 11 12  1  0  0  0  0
 11 13  1  0  0  0  0
 11 14  1  0  0  0  0
  9 10  1  0  0  0  0
  9 11  1  0  0  0  0
  9 27  1  0  0  0  0
  7  8  1  0  0  0  0
  7  9  1  0  0  0  0
 31 32  1  0  0  0  0
 31 33  1  0  0  0  0
 31 34  1  0  0  0  0
 29 30  1  0  0  0  0
 29 31  1  0  0  0  0
M  CHG  1  23   1
M  END
$$$$
default_name
  -OEChem-02102213163D

 34 33  0     1  0  0  0  0  0999 V2000
   -3.8899   -3.6747    1.6490 H   0  0  0  0  0  0  0  0  0  0  0  0
   -3.9109   -2.6717    1.2250 C   0  0  0  0  0  0  0  0  0  0  0  0
   -4.6009   -2.0517    1.7950 H   0  0  0  0  0  0  0  0  0  0  0  0
   -4.2309   -2.7237    0.1860 H   0  0  0  0  0  0  0  0  0  0  0  0
   -2.5229   -2.0787    1.2980 C   0  0  0  0  0  0  0  0  0  0  0  0
   -1.5999   -2.7227    1.7810 O   0  0  0  0  0  0  0  0  0  0  0  0
   -2.3659   -0.8447    0.8120 N   0  0  0  0  0  0  0  0  0  0  0  0
   -3.1749   -0.3807    0.4220 H   0  0  0  0  0  0  0  0  0  0  0  0
   -1.0919   -0.1077    0.8170 C   0  0  1  0  0  0  0  0  0  0  0  0
   -0.4136   -0.6011    1.5155 H   0  0  0  0  0  0  0  0  0  0  0  0
   -0.4834   -0.1723   -0.5965 C   0  0  0  0  0  0  0  0  0  0  0  0
    0.4643    0.3685   -0.5919 H   0  0  0  0  0  0  0  0  0  0  0  0
   -0.2792   -1.2140   -0.8519 H   0  0  0  0  0  0  0  0  0  0  0  0
   -1.3868    0.4454   -1.6747 C   0  0  0  0  0  0  0  0  0  0  0  0
   -0.7730    0.8508   -2.4803 H   0  0  0  0  0  0  0  0  0  0  0  0
   -2.0424   -0.3276   -2.0804 H   0  0  0  0  0  0  0  0  0  0  0  0
   -2.2399    1.5723   -1.0760 C   0  0  0  0  0  0  0  0  0  0  0  0
   -2.8423    1.1663   -0.2598 H   0  0  0  0  0  0  0  0  0  0  0  0
   -1.5799    2.3467   -0.6801 H   0  0  0  0  0  0  0  0  0  0  0  0
   -3.1603    2.1734   -2.1456 C   0  0  0  0  0  0  0  0  0  0  0  0
   -2.5390    2.5670   -2.9566 H   0  0  0  0  0  0  0  0  0  0  0  0
   -3.7826    1.3735   -2.5581 H   0  0  0  0  0  0  0  0  0  0  0  0
   -4.0151    3.2513   -1.5870 N   0  3  0  0  0  0  0  0  0  0  0  0
   -3.4448    3.9994   -1.2131 H   0  0  0  0  0  0  0  0  0  0  0  0
   -4.6161    3.6368   -2.3047 H   0  0  0  0  0  0  0  0  0  0  0  0
   -4.5987    2.8899   -0.8416 H   0  0  0  0  0  0  0  0  0  0  0  0
   -1.3103    1.3348    1.2791 C   0  0  0  0  0  0  0  0  0  0  0  0
   -2.2333    1.9891    0.8084 O   0  0  0  0  0  0  0  0  0  0  0  0
   -0.4429    1.8293    2.1683 N   0  0  0  0  0  0  0  0  0  0  0  0
    0.2668    1.2118    2.5263 H   0  0  0  0  0  0  0  0  0  0  0  0
   -0.5118    3.1863    2.7135 C   0  0  0  0  0  0  0  0  0  0  0  0
   -1.4470    3.3159    3.2625 H   0  0  0  0  0  0  0  0  0  0  0  0
    0.3243    3.3682    3.3896 H   0  0  0  0  0  0  0  0  0  0  0  0
   -0.4850    3.9172    1.9023 H   0  0  0  0  0  0  0  0  0  0  0  0
  5  6  2  0  0  0  0
  5  7  1  0  0  0  0
  2  3  1  0  0  0  0
  2  4  1  0  0  0  0
  2  5  1  0  0  0  0
  1  2  1  0  0  0  0
 27 28  2  0  0  0  0
 27 29  1  0  0  0  0
 23 24  1  0  0  0  0
 23 25  1  0  0  0  0
 23 26  1  0  0  0  0
 20 21  1  0  0  0  0
 20 22  1  0  0  0  0
 20 23  1  0  0  0  0
 17 18  1  0  0  0  0
 17 19  1  0  0  0  0
 17 20  1  0  0  0  0
 14 15  1  0  0  0  0
 14 16  1  0  0  0  0
 14 17  1  0  0  0  0
 11 12  1  0  0  0  0
 11 13  1  0  0  0  0
 11 14  1  0  0  0  0
  9 10  1  0  0  0  0
  9 11  1  0  0  0  0
  9 27  1  0  0  0  0
  7  8  1  0  0  0  0
  7  9  1  0  0  0  0
 31 32  1  0  0  0  0
 31 33  1  0  0  0  0
 31 34  1  0  0  0  0
 29 30  1  0  0  0  0
 29 31  1  0  0  0  0
M  CHG  1  23   1
M  END
$$$$
default_name
  -OEChem-02102213163D

 34 33  0     1  0  0  0  0  0999 V2000
   -3.8899   -3.6747    1.6490 H   0  0  0  0  0  0  0  0  0  0  0  0
   -3.9109   -2.6717    1.2250 C   0  0  0  0  0  0  0  0  0  0  0  0
   -4.6009   -2.0517    1.7950 H   0  0  0  0  0  0  0  0  0  0  0  0
   -4.2309   -2.7237    0.1860 H   0  0  0  0  0  0  0  0  0  0  0  0
   -2.5229   -2.0787    1.2980 C   0  0  0  0  0  0  0  0  0  0  0  0
   -1.5999   -2.7227    1.7810 O   0  0  0  0  0  0  0  0  0  0  0  0
   -2.3659   -0.8447    0.8120 N   0  0  0  0  0  0  0  0  0  0  0  0
   -3.1749   -0.3807    0.4220 H   0  0  0  0  0  0  0  0  0  0  0  0
   -1.0919   -0.1077    0.8170 C   0  0  1  0  0  0  0  0  0  0  0  0
   -0.4136   -0.6011    1.5155 H   0  0  0  0  0  0  0  0  0  0  0  0
   -0.4834   -0.1723   -0.5965 C   0  0  0  0  0  0  0  0  0  0  0  0
    0.4643    0.3685   -0.5919 H   0  0  0  0  0  0  0  0  0  0  0  0
   -0.2792   -1.2140   -0.8519 H   0  0  0  0  0  0  0  0  0  0  0  0
   -1.3868    0.4454   -1.6747 C   0  0  0  0  0  0  0  0  0  0  0  0
   -0.8115    0.6079   -2.5872 H   0  0  0  0  0  0  0  0  0  0  0  0
   -2.2099   -0.2390   -1.8893 H   0  0  0  0  0  0  0  0  0  0  0  0
   -1.9546    1.7873   -1.1919 C   0  0  0  0  0  0  0  0  0  0  0  0
   -2.5176    1.6235   -0.2699 H   0  0  0  0  0  0  0  0  0  0  0  0
   -1.1281    2.4708   -0.9876 H   0  0  0  0  0  0  0  0  0  0  0  0
   -2.8765    2.3933   -2.2574 C   0  0  0  0  0  0  0  0  0  0  0  0
   -2.2965    2.5422   -3.1741 H   0  0  0  0  0  0  0  0  0  0  0  0
   -3.6725    1.6755   -2.4774 H   0  0  0  0  0  0  0  0  0  0  0  0
   -3.4591    3.6822   -1.8060 N   0  3  0  0  0  0  0  0  0  0  0  0
   -2.7275    4.3541   -1.6109 H   0  0  0  0  0  0  0  0  0  0  0  0
   -4.0646    4.0685   -2.5196 H   0  0  0  0  0  0  0  0  0  0  0  0
   -4.0044    3.5482   -0.9624 H   0  0  0  0  0  0  0  0  0  0  0  0
   -1.3103    1.3348    1.2791 C   0  0  0  0  0  0  0  0  0  0  0  0
   -2.2333    1.9891    0.8084 O   0  0  0  0  0  0  0  0  0  0  0  0
   -0.4429    1.8293    2.1683 N   0  0  0  0  0  0  0  0  0  0  0  0
    0.2668    1.2118    2.5263 H   0  0  0  0  0  0  0  0  0  0  0  0
   -0.5118    3.1863    2.7135 C   0  0  0  0  0  0  0  0  0  0  0  0
   -1.4470    3.3159    3.2625 H   0  0  0  0  0  0  0  0  0  0  0  0
    0.3243    3.3682    3.3896 H   0  0  0  0  0  0  0  0  0  0  0  0
   -0.4850    3.9172    1.9023 H   0  0  0  0  0  0  0  0  0  0  0  0
  5  6  2  0  0  0  0
  5  7  1  0  0  0  0
  2  3  1  0  0  0  0
  2  4  1  0  0  0  0
  2  5  1  0  0  0  0
  1  2  1  0  0  0  0
 27 28  2  0  0  0  0
 27 29  1  0  0  0  0
 23 24  1  0  0  0  0
 23 25  1  0  0  0  0
 23 26  1  0  0  0  0
 20 21  1  0  0  0  0
 20 22  1  0  0  0  0
 20 23  1  0  0  0  0
 17 18  1  0  0  0  0
 17 19  1  0  0  0  0
 17 20  1  0  0  0  0
 14 15  1  0  0  0  0
 14 16  1  0  0  0  0
 14 17  1  0  0  0  0
 11 12  1  0  0  0  0
 11 13  1  0  0  0  0
 11 14  1  0  0  0  0
  9 10  1  0  0  0  0
  9 11  1  0  0  0  0
  9 27  1  0  0  0  0
  7  8  1  0  0  0  0
  7  9  1  0  0  0  0
 31 32  1  0  0  0  0
 31 33  1  0  0  0  0
 31 34  1  0  0  0  0
 29 30  1  0  0  0  0
 29 31  1  0  0  0  0
M  CHG  1  23   1
M  END
$$$$
default_name
  -OEChem-02102213163D

 34 33  0     1  0  0  0  0  0999 V2000
   -3.8899   -3.6747    1.6490 H   0  0  0  0  0  0  0  0  0  0  0  0
   -3.9109   -2.6717    1.2250 C   0  0  0  0  0  0  0  0  0  0  0  0
   -4.6009   -2.0517    1.7950 H   0  0  0  0  0  0  0  0  0  0  0  0
   -4.2309   -2.7237    0.1860 H   0  0  0  0  0  0  0  0  0  0  0  0
   -2.5229   -2.0787    1.2980 C   0  0  0  0  0  0  0  0  0  0  0  0
   -1.5999   -2.7227    1.7810 O   0  0  0  0  0  0  0  0  0  0  0  0
   -2.3659   -0.8447    0.8120 N   0  0  0  0  0  0  0  0  0  0  0  0
   -3.1749   -0.3807    0.4220 H   0  0  0  0  0  0  0  0  0  0  0  0
   -1.0919   -0.1077    0.8170 C   0  0  1  0  0  0  0  0  0  0  0  0
   -0.4136   -0.6011    1.5155 H   0  0  0  0  0  0  0  0  0  0  0  0
   -0.4834   -0.1723   -0.5965 C   0  0  0  0  0  0  0  0  0  0  0  0
    0.4643    0.3685   -0.5919 H   0  0  0  0  0  0  0  0  0  0  0  0
   -0.2792   -1.2140   -0.8519 H   0  0  0  0  0  0  0  0  0  0  0  0
   -1.3868    0.4454   -1.6747 C   0  0  0  0  0  0  0  0  0  0  0  0
   -0.9039    0.3640   -2.6494 H   0  0  0  0  0  0  0  0  0  0  0  0
   -2.3357   -0.0939   -1.7008 H   0  0  0  0  0  0  0  0  0  0  0  0
   -1.6520    1.9255   -1.3663 C   0  0  0  0  0  0  0  0  0  0  0  0
   -2.1219    2.0047   -0.3830 H   0  0  0  0  0  0  0  0  0  0  0  0
   -0.7011    2.4618   -1.3505 H   0  0  0  0  0  0  0  0  0  0  0  0
   -2.5740    2.5372   -2.4284 C   0  0  0  0  0  0  0  0  0  0  0  0
   -2.0894    2.4411   -3.4055 H   0  0  0  0  0  0  0  0  0  0  0  0
   -3.5028    1.9595   -2.4568 H   0  0  0  0  0  0  0  0  0  0  0  0
   -2.8666    3.9641   -2.1410 N   0  3  0  0  0  0  0  0  0  0  0  0
   -2.0116    4.5059   -2.1238 H   0  0  0  0  0  0  0  0  0  0  0  0
   -3.4758    4.3525   -2.8502 H   0  0  0  0  0  0  0  0  0  0  0  0
   -3.3233    4.0577   -1.2412 H   0  0  0  0  0  0  0  0  0  0  0  0
   -1.3103    1.3348    1.2791 C   0  0  0  0  0  0  0  0  0  0  0  0
   -2.2333    1.9891    0.8084 O   0  0  0  0  0  0  0  0  0  0  0  0
   -0.4429    1.8293    2.1683 N   0  0  0  0  0  0  0  0  0  0  0  0
    0.2668    1.2118    2.5263 H   0  0  0  0  0  0  0  0  0  0  0  0
   -0.5118    3.1863    2.7135 C   0  0  0  0  0  0  0  0  0  0  0  0
   -1.4470    3.3159    3.2625 H   0  0  0  0  0  0  0  0  0  0  0  0
    0.3243    3.3682    3.3896 H   0  0  0  0  0  0  0  0  0  0  0  0
   -0.4850    3.9172    1.9023 H   0  0  0  0  0  0  0  0  0  0  0  0
  5  6  2  0  0  0  0
  5  7  1  0  0  0  0
  2  3  1  0  0  0  0
  2  4  1  0  0  0  0
  2  5  1  0  0  0  0
  1  2  1  0  0  0  0
 27 28  2  0  0  0  0
 27 29  1  0  0  0  0
 23 24  1  0  0  0  0
 23 25  1  0  0  0  0
 23 26  1  0  0  0  0
 20 21  1  0  0  0  0
 20 22  1  0  0  0  0
 20 23  1  0  0  0  0
 17 18  1  0  0  0  0
 17 19  1  0  0  0  0
 17 20  1  0  0  0  0
 14 15  1  0  0  0  0
 14 16  1  0  0  0  0
 14 17  1  0  0  0  0
 11 12  1  0  0  0  0
 11 13  1  0  0  0  0
 11 14  1  0  0  0  0
  9 10  1  0  0  0  0
  9 11  1  0  0  0  0
  9 27  1  0  0  0  0
  7  8  1  0  0  0  0
  7  9  1  0  0  0  0
 31 32  1  0  0  0  0
 31 33  1  0  0  0  0
 31 34  1  0  0  0  0
 29 30  1  0  0  0  0
 29 31  1  0  0  0  0
M  CHG  1  23   1
M  END
$$$$
default_name
  -OEChem-02102213163D

 34 33  0     1  0  0  0  0  0999 V2000
   -3.8899   -3.6747    1.6490 H   0  0  0  0  0  0  0  0  0  0  0  0
   -3.9109   -2.6717    1.2250 C   0  0  0  0  0  0  0  0  0  0  0  0
   -4.6009   -2.0517    1.7950 H   0  0  0  0  0  0  0  0  0  0  0  0
   -4.2309   -2.7237    0.1860 H   0  0  0  0  0  0  0  0  0  0  0  0
   -2.5229   -2.0787    1.2980 C   0  0  0  0  0  0  0  0  0  0  0  0
   -1.5999   -2.7227    1.7810 O   0  0  0  0  0  0  0  0  0  0  0  0
   -2.3659   -0.8447    0.8120 N   0  0  0  0  0  0  0  0  0  0  0  0
   -3.1749   -0.3807    0.4220 H   0  0  0  0  0  0  0  0  0  0  0  0
   -1.0919   -0.1077    0.8170 C   0  0  1  0  0  0  0  0  0  0  0  0
   -0.4136   -0.6011    1.5155 H   0  0  0  0  0  0  0  0  0  0  0  0
   -0.4834   -0.1723   -0.5965 C   0  0  0  0  0  0  0  0  0  0  0  0
    0.4643    0.3685   -0.5919 H   0  0  0  0  0  0  0  0  0  0  0  0
   -0.2792   -1.2140   -0.8519 H   0  0  0  0  0  0  0  0  0  0  0  0
   -1.3868    0.4454   -1.6747 C   0  0  0  0  0  0  0  0  0  0  0  0
   -1.0440    0.1358   -2.6629 H   0  0  0  0  0  0  0  0  0  0  0  0
   -2.4112    0.0978   -1.5277 H   0  0  0  0  0  0  0  0  0  0  0  0
   -1.3527    1.9775   -1.5872 C   0  0  0  0  0  0  0  0  0  0  0  0
   -1.6823    2.2838   -0.5915 H   0  0  0  0  0  0  0  0  0  0  0  0
   -0.3280    2.3204   -1.7441 H   0  0  0  0  0  0  0  0  0  0  0  0
   -2.2735    2.5952   -2.6470 C   0  0  0  0  0  0  0  0  0  0  0  0
   -1.9318    2.2706   -3.6353 H   0  0  0  0  0  0  0  0  0  0  0  0
   -3.2852    2.2062   -2.4978 H   0  0  0  0  0  0  0  0  0  0  0  0
   -2.2779    4.0779   -2.5691 N   0  3  0  0  0  0  0  0  0  0  0  0
   -1.3459    4.4444   -2.7169 H   0  0  0  0  0  0  0  0  0  0  0  0
   -2.8899    4.4696   -3.2740 H   0  0  0  0  0  0  0  0  0  0  0  0
   -2.6019    4.3836   -1.6589 H   0  0  0  0  0  0  0  0  0  0  0  0
   -1.3103    1.3348    1.2791 C   0  0  0  0  0  0  0  0  0  0  0  0
   -2.2333    1.9891    0.8084 O   0  0  0  0  0  0  0  0  0  0  0  0
   -0.4429    1.8293    2.1683 N   0  0  0  0  0  0  0  0  0  0  0  0
    0.2668    1.2118    2.5263 H   0  0  0  0  0  0  0  0  0  0  0  0
   -0.5118    3.1863    2.7135 C   0  0  0  0  0  0  0  0  0  0  0  0
   -1.4470    3.3159    3.2625 H   0  0  0  0  0  0  0  0  0  0  0  0
    0.3243    3.3682    3.3896 H   0  0  0  0  0  0  0  0  0  0  0  0
   -0.4850    3.9172    1.9023 H   0  0  0  0  0  0  0  0  0  0  0  0
  5  6  2  0  0  0  0
  5  7  1  0  0  0  0
  2  3  1  0  0  0  0
  2  4  1  0  0  0  0
  2  5  1  0  0  0  0
  1  2  1  0  0  0  0
 27 28  2  0  0  0  0
 27 29  1  0  0  0  0
 23 24  1  0  0  0  0
 23 25  1  0  0  0  0
 23 26  1  0  0  0  0
 20 21  1  0  0  0  0
 20 22  1  0  0  0  0
 20 23  1  0  0  0  0
 17 18  1  0  0  0  0
 17 19  1  0  0  0  0
 17 20  1  0  0  0  0
 14 15  1  0  0  0  0
 14 16  1  0  0  0  0
 14 17  1  0  0  0  0
 11 12  1  0  0  0  0
 11 13  1  0  0  0  0
 11 14  1  0  0  0  0
  9 10  1  0  0  0  0
  9 11  1  0  0  0  0
  9 27  1  0  0  0  0
  7  8  1  0  0  0  0
  7  9  1  0  0  0  0
 31 32  1  0  0  0  0
 31 33  1  0  0  0  0
 31 34  1  0  0  0  0
 29 30  1  0  0  0  0
 29 31  1  0  0  0  0
M  CHG  1  23   1
M  END
$$$$
default_name
  -OEChem-02102213163D

 34 33  0     1  0  0  0  0  0999 V2000
   -3.8899   -3.6747    1.6490 H   0  0  0  0  0  0  0  0  0  0  0  0
   -3.9109   -2.6717    1.2250 C   0  0  0  0  0  0  0  0  0  0  0  0
   -4.6009   -2.0517    1.7950 H   0  0  0  0  0  0  0  0  0  0  0  0
   -4.2309   -2.7237    0.1860 H   0  0  0  0  0  0  0  0  0  0  0  0
   -2.5229   -2.0787    1.2980 C   0  0  0  0  0  0  0  0  0  0  0  0
   -1.5999   -2.7227    1.7810 O   0  0  0  0  0  0  0  0  0  0  0  0
   -2.3659   -0.8447    0.8120 N   0  0  0  0  0  0  0  0  0  0  0  0
   -3.1749   -0.3807    0.4220 H   0  0  0  0  0  0  0  0  0  0  0  0
   -1.0919   -0.1077    0.8170 C   0  0  1  0  0  0  0  0  0  0  0  0
   -0.4136   -0.6011    1.5155 H   0  0  0  0  0  0  0  0  0  0  0  0
   -0.4834   -0.1723   -0.5965 C   0  0  0  0  0  0  0  0  0  0  0  0
    0.4643    0.3685   -0.5919 H   0  0  0  0  0  0  0  0  0  0  0  0
   -0.2792   -1.2140   -0.8519 H   0  0  0  0  0  0  0  0  0  0  0  0
   -1.3868    0.4454   -1.6747 C   0  0  0  0  0  0  0  0  0  0  0  0
   -1.2221   -0.0613   -2.6265 H   0  0  0  0  0  0  0  0  0  0  0  0
   -2.4314    0.3230   -1.3818 H   0  0  0  0  0  0  0  0  0  0  0  0
   -1.0772    1.9397   -1.8397 C   0  0  0  0  0  0  0  0  0  0  0  0
   -1.2286    2.4418   -0.8811 H   0  0  0  0  0  0  0  0  0  0  0  0
   -0.0344    2.0561   -2.1416 H   0  0  0  0  0  0  0  0  0  0  0  0
   -1.9954    2.5633   -2.8983 C   0  0  0  0  0  0  0  0  0  0  0  0
   -1.8344    2.0423   -3.8477 H   0  0  0  0  0  0  0  0  0  0  0  0
   -3.0345    2.3987   -2.5976 H   0  0  0  0  0  0  0  0  0  0  0  0
   -1.7331    4.0156   -3.0612 N   0  3  0  0  0  0  0  0  0  0  0  0
   -0.7757    4.1738   -3.3496 H   0  0  0  0  0  0  0  0  0  0  0  0
   -2.3468    4.4117   -3.7622 H   0  0  0  0  0  0  0  0  0  0  0  0
   -1.8893    4.5039   -2.1871 H   0  0  0  0  0  0  0  0  0  0  0  0
   -1.3103    1.3348    1.2791 C   0  0  0  0  0  0  0  0  0  0  0  0
   -2.2333    1.9891    0.8084 O   0  0  0  0  0  0  0  0  0  0  0  0
   -0.4429    1.8293    2.1683 N   0  0  0  0  0  0  0  0  0  0  0  0
    0.2668    1.2118    2.5263 H   0  0  0  0  0  0  0  0  0  0  0  0
   -0.5118    3.1863    2.7135 C   0  0  0  0  0  0  0  0  0  0  0  0
   -1.4470    3.3159    3.2625 H   0  0  0  0  0  0  0  0  0  0  0  0
    0.3243    3.3682    3.3896 H   0  0  0  0  0  0  0  0  0  0  0  0
   -0.4850    3.9172    1.9023 H   0  0  0  0  0  0  0  0  0  0  0  0
  5  6  2  0  0  0  0
  5  7  1  0  0  0  0
  2  3  1  0  0  0  0
  2  4  1  0  0  0  0
  2  5  1  0  0  0  0
  1  2  1  0  0  0  0
 27 28  2  0  0  0  0
 27 29  1  0  0  0  0
 23 24  1  0  0  0  0
 23 25  1  0  0  0  0
 23 26  1  0  0  0  0
 20 21  1  0  0  0  0
 20 22  1  0  0  0  0
 20 23  1  0  0  0  0
 17 18  1  0  0  0  0
 17 19  1  0  0  0  0
 17 20  1  0  0  0  0
 14 15  1  0  0  0  0
 14 16  1  0  0  0  0
 14 17  1  0  0  0  0
 11 12  1  0  0  0  0
 11 13  1  0  0  0  0
 11 14  1  0  0  0  0
  9 10  1  0  0  0  0
  9 11  1  0  0  0  0
  9 27  1  0  0  0  0
  7  8  1  0  0  0  0
  7  9  1  0  0  0  0
 31 32  1  0  0  0  0
 31 33  1  0  0  0  0
 31 34  1  0  0  0  0
 29 30  1  0  0  0  0
 29 31  1  0  0  0  0
M  CHG  1  23   1
M  END
$$$$
default_name
  -OEChem-02102213163D

 34 33  0     1  0  0  0  0  0999 V2000
   -3.8899   -3.6747    1.6490 H   0  0  0  0  0  0  0  0  0  0  0  0
   -3.9109   -2.6717    1.2250 C   0  0  0  0  0  0  0  0  0  0  0  0
   -4.6009   -2.0517    1.7950 H   0  0  0  0  0  0  0  0  0  0  0  0
   -4.2309   -2.7237    0.1860 H   0  0  0  0  0  0  0  0  0  0  0  0
   -2.5229   -2.0787    1.2980 C   0  0  0  0  0  0  0  0  0  0  0  0
   -1.5999   -2.7227    1.7810 O   0  0  0  0  0  0  0  0  0  0  0  0
   -2.3659   -0.8447    0.8120 N   0  0  0  0  0  0  0  0  0  0  0  0
   -3.1749   -0.3807    0.4220 H   0  0  0  0  0  0  0  0  0  0  0  0
   -1.0919   -0.1077    0.8170 C   0  0  1  0  0  0  0  0  0  0  0  0
   -0.4136   -0.6011    1.5155 H   0  0  0  0  0  0  0  0  0  0  0  0
   -0.4834   -0.1723   -0.5965 C   0  0  0  0  0  0  0  0  0  0  0  0
    0.4643    0.3685   -0.5919 H   0  0  0  0  0  0  0  0  0  0  0  0
   -0.2792   -1.2140   -0.8519 H   0  0  0  0  0  0  0  0  0  0  0  0
   -1.3868    0.4454   -1.6747 C   0  0  0  0  0  0  0  0  0  0  0  0
   -1.4262   -0.2138   -2.5429 H   0  0  0  0  0  0  0  0  0  0  0  0
   -2.3947    0.5664   -1.2730 H   0  0  0  0  0  0  0  0  0  0  0  0
   -0.8442    1.8148   -2.1065 C   0  0  0  0  0  0  0  0  0  0  0  0
   -0.7919    2.4679   -1.2321 H   0  0  0  0  0  0  0  0  0  0  0  0
    0.1599    1.6870   -2.5158 H   0  0  0  0  0  0  0  0  0  0  0  0
   -1.7587    2.4438   -3.1650 C   0  0  0  0  0  0  0  0  0  0  0  0
   -1.8039    1.7718   -4.0282 H   0  0  0  0  0  0  0  0  0  0  0  0
   -2.7677    2.5238   -2.7494 H   0  0  0  0  0  0  0  0  0  0  0  0
   -1.2695    3.7817   -3.5837 N   0  3  0  0  0  0  0  0  0  0  0  0
   -0.3400    3.7126   -3.9789 H   0  0  0  0  0  0  0  0  0  0  0  0
   -1.8835    4.1829   -4.2815 H   0  0  0  0  0  0  0  0  0  0  0  0
   -1.2342    4.4102   -2.7897 H   0  0  0  0  0  0  0  0  0  0  0  0
   -1.3103    1.3348    1.2791 C   0  0  0  0  0  0  0  0  0  0  0  0
   -2.2333    1.9891    0.8084 O   0  0  0  0  0  0  0  0  0  0  0  0
   -0.4429    1.8293    2.1683 N   0  0  0  0  0  0  0  0  0  0  0  0
    0.2668    1.2118    2.5263 H   0  0  0  0  0  0  0  0  0  0  0  0
   -0.5118    3.1863    2.7135 C   0  0  0  0  0  0  0  0  0  0  0  0
   -1.4470    3.3159    3.2625 H   0  0  0  0  0  0  0  0  0  0  0  0
    0.3243    3.3682    3.3896 H   0  0  0  0  0  0  0  0  0  0  0  0
   -0.4850    3.9172    1.9023 H   0  0  0  0  0  0  0  0  0  0  0  0
  5  6  2  0  0  0  0
  5  7  1  0  0  0  0
  2  3  1  0  0  0  0
  2  4  1  0  0  0  0
  2  5  1  0  0  0  0
  1  2  1  0  0  0  0
 27 28  2  0  0  0  0
 27 29  1  0  0  0  0
 23 24  1  0  0  0  0
 23 25  1  0  0  0  0
 23 26  1  0  0  0  0
 20 21  1  0  0  0  0
 20 22  1  0  0  0  0
 20 23  1  0  0  0  0
 17 18  1  0  0  0  0
 17 19  1  0  0  0  0
 17 20  1  0  0  0  0
 14 15  1  0  0  0  0
 14 16  1  0  0  0  0
 14 17  1  0  0  0  0
 11 12  1  0  0  0  0
 11 13  1  0  0  0  0
 11 14  1  0  0  0  0
  9 10  1  0  0  0  0
  9 11  1  0  0  0  0
  9 27  1  0  0  0  0
  7  8  1  0  0  0  0
  7  9  1  0  0  0  0
 31 32  1  0  0  0  0
 31 33  1  0  0  0  0
 31 34  1  0  0  0  0
 29 30  1  0  0  0  0
 29 31  1  0  0  0  0
M  CHG  1  23   1
M  END
$$$$
default_name
  -OEChem-02102213163D

 34 33  0     1  0  0  0  0  0999 V2000
   -3.8899   -3.6747    1.6490 H   0  0  0  0  0  0  0  0  0  0  0  0
   -3.9109   -2.6717    1.2250 C   0  0  0  0  0  0  0  0  0  0  0  0
   -4.6009   -2.0517    1.7950 H   0  0  0  0  0  0  0  0  0  0  0  0
   -4.2309   -2.7237    0.1860 H   0  0  0  0  0  0  0  0  0  0  0  0
   -2.5229   -2.0787    1.2980 C   0  0  0  0  0  0  0  0  0  0  0  0
   -1.5999   -2.7227    1.7810 O   0  0  0  0  0  0  0  0  0  0  0  0
   -2.3659   -0.8447    0.8120 N   0  0  0  0  0  0  0  0  0  0  0  0
   -3.1749   -0.3807    0.4220 H   0  0  0  0  0  0  0  0  0  0  0  0
   -1.0919   -0.1077    0.8170 C   0  0  1  0  0  0  0  0  0  0  0  0
   -0.4136   -0.6011    1.5155 H   0  0  0  0  0  0  0  0  0  0  0  0
   -0.4834   -0.1723   -0.5965 C   0  0  0  0  0  0  0  0  0  0  0  0
    0.4643    0.3685   -0.5919 H   0  0  0  0  0  0  0  0  0  0  0  0
   -0.2792   -1.2140   -0.8519 H   0  0  0  0  0  0  0  0  0  0  0  0
   -1.3868    0.4454   -1.6747 C   0  0  0  0  0  0  0  0  0  0  0  0
   -1.6423   -0.3113   -2.4177 H   0  0  0  0  0  0  0  0  0  0  0  0
   -2.3038    0.8115   -1.2088 H   0  0  0  0  0  0  0  0  0  0  0  0
   -0.6696    1.6112   -2.3695 C   0  0  0  0  0  0  0  0  0  0  0  0
   -0.4018    2.3604   -1.6206 H   0  0  0  0  0  0  0  0  0  0  0  0
    0.2416    1.2382   -2.8414 H   0  0  0  0  0  0  0  0  0  0  0  0
   -1.5796    2.2448   -3.4291 C   0  0  0  0  0  0  0  0  0  0  0  0
   -1.8424    1.4775   -4.1646 H   0  0  0  0  0  0  0  0  0  0  0  0
   -2.5031    2.5732   -2.9429 H   0  0  0  0  0  0  0  0  0  0  0  0
   -0.9185    3.3919   -4.1011 N   0  3  0  0  0  0  0  0  0  0  0  0
   -0.0684    3.0921   -4.5620 H   0  0  0  0  0  0  0  0  0  0  0  0
   -1.5316    3.7987   -4.7965 H   0  0  0  0  0  0  0  0  0  0  0  0
   -0.6810    4.1091   -3.4257 H   0  0  0  0  0  0  0  0  0  0  0  0
   -1.3103    1.3348    1.2791 C   0  0  0  0  0  0  0  0  0  0  0  0
   -2.2333    1.9891    0.8084 O   0  0  0  0  0  0  0  0  0  0  0  0
   -0.4429    1.8293    2.1683 N   0  0  0  0  0  0  0  0  0  0  0  0
    0.2668    1.2118    2.5263 H   0  0  0  0  0  0  0  0  0  0  0  0
   -0.5118    3.1863    2.7135 C   0  0  0  0  0  0  0  0  0  0  0  0
   -1.4470    3.3159    3.2625 H   0  0  0  0  0  0  0  0  0  0  0  0
    0.3243    3.3682    3.3896 H   0  0  0  0  0  0  0  0  0  0  0  0
   -0.4850    3.9172    1.9023 H   0  0  0  0  0  0  0  0  0  0  0  0
  5  6  2  0  0  0  0
  5  7  1  0  0  0  0
  2  3  1  0  0  0  0
  2  4  1  0  0  0  0
  2  5  1  0  0  0  0
  1  2  1  0  0  0  0
 27 28  2  0  0  0  0
 27 29  1  0  0  0  0
 23 24  1  0  0  0  0
 23 25  1  0  0  0  0
 23 26  1  0  0  0  0
 20 21  1  0  0  0  0
 20 22  1  0  0  0  0
 20 23  1  0  0  0  0
 17 18  1  0  0  0  0
 17 19  1  0  0  0  0
 17 20  1  0  0  0  0
 14 15  1  0  0  0  0
 14 16  1  0  0  0  0
 14 17  1  0  0  0  0
 11 12  1  0  0  0  0
 11 13  1  0  0  0  0
 11 14  1  0  0  0  0
  9 10  1  0  0  0  0
  9 11  1  0  0  0  0
  9 27  1  0  0  0  0
  7  8  1  0  0  0  0
  7  9  1  0  0  0  0
 31 32  1  0  0  0  0
 31 33  1  0  0  0  0
 31 34  1  0  0  0  0
 29 30  1  0  0  0  0
 29 31  1  0  0  0  0
M  CHG  1  23   1
M  END
$$$$
default_name
  -OEChem-02102213163D

 34 33  0     1  0  0  0  0  0999 V2000
   -3.8899   -3.6747    1.6490 H   0  0  0  0  0  0  0  0  0  0  0  0
   -3.9109   -2.6717    1.2250 C   0  0  0  0  0  0  0  0  0  0  0  0
   -4.6009   -2.0517    1.7950 H   0  0  0  0  0  0  0  0  0  0  0  0
   -4.2309   -2.7237    0.1860 H   0  0  0  0  0  0  0  0  0  0  0  0
   -2.5229   -2.0787    1.2980 C   0  0  0  0  0  0  0  0  0  0  0  0
   -1.5999   -2.7227    1.7810 O   0  0  0  0  0  0  0  0  0  0  0  0
   -2.3659   -0.8447    0.8120 N   0  0  0  0  0  0  0  0  0  0  0  0
   -3.1749   -0.3807    0.4220 H   0  0  0  0  0  0  0  0  0  0  0  0
   -1.0919   -0.1077    0.8170 C   0  0  1  0  0  0  0  0  0  0  0  0
   -0.4136   -0.6011    1.5155 H   0  0  0  0  0  0  0  0  0  0  0  0
   -0.4834   -0.1723   -0.5965 C   0  0  0  0  0  0  0  0  0  0  0  0
    0.4643    0.3685   -0.5919 H   0  0  0  0  0  0  0  0  0  0  0  0
   -0.2792   -1.2140   -0.8519 H   0  0  0  0  0  0  0  0  0  0  0  0
   -1.3868    0.4454   -1.6747 C   0  0  0  0  0  0  0  0  0  0  0  0
   -1.8557   -0.3471   -2.2594 H   0  0  0  0  0  0  0  0  0  0  0  0
   -2.1648    1.0414   -1.1936 H   0  0  0  0  0  0  0  0  0  0  0  0
   -0.5653    1.3428   -2.6106 C   0  0  0  0  0  0  0  0  0  0  0  0
   -0.0849    2.1265   -2.0200 H   0  0  0  0  0  0  0  0  0  0  0  0
    0.2051    0.7403   -3.0961 H   0  0  0  0  0  0  0  0  0  0  0  0
   -1.4702    1.9798   -3.6726 C   0  0  0  0  0  0  0  0  0  0  0  0
   -1.9472    1.1794   -4.2475 H   0  0  0  0  0  0  0  0  0  0  0  0
   -2.2587    2.5434   -3.1647 H   0  0  0  0  0  0  0  0  0  0  0  0
   -0.7041    2.8729   -4.5781 N   0  3  0  0  0  0  0  0  0  0  0  0
    0.0206    2.3548   -5.0590 H   0  0  0  0  0  0  0  0  0  0  0  0
   -1.3151    3.2852   -5.2721 H   0  0  0  0  0  0  0  0  0  0  0  0
   -0.2677    3.6209   -4.0518 H   0  0  0  0  0  0  0  0  0  0  0  0
   -1.3103    1.3348    1.2791 C   0  0  0  0  0  0  0  0  0  0  0  0
   -2.2333    1.9891    0.8084 O   0  0  0  0  0  0  0  0  0  0  0  0
   -0.4429    1.8293    2.1683 N   0  0  0  0  0  0  0  0  0  0  0  0
    0.2668    1.2118    2.5263 H   0  0  0  0  0  0  0  0  0  0  0  0
   -0.5118    3.1863    2.7135 C   0  0  0  0  0  0  0  0  0  0  0  0
   -1.4470    3.3159    3.2625 H   0  0  0  0  0  0  0  0  0  0  0  0
    0.3243    3.3682    3.3896 H   0  0  0  0  0  0  0  0  0  0  0  0
   -0.4850    3.9172    1.9023 H   0  0  0  0  0  0  0  0  0  0  0  0
  5  6  2  0  0  0  0
  5  7  1  0  0  0  0
  2  3  1  0  0  0  0
  2  4  1  0  0  0  0
  2  5  1  0  0  0  0
  1  2  1  0  0  0  0
 27 28  2  0  0  0  0
 27 29  1  0  0  0  0
 23 24  1  0  0  0  0
 23 25  1  0  0  0  0
 23 26  1  0  0  0  0
 20 21  1  0  0  0  0
 20 22  1  0  0  0  0
 20 23  1  0  0  0  0
 17 18  1  0  0  0  0
 17 19  1  0  0  0  0
 17 20  1  0  0  0  0
 14 15  1  0  0  0  0
 14 16  1  0  0  0  0
 14 17  1  0  0  0  0
 11 12  1  0  0  0  0
 11 13  1  0  0  0  0
 11 14  1  0  0  0  0
  9 10  1  0  0  0  0
  9 11  1  0  0  0  0
  9 27  1  0  0  0  0
  7  8  1  0  0  0  0
  7  9  1  0  0  0  0
 31 32  1  0  0  0  0
 31 33  1  0  0  0  0
 31 34  1  0  0  0  0
 29 30  1  0  0  0  0
 29 31  1  0  0  0  0
M  CHG  1  23   1
M  END
$$$$
default_name
  -OEChem-02102213163D

 34 33  0     1  0  0  0  0  0999 V2000
   -3.8899   -3.6747    1.6490 H   0  0  0  0  0  0  0  0  0  0  0  0
   -3.9109   -2.6717    1.2250 C   0  0  0  0  0  0  0  0  0  0  0  0
   -4.6009   -2.0517    1.7950 H   0  0  0  0  0  0  0  0  0  0  0  0
   -4.2309   -2.7237    0.1860 H   0  0  0  0  0  0  0  0  0  0  0  0
   -2.5229   -2.0787    1.2980 C   0  0  0  0  0  0  0  0  0  0  0  0
   -1.5999   -2.7227    1.7810 O   0  0  0  0  0  0  0  0  0  0  0  0
   -2.3659   -0.8447    0.8120 N   0  0  0  0  0  0  0  0  0  0  0  0
   -3.1749   -0.3807    0.4220 H   0  0  0  0  0  0  0  0  0  0  0  0
   -1.0919   -0.1077    0.8170 C   0  0  1  0  0  0  0  0  0  0  0  0
   -0.4136   -0.6011    1.5155 H   0  0  0  0  0  0  0  0  0  0  0  0
   -0.4834   -0.1723   -0.5965 C   0  0  0  0  0  0  0  0  0  0  0  0
    0.4643    0.3685   -0.5919 H   0  0  0  0  0  0  0  0  0  0  0  0
   -0.2792   -1.2140   -0.8519 H   0  0  0  0  0  0  0  0  0  0  0  0
   -1.3868    0.4454   -1.6747 C   0  0  0  0  0  0  0  0  0  0  0  0
   -2.0519   -0.3189   -2.0788 H   0  0  0  0  0  0  0  0  0  0  0  0
   -1.9871    1.2405   -1.2283 H   0  0  0  0  0  0  0  0  0  0  0  0
   -0.5384    1.0278   -2.8136 C   0  0  0  0  0  0  0  0  0  0  0  0
    0.1371    1.7823   -2.4032 H   0  0  0  0  0  0  0  0  0  0  0  0
    0.0529    0.2272   -3.2625 H   0  0  0  0  0  0  0  0  0  0  0  0
   -1.4380    1.6670   -3.8788 C   0  0  0  0  0  0  0  0  0  0  0  0
   -2.1113    0.8979   -4.2713 H   0  0  0  0  0  0  0  0  0  0  0  0
   -2.0511    2.4364   -3.4000 H   0  0  0  0  0  0  0  0  0  0  0  0
   -0.6409    2.2601   -4.9821 N   0  3  0  0  0  0  0  0  0  0  0  0
   -0.0792    1.5507   -5.4361 H   0  0  0  0  0  0  0  0  0  0  0  0
   -1.2487    2.6776   -5.6758 H   0  0  0  0  0  0  0  0  0  0  0  0
   -0.0222    2.9789   -4.6252 H   0  0  0  0  0  0  0  0  0  0  0  0
   -1.3103    1.3348    1.2791 C   0  0  0  0  0  0  0  0  0  0  0  0
   -2.2333    1.9891    0.8084 O   0  0  0  0  0  0  0  0  0  0  0  0
   -0.4429    1.8293    2.1683 N   0  0  0  0  0  0  0  0  0  0  0  0
    0.2668    1.2118    2.5263 H   0  0  0  0  0  0  0  0  0  0  0  0
   -0.5118    3.1863    2.7135 C   0  0  0  0  0  0  0  0  0  0  0  0
   -1.4470    3.3159    3.2625 H   0  0  0  0  0  0  0  0  0  0  0  0
    0.3243    3.3682    3.3896 H   0  0  0  0  0  0  0  0  0  0  0  0
   -0.4850    3.9172    1.9023 H   0  0  0  0  0  0  0  0  0  0  0  0
  5  6  2  0  0  0  0
  5  7  1  0  0  0  0
  2  3  1  0  0  0  0
  2  4  1  0  0  0  0
  2  5  1  0  0  0  0
  1  2  1  0  0  0  0
 27 28  2  0  0  0  0
 27 29  1  0  0  0  0
 23 24  1  0  0  0  0
 23 25  1  0  0  0  0
 23 26  1  0  0  0  0
 20 21  1  0  0  0  0
 20 22  1  0  0  0  0
 20 23  1  0  0  0  0
 17 18  1  0  0  0  0
 17 19  1  0  0  0  0
 17 20  1  0  0  0  0
 14 15  1  0  0  0  0
 14 16  1  0  0  0  0
 14 17  1  0  0  0  0
 11 12  1  0  0  0  0
 11 13  1  0  0  0  0
 11 14  1  0  0  0  0
  9 10  1  0  0  0  0
  9 11  1  0  0  0  0
  9 27  1  0  0  0  0
  7  8  1  0  0  0  0
  7  9  1  0  0  0  0
 31 32  1  0  0  0  0
 31 33  1  0  0  0  0
 31 34  1  0  0  0  0
 29 30  1  0  0  0  0
 29 31  1  0  0  0  0
M  CHG  1  23   1
M  END
$$$$
default_name
  -OEChem-02102213163D

 34 33  0     1  0  0  0  0  0999 V2000
   -3.8899   -3.6747    1.6490 H   0  0  0  0  0  0  0  0  0  0  0  0
   -3.9109   -2.6717    1.2250 C   0  0  0  0  0  0  0  0  0  0  0  0
   -4.6009   -2.0517    1.7950 H   0  0  0  0  0  0  0  0  0  0  0  0
   -4.2309   -2.7237    0.1860 H   0  0  0  0  0  0  0  0  0  0  0  0
   -2.5229   -2.0787    1.2980 C   0  0  0  0  0  0  0  0  0  0  0  0
   -1.5999   -2.7227    1.7810 O   0  0  0  0  0  0  0  0  0  0  0  0
   -2.3659   -0.8447    0.8120 N   0  0  0  0  0  0  0  0  0  0  0  0
   -3.1749   -0.3807    0.4220 H   0  0  0  0  0  0  0  0  0  0  0  0
   -1.0919   -0.1077    0.8170 C   0  0  1  0  0  0  0  0  0  0  0  0
   -0.4136   -0.6011    1.5155 H   0  0  0  0  0  0  0  0  0  0  0  0
   -0.4834   -0.1723   -0.5965 C   0  0  0  0  0  0  0  0  0  0  0  0
    0.4643    0.3685   -0.5919 H   0  0  0  0  0  0  0  0  0  0  0  0
   -0.2792   -1.2140   -0.8519 H   0  0  0  0  0  0  0  0  0  0  0  0
   -1.3868    0.4454   -1.6747 C   0  0  0  0  0  0  0  0  0  0  0  0
   -2.2175   -0.2285   -1.8883 H   0  0  0  0  0  0  0  0  0  0  0  0
   -1.7830    1.3954   -1.3106 H   0  0  0  0  0  0  0  0  0  0  0  0
   -0.5907    0.6879   -2.9645 C   0  0  0  0  0  0  0  0  0  0  0  0
    0.2491    1.3512   -2.7441 H   0  0  0  0  0  0  0  0  0  0  0  0
   -0.2047   -0.2660   -3.3293 H   0  0  0  0  0  0  0  0  0  0  0  0
   -1.4852    1.3275   -4.0338 C   0  0  0  0  0  0  0  0  0  0  0  0
   -2.3233    0.6522   -4.2345 H   0  0  0  0  0  0  0  0  0  0  0  0
   -1.8945    2.2596   -3.6325 H   0  0  0  0  0  0  0  0  0  0  0  0
   -0.7332    1.5952   -5.2857 N   0  3  0  0  0  0  0  0  0  0  0  0
   -0.3608    0.7348   -5.6676 H   0  0  0  0  0  0  0  0  0  0  0  0
   -1.3370    2.0172   -5.9803 H   0  0  0  0  0  0  0  0  0  0  0  0
    0.0386    2.2270   -5.1070 H   0  0  0  0  0  0  0  0  0  0  0  0
   -1.3103    1.3348    1.2791 C   0  0  0  0  0  0  0  0  0  0  0  0
   -2.2333    1.9891    0.8084 O   0  0  0  0  0  0  0  0  0  0  0  0
   -0.4429    1.8293    2.1683 N   0  0  0  0  0  0  0  0  0  0  0  0
    0.2668    1.2118    2.5263 H   0  0  0  0  0  0  0  0  0  0  0  0
   -0.5118    3.1863    2.7135 C   0  0  0  0  0  0  0  0  0  0  0  0
   -1.4470    3.3159    3.2625 H   0  0  0  0  0  0  0  0  0  0  0  0
    0.3243    3.3682    3.3896 H   0  0  0  0  0  0  0  0  0  0  0  0
   -0.4850    3.9172    1.9023 H   0  0  0  0  0  0  0  0  0  0  0  0
  5  6  2  0  0  0  0
  5  7  1  0  0  0  0
  2  3  1  0  0  0  0
  2  4  1  0  0  0  0
  2  5  1  0  0  0  0
  1  2  1  0  0  0  0
 27 28  2  0  0  0  0
 27 29  1  0  0  0  0
 23 24  1  0  0  0  0
 23 25  1  0  0  0  0
 23 26  1  0  0  0  0
 20 21  1  0  0  0  0
 20 22  1  0  0  0  0
 20 23  1  0  0  0  0
 17 18  1  0  0  0  0
 17 19  1  0  0  0  0
 17 20  1  0  0  0  0
 14 15  1  0  0  0  0
 14 16  1  0  0  0  0
 14 17  1  0  0  0  0
 11 12  1  0  0  0  0
 11 13  1  0  0  0  0
 11 14  1  0  0  0  0
  9 10  1  0  0  0  0
  9 11  1  0  0  0  0
  9 27  1  0  0  0  0
  7  8  1  0  0  0  0
  7  9  1  0  0  0  0
 31 32  1  0  0  0  0
 31 33  1  0  0  0  0
 31 34  1  0  0  0  0
 29 30  1  0  0  0  0
 29 31  1  0  0  0  0
M  CHG  1  23   1
M  END
$$$$
default_name
  -OEChem-02102213163D

 34 33  0     1  0  0  0  0  0999 V2000
   -3.8899   -3.6747    1.6490 H   0  0  0  0  0  0  0  0  0  0  0  0
   -3.9109   -2.6717    1.2250 C   0  0  0  0  0  0  0  0  0  0  0  0
   -4.6009   -2.0517    1.7950 H   0  0  0  0  0  0  0  0  0  0  0  0
   -4.2309   -2.7237    0.1860 H   0  0  0  0  0  0  0  0  0  0  0  0
   -2.5229   -2.0787    1.2980 C   0  0  0  0  0  0  0  0  0  0  0  0
   -1.5999   -2.7227    1.7810 O   0  0  0  0  0  0  0  0  0  0  0  0
   -2.3659   -0.8447    0.8120 N   0  0  0  0  0  0  0  0  0  0  0  0
   -3.1749   -0.3807    0.4220 H   0  0  0  0  0  0  0  0  0  0  0  0
   -1.0919   -0.1077    0.8170 C   0  0  1  0  0  0  0  0  0  0  0  0
   -0.4136   -0.6011    1.5155 H   0  0  0  0  0  0  0  0  0  0  0  0
   -0.4834   -0.1723   -0.5965 C   0  0  0  0  0  0  0  0  0  0  0  0
    0.5651    0.1241   -0.5374 H   0  0  0  0  0  0  0  0  0  0  0  0
   -0.5260   -1.2014   -0.9587 H   0  0  0  0  0  0  0  0  0  0  0  0
   -1.1894    0.7484   -1.6036 C   0  0  0  0  0  0  0  0  0  0  0  0
   -2.2408    0.4686   -1.6827 H   0  0  0  0  0  0  0  0  0  0  0  0
   -1.1205    1.7810   -1.2561 H   0  0  0  0  0  0  0  0  0  0  0  0
   -0.5321    0.6325   -2.9858 C   0  0  0  0  0  0  0  0  0  0  0  0
    0.5241    0.8988   -2.9003 H   0  0  0  0  0  0  0  0  0  0  0  0
   -0.6119   -0.3997   -3.3326 H   0  0  0  0  0  0  0  0  0  0  0  0
   -1.2201    1.5696   -3.9863 C   0  0  0  0  0  0  0  0  0  0  0  0
   -2.2771    1.2917   -4.0518 H   0  0  0  0  0  0  0  0  0  0  0  0
   -1.1656    2.5916   -3.5995 H   0  0  0  0  0  0  0  0  0  0  0  0
   -0.5879    1.4951   -5.3277 N   0  3  0  0  0  0  0  0  0  0  0  0
   -0.6445    0.5536   -5.6956 H   0  0  0  0  0  0  0  0  0  0  0  0
   -1.0528    2.1189   -5.9755 H   0  0  0  0  0  0  0  0  0  0  0  0
    0.3887    1.7599   -5.2740 H   0  0  0  0  0  0  0  0  0  0  0  0
   -1.3103    1.3348    1.2791 C   0  0  0  0  0  0  0  0  0  0  0  0
   -2.2333    1.9891    0.8084 O   0  0  0  0  0  0  0  0  0  0  0  0
   -0.4429    1.8293    2.1683 N   0  0  0  0  0  0  0  0  0  0  0  0
    0.2668    1.2118    2.5263 H   0  0  0  0  0  0  0  0  0  0  0  0
   -0.5118    3.1863    2.7135 C   0  0  0  0  0  0  0  0  0  0  0  0
   -1.4470    3.3159    3.2625 H   0  0  0  0  0  0  0  0  0  0  0  0
    0.3243    3.3682    3.3896 H   0  0  0  0  0  0  0  0  0  0  0  0
   -0.4850    3.9172    1.9023 H   0  0  0  0  0  0  0  0  0  0  0  0
  5  6  2  0  0  0  0
  5  7  1  0  0  0  0
  2  3  1  0  0  0  0
  2  4  1  0  0  0  0
  2  5  1  0  0  0  0
  1  2  1  0  0  0  0
 27 28  2  0  0  0  0
 27 29  1  0  0  0  0
 23 24  1  0  0  0  0
 23 25  1  0  0  0  0
 23 26  1  0  0  0  0
 20 21  1  0  0  0  0
 20 22  1  0  0  0  0
 20 23  1  0  0  0  0
 17 18  1  0  0  0  0
 17 19  1  0  0  0  0
 17 20  1  0  0  0  0
 14 15  1  0  0  0  0
 14 16  1  0  0  0  0
 14 17  1  0  0  0  0
 11 12  1  0  0  0  0
 11 13  1  0  0  0  0
 11 14  1  0  0  0  0
  9 10  1  0  0  0  0
  9 11  1  0  0  0  0
  9 27  1  0  0  0  0
  7  8  1  0  0  0  0
  7  9  1  0  0  0  0
 31 32  1  0  0  0  0
 31 33  1  0  0  0  0
 31 34  1  0  0  0  0
 29 30  1  0  0  0  0
 29 31  1  0  0  0  0
M  CHG  1  23   1
M  END
$$$$
default_name
  -OEChem-02102213163D

 34 33  0     1  0  0  0  0  0999 V2000
   -3.8899   -3.6747    1.6490 H   0  0  0  0  0  0  0  0  0  0  0  0
   -3.9109   -2.6717    1.2250 C   0  0  0  0  0  0  0  0  0  0  0  0
   -4.6009   -2.0517    1.7950 H   0  0  0  0  0  0  0  0  0  0  0  0
   -4.2309   -2.7237    0.1860 H   0  0  0  0  0  0  0  0  0  0  0  0
   -2.5229   -2.0787    1.2980 C   0  0  0  0  0  0  0  0  0  0  0  0
   -1.5999   -2.7227    1.7810 O   0  0  0  0  0  0  0  0  0  0  0  0
   -2.3659   -0.8447    0.8120 N   0  0  0  0  0  0  0  0  0  0  0  0
   -3.1749   -0.3807    0.4220 H   0  0  0  0  0  0  0  0  0  0  0  0
   -1.0919   -0.1077    0.8170 C   0  0  1  0  0  0  0  0  0  0  0  0
   -0.4136   -0.6011    1.5155 H   0  0  0  0  0  0  0  0  0  0  0  0
   -0.4834   -0.1723   -0.5965 C   0  0  0  0  0  0  0  0  0  0  0  0
    0.5651    0.1241   -0.5374 H   0  0  0  0  0  0  0  0  0  0  0  0
   -0.5260   -1.2014   -0.9587 H   0  0  0  0  0  0  0  0  0  0  0  0
   -1.1894    0.7484   -1.6036 C   0  0  0  0  0  0  0  0  0  0  0  0
   -2.2704    0.6546   -1.4919 H   0  0  0  0  0  0  0  0  0  0  0  0
   -0.8994    1.7828   -1.4095 H   0  0  0  0  0  0  0  0  0  0  0  0
   -0.7969    0.3714   -3.0388 C   0  0  0  0  0  0  0  0  0  0  0  0
    0.2877    0.4519   -3.1432 H   0  0  0  0  0  0  0  0  0  0  0  0
   -1.0973   -0.6606   -3.2308 H   0  0  0  0  0  0  0  0  0  0  0  0
   -1.4817    1.3056   -4.0443 C   0  0  0  0  0  0  0  0  0  0  0  0
   -2.5657    1.2161   -3.9186 H   0  0  0  0  0  0  0  0  0  0  0  0
   -1.2009    2.3364   -3.8080 H   0  0  0  0  0  0  0  0  0  0  0  0
   -1.1002    0.9779   -5.4413 N   0  3  0  0  0  0  0  0  0  0  0  0
   -1.3671    0.0284   -5.6692 H   0  0  0  0  0  0  0  0  0  0  0  0
   -1.5598    1.6030   -6.0917 H   0  0  0  0  0  0  0  0  0  0  0  0
   -0.0985    1.0678   -5.5651 H   0  0  0  0  0  0  0  0  0  0  0  0
   -1.3103    1.3348    1.2791 C   0  0  0  0  0  0  0  0  0  0  0  0
   -2.2333    1.9891    0.8084 O   0  0  0  0  0  0  0  0  0  0  0  0
   -0.4429    1.8293    2.1683 N   0  0  0  0  0  0  0  0  0  0  0  0
    0.2668    1.2118    2.5263 H   0  0  0  0  0  0  0  0  0  0  0  0
   -0.5118    3.1863    2.7135 C   0  0  0  0  0  0  0  0  0  0  0  0
   -1.4470    3.3159    3.2625 H   0  0  0  0  0  0  0  0  0  0  0  0
    0.3243    3.3682    3.3896 H   0  0  0  0  0  0  0  0  0  0  0  0
   -0.4850    3.9172    1.9023 H   0  0  0  0  0  0  0  0  0  0  0  0
  5  6  2  0  0  0  0
  5  7  1  0  0  0  0
  2  3  1  0  0  0  0
  2  4  1  0  0  0  0
  2  5  1  0  0  0  0
  1  2  1  0  0  0  0
 27 28  2  0  0  0  0
 27 29  1  0  0  0  0
 23 24  1  0  0  0  0
 23 25  1  0  0  0  0
 23 26  1  0  0  0  0
 20 21  1  0  0  0  0
 20 22  1  0  0  0  0
 20 23  1  0  0  0  0
 17 18  1  0  0  0  0
 17 19  1  0  0  0  0
 17 20  1  0  0  0  0
 14 15  1  0  0  0  0
 14 16  1  0  0  0  0
 14 17  1  0  0  0  0
 11 12  1  0  0  0  0
 11 13  1  0  0  0  0
 11 14  1  0  0  0  0
  9 10  1  0  0  0  0
  9 11  1  0  0  0  0
  9 27  1  0  0  0  0
  7  8  1  0  0  0  0
  7  9  1  0  0  0  0
 31 32  1  0  0  0  0
 31 33  1  0  0  0  0
 31 34  1  0  0  0  0
 29 30  1  0  0  0  0
 29 31  1  0  0  0  0
M  CHG  1  23   1
M  END
$$$$
default_name
  -OEChem-02102213163D

 34 33  0     1  0  0  0  0  0999 V2000
   -3.8899   -3.6747    1.6490 H   0  0  0  0  0  0  0  0  0  0  0  0
   -3.9109   -2.6717    1.2250 C   0  0  0  0  0  0  0  0  0  0  0  0
   -4.6009   -2.0517    1.7950 H   0  0  0  0  0  0  0  0  0  0  0  0
   -4.2309   -2.7237    0.1860 H   0  0  0  0  0  0  0  0  0  0  0  0
   -2.5229   -2.0787    1.2980 C   0  0  0  0  0  0  0  0  0  0  0  0
   -1.5999   -2.7227    1.7810 O   0  0  0  0  0  0  0  0  0  0  0  0
   -2.3659   -0.8447    0.8120 N   0  0  0  0  0  0  0  0  0  0  0  0
   -3.1749   -0.3807    0.4220 H   0  0  0  0  0  0  0  0  0  0  0  0
   -1.0919   -0.1077    0.8170 C   0  0  1  0  0  0  0  0  0  0  0  0
   -0.4136   -0.6011    1.5155 H   0  0  0  0  0  0  0  0  0  0  0  0
   -0.4834   -0.1723   -0.5965 C   0  0  0  0  0  0  0  0  0  0  0  0
    0.5651    0.1241   -0.5374 H   0  0  0  0  0  0  0  0  0  0  0  0
   -0.5260   -1.2014   -0.9587 H   0  0  0  0  0  0  0  0  0  0  0  0
   -1.1894    0.7484   -1.6036 C   0  0  0  0  0  0  0  0  0  0  0  0
   -2.2380    0.8619   -1.3251 H   0  0  0  0  0  0  0  0  0  0  0  0
   -0.7093    1.7288   -1.5922 H   0  0  0  0  0  0  0  0  0  0  0  0
   -1.1052    0.1579   -3.0179 C   0  0  0  0  0  0  0  0  0  0  0  0
   -0.0541    0.0314   -3.2880 H   0  0  0  0  0  0  0  0  0  0  0  0
   -1.5947   -0.8181   -3.0260 H   0  0  0  0  0  0  0  0  0  0  0  0
   -1.7881    1.0881   -4.0282 C   0  0  0  0  0  0  0  0  0  0  0  0
   -2.8365    1.2080   -3.7362 H   0  0  0  0  0  0  0  0  0  0  0  0
   -1.3106    2.0711   -3.9737 H   0  0  0  0  0  0  0  0  0  0  0  0
   -1.7004    0.5519   -5.4100 N   0  3  0  0  0  0  0  0  0  0  0  0
   -2.1500   -0.3532   -5.4692 H   0  0  0  0  0  0  0  0  0  0  0  0
   -2.1550    1.1769   -6.0639 H   0  0  0  0  0  0  0  0  0  0  0  0
   -0.7317    0.4474   -5.6884 H   0  0  0  0  0  0  0  0  0  0  0  0
   -1.3103    1.3348    1.2791 C   0  0  0  0  0  0  0  0  0  0  0  0
   -2.2333    1.9891    0.8084 O   0  0  0  0  0  0  0  0  0  0  0  0
   -0.4429    1.8293    2.1683 N   0  0  0  0  0  0  0  0  0  0  0  0
    0.2668    1.2118    2.5263 H   0  0  0  0  0  0  0  0  0  0  0  0
   -0.5118    3.1863    2.7135 C   0  0  0  0  0  0  0  0  0  0  0  0
   -1.4470    3.3159    3.2625 H   0  0  0  0  0  0  0  0  0  0  0  0
    0.3243    3.3682    3.3896 H   0  0  0  0  0  0  0  0  0  0  0  0
   -0.4850    3.9172    1.9023 H   0  0  0  0  0  0  0  0  0  0  0  0
  5  6  2  0  0  0  0
  5  7  1  0  0  0  0
  2  3  1  0  0  0  0
  2  4  1  0  0  0  0
  2  5  1  0  0  0  0
  1  2  1  0  0  0  0
 27 28  2  0  0  0  0
 27 29  1  0  0  0  0
 23 24  1  0  0  0  0
 23 25  1  0  0  0  0
 23 26  1  0  0  0  0
 20 21  1  0  0  0  0
 20 22  1  0  0  0  0
 20 23  1  0  0  0  0
 17 18  1  0  0  0  0
 17 19  1  0  0  0  0
 17 20  1  0  0  0  0
 14 15  1  0  0  0  0
 14 16  1  0  0  0  0
 14 17  1  0  0  0  0
 11 12  1  0  0  0  0
 11 13  1  0  0  0  0
 11 14  1  0  0  0  0
  9 10  1  0  0  0  0
  9 11  1  0  0  0  0
  9 27  1  0  0  0  0
  7  8  1  0  0  0  0
  7  9  1  0  0  0  0
 31 32  1  0  0  0  0
 31 33  1  0  0  0  0
 31 34  1  0  0  0  0
 29 30  1  0  0  0  0
 29 31  1  0  0  0  0
M  CHG  1  23   1
M  END
$$$$
default_name
  -OEChem-02102213163D

 34 33  0     1  0  0  0  0  0999 V2000
   -3.8899   -3.6747    1.6490 H   0  0  0  0  0  0  0  0  0  0  0  0
   -3.9109   -2.6717    1.2250 C   0  0  0  0  0  0  0  0  0  0  0  0
   -4.6009   -2.0517    1.7950 H   0  0  0  0  0  0  0  0  0  0  0  0
   -4.2309   -2.7237    0.1860 H   0  0  0  0  0  0  0  0  0  0  0  0
   -2.5229   -2.0787    1.2980 C   0  0  0  0  0  0  0  0  0  0  0  0
   -1.5999   -2.7227    1.7810 O   0  0  0  0  0  0  0  0  0  0  0  0
   -2.3659   -0.8447    0.8120 N   0  0  0  0  0  0  0  0  0  0  0  0
   -3.1749   -0.3807    0.4220 H   0  0  0  0  0  0  0  0  0  0  0  0
   -1.0919   -0.1077    0.8170 C   0  0  1  0  0  0  0  0  0  0  0  0
   -0.4136   -0.6011    1.5155 H   0  0  0  0  0  0  0  0  0  0  0  0
   -0.4834   -0.1723   -0.5965 C   0  0  0  0  0  0  0  0  0  0  0  0
    0.5651    0.1241   -0.5374 H   0  0  0  0  0  0  0  0  0  0  0  0
   -0.5260   -1.2014   -0.9587 H   0  0  0  0  0  0  0  0  0  0  0  0
   -1.1894    0.7484   -1.6036 C   0  0  0  0  0  0  0  0  0  0  0  0
   -2.1455    1.0766   -1.1937 H   0  0  0  0  0  0  0  0  0  0  0  0
   -0.5632    1.6226   -1.7917 H   0  0  0  0  0  0  0  0  0  0  0  0
   -1.4360    0.0064   -2.9245 C   0  0  0  0  0  0  0  0  0  0  0  0
   -0.4781   -0.3340   -3.3248 H   0  0  0  0  0  0  0  0  0  0  0  0
   -2.0701   -0.8614   -2.7324 H   0  0  0  0  0  0  0  0  0  0  0  0
   -2.1185    0.9320   -3.9394 C   0  0  0  0  0  0  0  0  0  0  0  0
   -3.0712    1.2677   -3.5170 H   0  0  0  0  0  0  0  0  0  0  0  0
   -1.4873    1.8137   -4.0851 H   0  0  0  0  0  0  0  0  0  0  0  0
   -2.3476    0.2458   -5.2360 N   0  3  0  0  0  0  0  0  0  0  0  0
   -2.9400   -0.5653   -5.1092 H   0  0  0  0  0  0  0  0  0  0  0  0
   -2.7979    0.8696   -5.8941 H   0  0  0  0  0  0  0  0  0  0  0  0
   -1.4678   -0.0592   -5.6355 H   0  0  0  0  0  0  0  0  0  0  0  0
   -1.3103    1.3348    1.2791 C   0  0  0  0  0  0  0  0  0  0  0  0
   -2.2333    1.9891    0.8084 O   0  0  0  0  0  0  0  0  0  0  0  0
   -0.4429    1.8293    2.1683 N   0  0  0  0  0  0  0  0  0  0  0  0
    0.2668    1.2118    2.5263 H   0  0  0  0  0  0  0  0  0  0  0  0
   -0.5118    3.1863    2.7135 C   0  0  0  0  0  0  0  0  0  0  0  0
   -1.4470    3.3159    3.2625 H   0  0  0  0  0  0  0  0  0  0  0  0
    0.3243    3.3682    3.3896 H   0  0  0  0  0  0  0  0  0  0  0  0
   -0.4850    3.9172    1.9023 H   0  0  0  0  0  0  0  0  0  0  0  0
  5  6  2  0  0  0  0
  5  7  1  0  0  0  0
  2  3  1  0  0  0  0
  2  4  1  0  0  0  0
  2  5  1  0  0  0  0
  1  2  1  0  0  0  0
 27 28  2  0  0  0  0
 27 29  1  0  0  0  0
 23 24  1  0  0  0  0
 23 25  1  0  0  0  0
 23 26  1  0  0  0  0
 20 21  1  0  0  0  0
 20 22  1  0  0  0  0
 20 23  1  0  0  0  0
 17 18  1  0  0  0  0
 17 19  1  0  0  0  0
 17 20  1  0  0  0  0
 14 15  1  0  0  0  0
 14 16  1  0  0  0  0
 14 17  1  0  0  0  0
 11 12  1  0  0  0  0
 11 13  1  0  0  0  0
 11 14  1  0  0  0  0
  9 10  1  0  0  0  0
  9 11  1  0  0  0  0
  9 27  1  0  0  0  0
  7  8  1  0  0  0  0
  7  9  1  0  0  0  0
 31 32  1  0  0  0  0
 31 33  1  0  0  0  0
 31 34  1  0  0  0  0
 29 30  1  0  0  0  0
 29 31  1  0  0  0  0
M  CHG  1  23   1
M  END
$$$$
default_name
  -OEChem-02102213163D

 34 33  0     1  0  0  0  0  0999 V2000
   -3.8899   -3.6747    1.6490 H   0  0  0  0  0  0  0  0  0  0  0  0
   -3.9109   -2.6717    1.2250 C   0  0  0  0  0  0  0  0  0  0  0  0
   -4.6009   -2.0517    1.7950 H   0  0  0  0  0  0  0  0  0  0  0  0
   -4.2309   -2.7237    0.1860 H   0  0  0  0  0  0  0  0  0  0  0  0
   -2.5229   -2.0787    1.2980 C   0  0  0  0  0  0  0  0  0  0  0  0
   -1.5999   -2.7227    1.7810 O   0  0  0  0  0  0  0  0  0  0  0  0
   -2.3659   -0.8447    0.8120 N   0  0  0  0  0  0  0  0  0  0  0  0
   -3.1749   -0.3807    0.4220 H   0  0  0  0  0  0  0  0  0  0  0  0
   -1.0919   -0.1077    0.8170 C   0  0  1  0  0  0  0  0  0  0  0  0
   -0.4136   -0.6011    1.5155 H   0  0  0  0  0  0  0  0  0  0  0  0
   -0.4834   -0.1723   -0.5965 C   0  0  0  0  0  0  0  0  0  0  0  0
    0.5651    0.1241   -0.5374 H   0  0  0  0  0  0  0  0  0  0  0  0
   -0.5260   -1.2014   -0.9587 H   0  0  0  0  0  0  0  0  0  0  0  0
   -1.1894    0.7484   -1.6036 C   0  0  0  0  0  0  0  0  0  0  0  0
   -1.9994    1.2839   -1.1066 H   0  0  0  0  0  0  0  0  0  0  0  0
   -0.4710    1.4716   -1.9944 H   0  0  0  0  0  0  0  0  0  0  0  0
   -1.7667   -0.0727   -2.7649 C   0  0  0  0  0  0  0  0  0  0  0  0
   -0.9553   -0.6194   -3.2511 H   0  0  0  0  0  0  0  0  0  0  0  0
   -2.4911   -0.7878   -2.3699 H   0  0  0  0  0  0  0  0  0  0  0  0
   -2.4504    0.8477   -3.7837 C   0  0  0  0  0  0  0  0  0  0  0  0
   -3.2538    1.3913   -3.2760 H   0  0  0  0  0  0  0  0  0  0  0  0
   -1.7189    1.5818   -4.1347 H   0  0  0  0  0  0  0  0  0  0  0  0
   -2.9977    0.0807   -4.9312 N   0  3  0  0  0  0  0  0  0  0  0  0
   -3.6832   -0.5932   -4.6137 H   0  0  0  0  0  0  0  0  0  0  0  0
   -3.4448    0.7020   -5.5938 H   0  0  0  0  0  0  0  0  0  0  0  0
   -2.2564   -0.4173   -5.4100 H   0  0  0  0  0  0  0  0  0  0  0  0
   -1.3103    1.3348    1.2791 C   0  0  0  0  0  0  0  0  0  0  0  0
   -2.2333    1.9891    0.8084 O   0  0  0  0  0  0  0  0  0  0  0  0
   -0.4429    1.8293    2.1683 N   0  0  0  0  0  0  0  0  0  0  0  0
    0.2668    1.2118    2.5263 H   0  0  0  0  0  0  0  0  0  0  0  0
   -0.5118    3.1863    2.7135 C   0  0  0  0  0  0  0  0  0  0  0  0
   -1.4470    3.3159    3.2625 H   0  0  0  0  0  0  0  0  0  0  0  0
    0.3243    3.3682    3.3896 H   0  0  0  0  0  0  0  0  0  0  0  0
   -0.4850    3.9172    1.9023 H   0  0  0  0  0  0  0  0  0  0  0  0
  5  6  2  0  0  0  0
  5  7  1  0  0  0  0
  2  3  1  0  0  0  0
  2  4  1  0  0  0  0
  2  5  1  0  0  0  0
  1  2  1  0  0  0  0
 27 28  2  0  0  0  0
 27 29  1  0  0  0  0
 23 24  1  0  0  0  0
 23 25  1  0  0  0  0
 23 26  1  0  0  0  0
 20 21  1  0  0  0  0
 20 22  1  0  0  0  0
 20 23  1  0  0  0  0
 17 18  1  0  0  0  0
 17 19  1  0  0  0  0
 17 20  1  0  0  0  0
 14 15  1  0  0  0  0
 14 16  1  0  0  0  0
 14 17  1  0  0  0  0
 11 12  1  0  0  0  0
 11 13  1  0  0  0  0
 11 14  1  0  0  0  0
  9 10  1  0  0  0  0
  9 11  1  0  0  0  0
  9 27  1  0  0  0  0
  7  8  1  0  0  0  0
  7  9  1  0  0  0  0
 31 32  1  0  0  0  0
 31 33  1  0  0  0  0
 31 34  1  0  0  0  0
 29 30  1  0  0  0  0
 29 31  1  0  0  0  0
M  CHG  1  23   1
M  END
$$$$
default_name
  -OEChem-02102213163D

 34 33  0     1  0  0  0  0  0999 V2000
   -3.8899   -3.6747    1.6490 H   0  0  0  0  0  0  0  0  0  0  0  0
   -3.9109   -2.6717    1.2250 C   0  0  0  0  0  0  0  0  0  0  0  0
   -4.6009   -2.0517    1.7950 H   0  0  0  0  0  0  0  0  0  0  0  0
   -4.2309   -2.7237    0.1860 H   0  0  0  0  0  0  0  0  0  0  0  0
   -2.5229   -2.0787    1.2980 C   0  0  0  0  0  0  0  0  0  0  0  0
   -1.5999   -2.7227    1.7810 O   0  0  0  0  0  0  0  0  0  0  0  0
   -2.3659   -0.8447    0.8120 N   0  0  0  0  0  0  0  0  0  0  0  0
   -3.1749   -0.3807    0.4220 H   0  0  0  0  0  0  0  0  0  0  0  0
   -1.0919   -0.1077    0.8170 C   0  0  1  0  0  0  0  0  0  0  0  0
   -0.4136   -0.6011    1.5155 H   0  0  0  0  0  0  0  0  0  0  0  0
   -0.4834   -0.1723   -0.5965 C   0  0  0  0  0  0  0  0  0  0  0  0
    0.5651    0.1241   -0.5374 H   0  0  0  0  0  0  0  0  0  0  0  0
   -0.5260   -1.2014   -0.9587 H   0  0  0  0  0  0  0  0  0  0  0  0
   -1.1894    0.7484   -1.6036 C   0  0  0  0  0  0  0  0  0  0  0  0
   -1.8096    1.4697   -1.0698 H   0  0  0  0  0  0  0  0  0  0  0  0
   -0.4390    1.2859   -2.1866 H   0  0  0  0  0  0  0  0  0  0  0  0
   -2.0749   -0.0740   -2.5501 C   0  0  0  0  0  0  0  0  0  0  0  0
   -1.4533   -0.8054   -3.0720 H   0  0  0  0  0  0  0  0  0  0  0  0
   -2.8290   -0.6021   -1.9632 H   0  0  0  0  0  0  0  0  0  0  0  0
   -2.7611    0.8412   -3.5719 C   0  0  0  0  0  0  0  0  0  0  0  0
   -3.3718    1.5703   -3.0296 H   0  0  0  0  0  0  0  0  0  0  0  0
   -1.9896    1.3913   -4.1192 H   0  0  0  0  0  0  0  0  0  0  0  0
   -3.6064    0.0678   -4.5163 N   0  3  0  0  0  0  0  0  0  0  0  0
   -4.3289   -0.4352   -4.0165 H   0  0  0  0  0  0  0  0  0  0  0  0
   -4.0514    0.6856   -5.1835 H   0  0  0  0  0  0  0  0  0  0  0  0
   -3.0440   -0.6026   -5.0272 H   0  0  0  0  0  0  0  0  0  0  0  0
   -1.3103    1.3348    1.2791 C   0  0  0  0  0  0  0  0  0  0  0  0
   -2.2333    1.9891    0.8084 O   0  0  0  0  0  0  0  0  0  0  0  0
   -0.4429    1.8293    2.1683 N   0  0  0  0  0  0  0  0  0  0  0  0
    0.2668    1.2118    2.5263 H   0  0  0  0  0  0  0  0  0  0  0  0
   -0.5118    3.1863    2.7135 C   0  0  0  0  0  0  0  0  0  0  0  0
   -1.4470    3.3159    3.2625 H   0  0  0  0  0  0  0  0  0  0  0  0
    0.3243    3.3682    3.3896 H   0  0  0  0  0  0  0  0  0  0  0  0
   -0.4850    3.9172    1.9023 H   0  0  0  0  0  0  0  0  0  0  0  0
  5  6  2  0  0  0  0
  5  7  1  0  0  0  0
  2  3  1  0  0  0  0
  2  4  1  0  0  0  0
  2  5  1  0  0  0  0
  1  2  1  0  0  0  0
 27 28  2  0  0  0  0
 27 29  1  0  0  0  0
 23 24  1  0  0  0  0
 23 25  1  0  0  0  0
 23 26  1  0  0  0  0
 20 21  1  0  0  0  0
 20 22  1  0  0  0  0
 20 23  1  0  0  0  0
 17 18  1  0  0  0  0
 17 19  1  0  0  0  0
 17 20  1  0  0  0  0
 14 15  1  0  0  0  0
 14 16  1  0  0  0  0
 14 17  1  0  0  0  0
 11 12  1  0  0  0  0
 11 13  1  0  0  0  0
 11 14  1  0  0  0  0
  9 10  1  0  0  0  0
  9 11  1  0  0  0  0
  9 27  1  0  0  0  0
  7  8  1  0  0  0  0
  7  9  1  0  0  0  0
 31 32  1  0  0  0  0
 31 33  1  0  0  0  0
 31 34  1  0  0  0  0
 29 30  1  0  0  0  0
 29 31  1  0  0  0  0
M  CHG  1  23   1
M  END
$$$$
default_name
  -OEChem-02102213163D

 34 33  0     1  0  0  0  0  0999 V2000
   -3.8899   -3.6747    1.6490 H   0  0  0  0  0  0  0  0  0  0  0  0
   -3.9109   -2.6717    1.2250 C   0  0  0  0  0  0  0  0  0  0  0  0
   -4.6009   -2.0517    1.7950 H   0  0  0  0  0  0  0  0  0  0  0  0
   -4.2309   -2.7237    0.1860 H   0  0  0  0  0  0  0  0  0  0  0  0
   -2.5229   -2.0787    1.2980 C   0  0  0  0  0  0  0  0  0  0  0  0
   -1.5999   -2.7227    1.7810 O   0  0  0  0  0  0  0  0  0  0  0  0
   -2.3659   -0.8447    0.8120 N   0  0  0  0  0  0  0  0  0  0  0  0
   -3.1749   -0.3807    0.4220 H   0  0  0  0  0  0  0  0  0  0  0  0
   -1.0919   -0.1077    0.8170 C   0  0  1  0  0  0  0  0  0  0  0  0
   -0.4136   -0.6011    1.5155 H   0  0  0  0  0  0  0  0  0  0  0  0
   -0.4834   -0.1723   -0.5965 C   0  0  0  0  0  0  0  0  0  0  0  0
    0.5651    0.1241   -0.5374 H   0  0  0  0  0  0  0  0  0  0  0  0
   -0.5260   -1.2014   -0.9587 H   0  0  0  0  0  0  0  0  0  0  0  0
   -1.1894    0.7484   -1.6036 C   0  0  0  0  0  0  0  0  0  0  0  0
   -1.5891    1.6213   -1.0858 H   0  0  0  0  0  0  0  0  0  0  0  0
   -0.4695    1.0783   -2.3551 H   0  0  0  0  0  0  0  0  0  0  0  0
   -2.3394    0.0026   -2.2946 C   0  0  0  0  0  0  0  0  0  0  0  0
   -1.9380   -0.8792   -2.7997 H   0  0  0  0  0  0  0  0  0  0  0  0
   -3.0609   -0.3170   -1.5400 H   0  0  0  0  0  0  0  0  0  0  0  0
   -3.0295    0.9128   -3.3183 C   0  0  0  0  0  0  0  0  0  0  0  0
   -3.4172    1.7926   -2.7945 H   0  0  0  0  0  0  0  0  0  0  0  0
   -2.2811    1.2549   -4.0394 H   0  0  0  0  0  0  0  0  0  0  0  0
   -4.1321    0.2080   -4.0195 N   0  3  0  0  0  0  0  0  0  0  0  0
   -4.8332   -0.1019   -3.3583 H   0  0  0  0  0  0  0  0  0  0  0  0
   -4.5765    0.8215   -4.6911 H   0  0  0  0  0  0  0  0  0  0  0  0
   -3.7769   -0.6025   -4.5133 H   0  0  0  0  0  0  0  0  0  0  0  0
   -1.3103    1.3348    1.2791 C   0  0  0  0  0  0  0  0  0  0  0  0
   -2.2333    1.9891    0.8084 O   0  0  0  0  0  0  0  0  0  0  0  0
   -0.4429    1.8293    2.1683 N   0  0  0  0  0  0  0  0  0  0  0  0
    0.2668    1.2118    2.5263 H   0  0  0  0  0  0  0  0  0  0  0  0
   -0.5118    3.1863    2.7135 C   0  0  0  0  0  0  0  0  0  0  0  0
   -1.4470    3.3159    3.2625 H   0  0  0  0  0  0  0  0  0  0  0  0
    0.3243    3.3682    3.3896 H   0  0  0  0  0  0  0  0  0  0  0  0
   -0.4850    3.9172    1.9023 H   0  0  0  0  0  0  0  0  0  0  0  0
  5  6  2  0  0  0  0
  5  7  1  0  0  0  0
  2  3  1  0  0  0  0
  2  4  1  0  0  0  0
  2  5  1  0  0  0  0
  1  2  1  0  0  0  0
 27 28  2  0  0  0  0
 27 29  1  0  0  0  0
 23 24  1  0  0  0  0
 23 25  1  0  0  0  0
 23 26  1  0  0  0  0
 20 21  1  0  0  0  0
 20 22  1  0  0  0  0
 20 23  1  0  0  0  0
 17 18  1  0  0  0  0
 17 19  1  0  0  0  0
 17 20  1  0  0  0  0
 14 15  1  0  0  0  0
 14 16  1  0  0  0  0
 14 17  1  0  0  0  0
 11 12  1  0  0  0  0
 11 13  1  0  0  0  0
 11 14  1  0  0  0  0
  9 10  1  0  0  0  0
  9 11  1  0  0  0  0
  9 27  1  0  0  0  0
  7  8  1  0  0  0  0
  7  9  1  0  0  0  0
 31 32  1  0  0  0  0
 31 33  1  0  0  0  0
 31 34  1  0  0  0  0
 29 30  1  0  0  0  0
 29 31  1  0  0  0  0
M  CHG  1  23   1
M  END
$$$$
default_name
  -OEChem-02102213163D

 34 33  0     1  0  0  0  0  0999 V2000
   -3.8899   -3.6747    1.6490 H   0  0  0  0  0  0  0  0  0  0  0  0
   -3.9109   -2.6717    1.2250 C   0  0  0  0  0  0  0  0  0  0  0  0
   -4.6009   -2.0517    1.7950 H   0  0  0  0  0  0  0  0  0  0  0  0
   -4.2309   -2.7237    0.1860 H   0  0  0  0  0  0  0  0  0  0  0  0
   -2.5229   -2.0787    1.2980 C   0  0  0  0  0  0  0  0  0  0  0  0
   -1.5999   -2.7227    1.7810 O   0  0  0  0  0  0  0  0  0  0  0  0
   -2.3659   -0.8447    0.8120 N   0  0  0  0  0  0  0  0  0  0  0  0
   -3.1749   -0.3807    0.4220 H   0  0  0  0  0  0  0  0  0  0  0  0
   -1.0919   -0.1077    0.8170 C   0  0  1  0  0  0  0  0  0  0  0  0
   -0.4136   -0.6011    1.5155 H   0  0  0  0  0  0  0  0  0  0  0  0
   -0.4834   -0.1723   -0.5965 C   0  0  0  0  0  0  0  0  0  0  0  0
    0.5651    0.1241   -0.5374 H   0  0  0  0  0  0  0  0  0  0  0  0
   -0.5260   -1.2014   -0.9587 H   0  0  0  0  0  0  0  0  0  0  0  0
   -1.1894    0.7484   -1.6036 C   0  0  0  0  0  0  0  0  0  0  0  0
   -1.3528    1.7285   -1.1535 H   0  0  0  0  0  0  0  0  0  0  0  0
   -0.5602    0.8628   -2.4884 H   0  0  0  0  0  0  0  0  0  0  0  0
   -2.5423    0.1518   -2.0159 C   0  0  0  0  0  0  0  0  0  0  0  0
   -2.3766   -0.8359   -2.4526 H   0  0  0  0  0  0  0  0  0  0  0  0
   -3.1708    0.0481   -1.1292 H   0  0  0  0  0  0  0  0  0  0  0  0
   -3.2372    1.0577   -3.0402 C   0  0  0  0  0  0  0  0  0  0  0  0
   -3.3869    2.0430   -2.5869 H   0  0  0  0  0  0  0  0  0  0  0  0
   -2.5733    1.1822   -3.9010 H   0  0  0  0  0  0  0  0  0  0  0  0
   -4.5392    0.4916   -3.4749 N   0  3  0  0  0  0  0  0  0  0  0  0
   -5.1617    0.3838   -2.6839 H   0  0  0  0  0  0  0  0  0  0  0  0
   -4.9843    1.1005   -4.1502 H   0  0  0  0  0  0  0  0  0  0  0  0
   -4.4050   -0.4169   -3.9032 H   0  0  0  0  0  0  0  0  0  0  0  0
   -1.3103    1.3348    1.2791 C   0  0  0  0  0  0  0  0  0  0  0  0
   -2.2333    1.9891    0.8084 O   0  0  0  0  0  0  0  0  0  0  0  0
   -0.4429    1.8293    2.1683 N   0  0  0  0  0  0  0  0  0  0  0  0
    0.2668    1.2118    2.5263 H   0  0  0  0  0  0  0  0  0  0  0  0
   -0.5118    3.1863    2.7135 C   0  0  0  0  0  0  0  0  0  0  0  0
   -1.4470    3.3159    3.2625 H   0  0  0  0  0  0  0  0  0  0  0  0
    0.3243    3.3682    3.3896 H   0  0  0  0  0  0  0  0  0  0  0  0
   -0.4850    3.9172    1.9023 H   0  0  0  0  0  0  0  0  0  0  0  0
  5  6  2  0  0  0  0
  5  7  1  0  0  0  0
  2  3  1  0  0  0  0
  2  4  1  0  0  0  0
  2  5  1  0  0  0  0
  1  2  1  0  0  0  0
 27 28  2  0  0  0  0
 27 29  1  0  0  0  0
 23 24  1  0  0  0  0
 23 25  1  0  0  0  0
 23 26  1  0  0  0  0
 20 21  1  0  0  0  0
 20 22  1  0  0  0  0
 20 23  1  0  0  0  0
 17 18  1  0  0  0  0
 17 19  1  0  0  0  0
 17 20  1  0  0  0  0
 14 15  1  0  0  0  0
 14 16  1  0  0  0  0
 14 17  1  0  0  0  0
 11 12  1  0  0  0  0
 11 13  1  0  0  0  0
 11 14  1  0  0  0  0
  9 10  1  0  0  0  0
  9 11  1  0  0  0  0
  9 27  1  0  0  0  0
  7  8  1  0  0  0  0
  7  9  1  0  0  0  0
 31 32  1  0  0  0  0
 31 33  1  0  0  0  0
 31 34  1  0  0  0  0
 29 30  1  0  0  0  0
 29 31  1  0  0  0  0
M  CHG  1  23   1
M  END
$$$$
default_name
  -OEChem-02102213163D

 34 33  0     1  0  0  0  0  0999 V2000
   -3.8899   -3.6747    1.6490 H   0  0  0  0  0  0  0  0  0  0  0  0
   -3.9109   -2.6717    1.2250 C   0  0  0  0  0  0  0  0  0  0  0  0
   -4.6009   -2.0517    1.7950 H   0  0  0  0  0  0  0  0  0  0  0  0
   -4.2309   -2.7237    0.1860 H   0  0  0  0  0  0  0  0  0  0  0  0
   -2.5229   -2.0787    1.2980 C   0  0  0  0  0  0  0  0  0  0  0  0
   -1.5999   -2.7227    1.7810 O   0  0  0  0  0  0  0  0  0  0  0  0
   -2.3659   -0.8447    0.8120 N   0  0  0  0  0  0  0  0  0  0  0  0
   -3.1749   -0.3807    0.4220 H   0  0  0  0  0  0  0  0  0  0  0  0
   -1.0919   -0.1077    0.8170 C   0  0  1  0  0  0  0  0  0  0  0  0
   -0.4136   -0.6011    1.5155 H   0  0  0  0  0  0  0  0  0  0  0  0
   -0.4834   -0.1723   -0.5965 C   0  0  0  0  0  0  0  0  0  0  0  0
    0.5651    0.1241   -0.5374 H   0  0  0  0  0  0  0  0  0  0  0  0
   -0.5260   -1.2014   -0.9587 H   0  0  0  0  0  0  0  0  0  0  0  0
   -1.1894    0.7484   -1.6036 C   0  0  0  0  0  0  0  0  0  0  0  0
   -1.1169    1.7838   -1.2683 H   0  0  0  0  0  0  0  0  0  0  0  0
   -0.7051    0.6543   -2.5775 H   0  0  0  0  0  0  0  0  0  0  0  0
   -2.6697    0.3636   -1.7331 C   0  0  0  0  0  0  0  0  0  0  0  0
   -2.7390   -0.6784   -2.0545 H   0  0  0  0  0  0  0  0  0  0  0  0
   -3.1513    0.4682   -0.7588 H   0  0  0  0  0  0  0  0  0  0  0  0
   -3.3701    1.2659   -2.7566 C   0  0  0  0  0  0  0  0  0  0  0  0
   -3.2830    2.3043   -2.4208 H   0  0  0  0  0  0  0  0  0  0  0  0
   -2.8465    1.1780   -3.7134 H   0  0  0  0  0  0  0  0  0  0  0  0
   -4.7997    0.8994   -2.9194 N   0  3  0  0  0  0  0  0  0  0  0  0
   -5.2920    0.9889   -2.0394 H   0  0  0  0  0  0  0  0  0  0  0  0
   -5.2470    1.5034   -3.5977 H   0  0  0  0  0  0  0  0  0  0  0  0
   -4.8856   -0.0585   -3.2386 H   0  0  0  0  0  0  0  0  0  0  0  0
   -1.3103    1.3348    1.2791 C   0  0  0  0  0  0  0  0  0  0  0  0
   -2.2333    1.9891    0.8084 O   0  0  0  0  0  0  0  0  0  0  0  0
   -0.4429    1.8293    2.1683 N   0  0  0  0  0  0  0  0  0  0  0  0
    0.2668    1.2118    2.5263 H   0  0  0  0  0  0  0  0  0  0  0  0
   -0.5118    3.1863    2.7135 C   0  0  0  0  0  0  0  0  0  0  0  0
   -1.4470    3.3159    3.2625 H   0  0  0  0  0  0  0  0  0  0  0  0
    0.3243    3.3682    3.3896 H   0  0  0  0  0  0  0  0  0  0  0  0
   -0.4850    3.9172    1.9023 H   0  0  0  0  0  0  0  0  0  0  0  0
  5  6  2  0  0  0  0
  5  7  1  0  0  0  0
  2  3  1  0  0  0  0
  2  4  1  0  0  0  0
  2  5  1  0  0  0  0
  1  2  1  0  0  0  0
 27 28  2  0  0  0  0
 27 29  1  0  0  0  0
 23 24  1  0  0  0  0
 23 25  1  0  0  0  0
 23 26  1  0  0  0  0
 20 21  1  0  0  0  0
 20 22  1  0  0  0  0
 20 23  1  0  0  0  0
 17 18  1  0  0  0  0
 17 19  1  0  0  0  0
 17 20  1  0  0  0  0
 14 15  1  0  0  0  0
 14 16  1  0  0  0  0
 14 17  1  0  0  0  0
 11 12  1  0  0  0  0
 11 13  1  0  0  0  0
 11 14  1  0  0  0  0
  9 10  1  0  0  0  0
  9 11  1  0  0  0  0
  9 27  1  0  0  0  0
  7  8  1  0  0  0  0
  7  9  1  0  0  0  0
 31 32  1  0  0  0  0
 31 33  1  0  0  0  0
 31 34  1  0  0  0  0
 29 30  1  0  0  0  0
 29 31  1  0  0  0  0
M  CHG  1  23   1
M  END
$$$$
default_name
  -OEChem-02102213163D

 34 33  0     1  0  0  0  0  0999 V2000
   -3.8899   -3.6747    1.6490 H   0  0  0  0  0  0  0  0  0  0  0  0
   -3.9109   -2.6717    1.2250 C   0  0  0  0  0  0  0  0  0  0  0  0
   -4.6009   -2.0517    1.7950 H   0  0  0  0  0  0  0  0  0  0  0  0
   -4.2309   -2.7237    0.1860 H   0  0  0  0  0  0  0  0  0  0  0  0
   -2.5229   -2.0787    1.2980 C   0  0  0  0  0  0  0  0  0  0  0  0
   -1.5999   -2.7227    1.7810 O   0  0  0  0  0  0  0  0  0  0  0  0
   -2.3659   -0.8447    0.8120 N   0  0  0  0  0  0  0  0  0  0  0  0
   -3.1749   -0.3807    0.4220 H   0  0  0  0  0  0  0  0  0  0  0  0
   -1.0919   -0.1077    0.8170 C   0  0  1  0  0  0  0  0  0  0  0  0
   -0.4136   -0.6011    1.5155 H   0  0  0  0  0  0  0  0  0  0  0  0
   -0.4834   -0.1723   -0.5965 C   0  0  0  0  0  0  0  0  0  0  0  0
    0.5651    0.1241   -0.5374 H   0  0  0  0  0  0  0  0  0  0  0  0
   -0.5260   -1.2014   -0.9587 H   0  0  0  0  0  0  0  0  0  0  0  0
   -1.1894    0.7484   -1.6036 C   0  0  0  0  0  0  0  0  0  0  0  0
   -0.8975    1.7836   -1.4223 H   0  0  0  0  0  0  0  0  0  0  0  0
   -0.8942    0.4668   -2.6162 H   0  0  0  0  0  0  0  0  0  0  0  0
   -2.7130    0.6233   -1.4652 C   0  0  0  0  0  0  0  0  0  0  0  0
   -3.0006   -0.4174   -1.6325 H   0  0  0  0  0  0  0  0  0  0  0  0
   -3.0038    0.9147   -0.4540 H   0  0  0  0  0  0  0  0  0  0  0  0
   -3.4193    1.5233   -2.4869 C   0  0  0  0  0  0  0  0  0  0  0  0
   -3.1125    2.5589   -2.3076 H   0  0  0  0  0  0  0  0  0  0  0  0
   -3.0820    1.2426   -3.4892 H   0  0  0  0  0  0  0  0  0  0  0  0
   -4.8961    1.4036   -2.3909 N   0  3  0  0  0  0  0  0  0  0  0  0
   -5.2153    1.6722   -1.4685 H   0  0  0  0  0  0  0  0  0  0  0  0
   -5.3467    2.0029   -3.0712 H   0  0  0  0  0  0  0  0  0  0  0  0
   -5.1859    0.4483   -2.5648 H   0  0  0  0  0  0  0  0  0  0  0  0
   -1.3103    1.3348    1.2791 C   0  0  0  0  0  0  0  0  0  0  0  0
   -2.2333    1.9891    0.8084 O   0  0  0  0  0  0  0  0  0  0  0  0
   -0.4429    1.8293    2.1683 N   0  0  0  0  0  0  0  0  0  0  0  0
    0.2668    1.2118    2.5263 H   0  0  0  0  0  0  0  0  0  0  0  0
   -0.5118    3.1863    2.7135 C   0  0  0  0  0  0  0  0  0  0  0  0
   -1.4470    3.3159    3.2625 H   0  0  0  0  0  0  0  0  0  0  0  0
    0.3243    3.3682    3.3896 H   0  0  0  0  0  0  0  0  0  0  0  0
   -0.4850    3.9172    1.9023 H   0  0  0  0  0  0  0  0  0  0  0  0
  5  6  2  0  0  0  0
  5  7  1  0  0  0  0
  2  3  1  0  0  0  0
  2  4  1  0  0  0  0
  2  5  1  0  0  0  0
  1  2  1  0  0  0  0
 27 28  2  0  0  0  0
 27 29  1  0  0  0  0
 23 24  1  0  0  0  0
 23 25  1  0  0  0  0
 23 26  1  0  0  0  0
 20 21  1  0  0  0  0
 20 22  1  0  0  0  0
 20 23  1  0  0  0  0
 17 18  1  0  0  0  0
 17 19  1  0  0  0  0
 17 20  1  0  0  0  0
 14 15  1  0  0  0  0
 14 16  1  0  0  0  0
 14 17  1  0  0  0  0
 11 12  1  0  0  0  0
 11 13  1  0  0  0  0
 11 14  1  0  0  0  0
  9 10  1  0  0  0  0
  9 11  1  0  0  0  0
  9 27  1  0  0  0  0
  7  8  1  0  0  0  0
  7  9  1  0  0  0  0
 31 32  1  0  0  0  0
 31 33  1  0  0  0  0
 31 34  1  0  0  0  0
 29 30  1  0  0  0  0
 29 31  1  0  0  0  0
M  CHG  1  23   1
M  END
$$$$
default_name
  -OEChem-02102213163D

 34 33  0     1  0  0  0  0  0999 V2000
   -3.8899   -3.6747    1.6490 H   0  0  0  0  0  0  0  0  0  0  0  0
   -3.9109   -2.6717    1.2250 C   0  0  0  0  0  0  0  0  0  0  0  0
   -4.6009   -2.0517    1.7950 H   0  0  0  0  0  0  0  0  0  0  0  0
   -4.2309   -2.7237    0.1860 H   0  0  0  0  0  0  0  0  0  0  0  0
   -2.5229   -2.0787    1.2980 C   0  0  0  0  0  0  0  0  0  0  0  0
   -1.5999   -2.7227    1.7810 O   0  0  0  0  0  0  0  0  0  0  0  0
   -2.3659   -0.8447    0.8120 N   0  0  0  0  0  0  0  0  0  0  0  0
   -3.1749   -0.3807    0.4220 H   0  0  0  0  0  0  0  0  0  0  0  0
   -1.0919   -0.1077    0.8170 C   0  0  1  0  0  0  0  0  0  0  0  0
   -0.4136   -0.6011    1.5155 H   0  0  0  0  0  0  0  0  0  0  0  0
   -0.4834   -0.1723   -0.5965 C   0  0  0  0  0  0  0  0  0  0  0  0
    0.5651    0.1241   -0.5374 H   0  0  0  0  0  0  0  0  0  0  0  0
   -0.5260   -1.2014   -0.9587 H   0  0  0  0  0  0  0  0  0  0  0  0
   -1.1894    0.7484   -1.6036 C   0  0  0  0  0  0  0  0  0  0  0  0
   -0.7094    1.7279   -1.6051 H   0  0  0  0  0  0  0  0  0  0  0  0
   -1.1147    0.3132   -2.6021 H   0  0  0  0  0  0  0  0  0  0  0  0
   -2.6692    0.9134   -1.2307 C   0  0  0  0  0  0  0  0  0  0  0  0
   -3.1435   -0.0708   -1.2154 H   0  0  0  0  0  0  0  0  0  0  0  0
   -2.7383    1.3573   -0.2356 H   0  0  0  0  0  0  0  0  0  0  0  0
   -3.3812    1.8124   -2.2493 C   0  0  0  0  0  0  0  0  0  0  0  0
   -2.8870    2.7894   -2.2550 H   0  0  0  0  0  0  0  0  0  0  0  0
   -3.2637    1.3716   -3.2439 H   0  0  0  0  0  0  0  0  0  0  0  0
   -4.8216    1.9699   -1.9255 N   0  3  0  0  0  0  0  0  0  0  0  0
   -4.9367    2.3871   -1.0103 H   0  0  0  0  0  0  0  0  0  0  0  0
   -5.2766    2.5649   -2.6065 H   0  0  0  0  0  0  0  0  0  0  0  0
   -5.2856    1.0690   -1.9275 H   0  0  0  0  0  0  0  0  0  0  0  0
   -1.3103    1.3348    1.2791 C   0  0  0  0  0  0  0  0  0  0  0  0
   -2.2333    1.9891    0.8084 O   0  0  0  0  0  0  0  0  0  0  0  0
   -0.4429    1.8293    2.1683 N   0  0  0  0  0  0  0  0  0  0  0  0
    0.2668    1.2118    2.5263 H   0  0  0  0  0  0  0  0  0  0  0  0
   -0.5118    3.1863    2.7135 C   0  0  0  0  0  0  0  0  0  0  0  0
   -1.4470    3.3159    3.2625 H   0  0  0  0  0  0  0  0  0  0  0  0
    0.3243    3.3682    3.3896 H   0  0  0  0  0  0  0  0  0  0  0  0
   -0.4850    3.9172    1.9023 H   0  0  0  0  0  0  0  0  0  0  0  0
  5  6  2  0  0  0  0
  5  7  1  0  0  0  0
  2  3  1  0  0  0  0
  2  4  1  0  0  0  0
  2  5  1  0  0  0  0
  1  2  1  0  0  0  0
 27 28  2  0  0  0  0
 27 29  1  0  0  0  0
 23 24  1  0  0  0  0
 23 25  1  0  0  0  0
 23 26  1  0  0  0  0
 20 21  1  0  0  0  0
 20 22  1  0  0  0  0
 20 23  1  0  0  0  0
 17 18  1  0  0  0  0
 17 19  1  0  0  0  0
 17 20  1  0  0  0  0
 14 15  1  0  0  0  0
 14 16  1  0  0  0  0
 14 17  1  0  0  0  0
 11 12  1  0  0  0  0
 11 13  1  0  0  0  0
 11 14  1  0  0  0  0
  9 10  1  0  0  0  0
  9 11  1  0  0  0  0
  9 27  1  0  0  0  0
  7  8  1  0  0  0  0
  7  9  1  0  0  0  0
 31 32  1  0  0  0  0
 31 33  1  0  0  0  0
 31 34  1  0  0  0  0
 29 30  1  0  0  0  0
 29 31  1  0  0  0  0
M  CHG  1  23   1
M  END
$$$$
default_name
  -OEChem-02102213163D

 34 33  0     1  0  0  0  0  0999 V2000
   -3.8899   -3.6747    1.6490 H   0  0  0  0  0  0  0  0  0  0  0  0
   -3.9109   -2.6717    1.2250 C   0  0  0  0  0  0  0  0  0  0  0  0
   -4.6009   -2.0517    1.7950 H   0  0  0  0  0  0  0  0  0  0  0  0
   -4.2309   -2.7237    0.1860 H   0  0  0  0  0  0  0  0  0  0  0  0
   -2.5229   -2.0787    1.2980 C   0  0  0  0  0  0  0  0  0  0  0  0
   -1.5999   -2.7227    1.7810 O   0  0  0  0  0  0  0  0  0  0  0  0
   -2.3659   -0.8447    0.8120 N   0  0  0  0  0  0  0  0  0  0  0  0
   -3.1749   -0.3807    0.4220 H   0  0  0  0  0  0  0  0  0  0  0  0
   -1.0919   -0.1077    0.8170 C   0  0  1  0  0  0  0  0  0  0  0  0
   -0.4136   -0.6011    1.5155 H   0  0  0  0  0  0  0  0  0  0  0  0
   -0.4834   -0.1723   -0.5965 C   0  0  0  0  0  0  0  0  0  0  0  0
    0.5651    0.1241   -0.5374 H   0  0  0  0  0  0  0  0  0  0  0  0
   -0.5260   -1.2014   -0.9587 H   0  0  0  0  0  0  0  0  0  0  0  0
   -1.1894    0.7484   -1.6036 C   0  0  0  0  0  0  0  0  0  0  0  0
   -0.5656    1.6204   -1.8042 H   0  0  0  0  0  0  0  0  0  0  0  0
   -1.3516    0.2039   -2.5359 H   0  0  0  0  0  0  0  0  0  0  0  0
   -2.5413    1.2141   -1.0455 C   0  0  0  0  0  0  0  0  0  0  0  0
   -3.1581    0.3380   -0.8315 H   0  0  0  0  0  0  0  0  0  0  0  0
   -2.3728    1.7657   -0.1184 H   0  0  0  0  0  0  0  0  0  0  0  0
   -3.2585    2.1134   -2.0601 C   0  0  0  0  0  0  0  0  0  0  0  0
   -2.6220    2.9800   -2.2666 H   0  0  0  0  0  0  0  0  0  0  0  0
   -3.3793    1.5562   -2.9940 H   0  0  0  0  0  0  0  0  0  0  0  0
   -4.5814    2.5595   -1.5548 N   0  3  0  0  0  0  0  0  0  0  0  0
   -4.4752    3.0849   -0.6960 H   0  0  0  0  0  0  0  0  0  0  0  0
   -5.0414    3.1511   -2.2355 H   0  0  0  0  0  0  0  0  0  0  0  0
   -5.1776    1.7612   -1.3704 H   0  0  0  0  0  0  0  0  0  0  0  0
   -1.3103    1.3348    1.2791 C   0  0  0  0  0  0  0  0  0  0  0  0
   -2.2333    1.9891    0.8084 O   0  0  0  0  0  0  0  0  0  0  0  0
   -0.4429    1.8293    2.1683 N   0  0  0  0  0  0  0  0  0  0  0  0
    0.2668    1.2118    2.5263 H   0  0  0  0  0  0  0  0  0  0  0  0
   -0.5118    3.1863    2.7135 C   0  0  0  0  0  0  0  0  0  0  0  0
   -1.4470    3.3159    3.2625 H   0  0  0  0  0  0  0  0  0  0  0  0
    0.3243    3.3682    3.3896 H   0  0  0  0  0  0  0  0  0  0  0  0
   -0.4850    3.9172    1.9023 H   0  0  0  0  0  0  0  0  0  0  0  0
  5  6  2  0  0  0  0
  5  7  1  0  0  0  0
  2  3  1  0  0  0  0
  2  4  1  0  0  0  0
  2  5  1  0  0  0  0
  1  2  1  0  0  0  0
 27 28  2  0  0  0  0
 27 29  1  0  0  0  0
 23 24  1  0  0  0  0
 23 25  1  0  0  0  0
 23 26  1  0  0  0  0
 20 21  1  0  0  0  0
 20 22  1  0  0  0  0
 20 23  1  0  0  0  0
 17 18  1  0  0  0  0
 17 19  1  0  0  0  0
 17 20  1  0  0  0  0
 14 15  1  0  0  0  0
 14 16  1  0  0  0  0
 14 17  1  0  0  0  0
 11 12  1  0  0  0  0
 11 13  1  0  0  0  0
 11 14  1  0  0  0  0
  9 10  1  0  0  0  0
  9 11  1  0  0  0  0
  9 27  1  0  0  0  0
  7  8  1  0  0  0  0
  7  9  1  0  0  0  0
 31 32  1  0  0  0  0
 31 33  1  0  0  0  0
 31 34  1  0  0  0  0
 29 30  1  0  0  0  0
 29 31  1  0  0  0  0
M  CHG  1  23   1
M  END
$$$$
default_name
  -OEChem-02102213163D

 34 33  0     1  0  0  0  0  0999 V2000
   -3.8899   -3.6747    1.6490 H   0  0  0  0  0  0  0  0  0  0  0  0
   -3.9109   -2.6717    1.2250 C   0  0  0  0  0  0  0  0  0  0  0  0
   -4.6009   -2.0517    1.7950 H   0  0  0  0  0  0  0  0  0  0  0  0
   -4.2309   -2.7237    0.1860 H   0  0  0  0  0  0  0  0  0  0  0  0
   -2.5229   -2.0787    1.2980 C   0  0  0  0  0  0  0  0  0  0  0  0
   -1.5999   -2.7227    1.7810 O   0  0  0  0  0  0  0  0  0  0  0  0
   -2.3659   -0.8447    0.8120 N   0  0  0  0  0  0  0  0  0  0  0  0
   -3.1749   -0.3807    0.4220 H   0  0  0  0  0  0  0  0  0  0  0  0
   -1.0919   -0.1077    0.8170 C   0  0  1  0  0  0  0  0  0  0  0  0
   -0.4136   -0.6011    1.5155 H   0  0  0  0  0  0  0  0  0  0  0  0
   -0.4834   -0.1723   -0.5965 C   0  0  0  0  0  0  0  0  0  0  0  0
    0.5651    0.1241   -0.5374 H   0  0  0  0  0  0  0  0  0  0  0  0
   -0.5260   -1.2014   -0.9587 H   0  0  0  0  0  0  0  0  0  0  0  0
   -1.1894    0.7484   -1.6036 C   0  0  0  0  0  0  0  0  0  0  0  0
   -0.4757    1.4685   -2.0061 H   0  0  0  0  0  0  0  0  0  0  0  0
   -1.5887    0.1465   -2.4222 H   0  0  0  0  0  0  0  0  0  0  0  0
   -2.3380    1.5049   -0.9221 C   0  0  0  0  0  0  0  0  0  0  0  0
   -3.0433    0.7809   -0.5071 H   0  0  0  0  0  0  0  0  0  0  0  0
   -1.9324    2.1122   -0.1105 H   0  0  0  0  0  0  0  0  0  0  0  0
   -3.0596    2.4059   -1.9322 C   0  0  0  0  0  0  0  0  0  0  0  0
   -2.3355    3.1178   -2.3415 H   0  0  0  0  0  0  0  0  0  0  0  0
   -3.4209    1.7839   -2.7567 H   0  0  0  0  0  0  0  0  0  0  0  0
   -4.1919    3.1324   -1.3041 N   0  3  0  0  0  0  0  0  0  0  0  0
   -3.8623    3.7179   -0.5469 H   0  0  0  0  0  0  0  0  0  0  0  0
   -4.6573    3.7216   -1.9832 H   0  0  0  0  0  0  0  0  0  0  0  0
   -4.8696    2.4777   -0.9313 H   0  0  0  0  0  0  0  0  0  0  0  0
   -1.3103    1.3348    1.2791 C   0  0  0  0  0  0  0  0  0  0  0  0
   -2.2333    1.9891    0.8084 O   0  0  0  0  0  0  0  0  0  0  0  0
   -0.4429    1.8293    2.1683 N   0  0  0  0  0  0  0  0  0  0  0  0
    0.2668    1.2118    2.5263 H   0  0  0  0  0  0  0  0  0  0  0  0
   -0.5118    3.1863    2.7135 C   0  0  0  0  0  0  0  0  0  0  0  0
   -1.4470    3.3159    3.2625 H   0  0  0  0  0  0  0  0  0  0  0  0
    0.3243    3.3682    3.3896 H   0  0  0  0  0  0  0  0  0  0  0  0
   -0.4850    3.9172    1.9023 H   0  0  0  0  0  0  0  0  0  0  0  0
  5  6  2  0  0  0  0
  5  7  1  0  0  0  0
  2  3  1  0  0  0  0
  2  4  1  0  0  0  0
  2  5  1  0  0  0  0
  1  2  1  0  0  0  0
 27 28  2  0  0  0  0
 27 29  1  0  0  0  0
 23 24  1  0  0  0  0
 23 25  1  0  0  0  0
 23 26  1  0  0  0  0
 20 21  1  0  0  0  0
 20 22  1  0  0  0  0
 20 23  1  0  0  0  0
 17 18  1  0  0  0  0
 17 19  1  0  0  0  0
 17 20  1  0  0  0  0
 14 15  1  0  0  0  0
 14 16  1  0  0  0  0
 14 17  1  0  0  0  0
 11 12  1  0  0  0  0
 11 13  1  0  0  0  0
 11 14  1  0  0  0  0
  9 10  1  0  0  0  0
  9 11  1  0  0  0  0
  9 27  1  0  0  0  0
  7  8  1  0  0  0  0
  7  9  1  0  0  0  0
 31 32  1  0  0  0  0
 31 33  1  0  0  0  0
 31 34  1  0  0  0  0
 29 30  1  0  0  0  0
 29 31  1  0  0  0  0
M  CHG  1  23   1
M  END
$$$$
default_name
  -OEChem-02102213163D

 34 33  0     1  0  0  0  0  0999 V2000
   -3.8899   -3.6747    1.6490 H   0  0  0  0  0  0  0  0  0  0  0  0
   -3.9109   -2.6717    1.2250 C   0  0  0  0  0  0  0  0  0  0  0  0
   -4.6009   -2.0517    1.7950 H   0  0  0  0  0  0  0  0  0  0  0  0
   -4.2309   -2.7237    0.1860 H   0  0  0  0  0  0  0  0  0  0  0  0
   -2.5229   -2.0787    1.2980 C   0  0  0  0  0  0  0  0  0  0  0  0
   -1.5999   -2.7227    1.7810 O   0  0  0  0  0  0  0  0  0  0  0  0
   -2.3659   -0.8447    0.8120 N   0  0  0  0  0  0  0  0  0  0  0  0
   -3.1749   -0.3807    0.4220 H   0  0  0  0  0  0  0  0  0  0  0  0
   -1.0919   -0.1077    0.8170 C   0  0  1  0  0  0  0  0  0  0  0  0
   -0.4136   -0.6011    1.5155 H   0  0  0  0  0  0  0  0  0  0  0  0
   -0.4834   -0.1723   -0.5965 C   0  0  0  0  0  0  0  0  0  0  0  0
    0.5651    0.1241   -0.5374 H   0  0  0  0  0  0  0  0  0  0  0  0
   -0.5260   -1.2014   -0.9587 H   0  0  0  0  0  0  0  0  0  0  0  0
   -1.1894    0.7484   -1.6036 C   0  0  0  0  0  0  0  0  0  0  0  0
   -0.4461    1.2825   -2.1969 H   0  0  0  0  0  0  0  0  0  0  0  0
   -1.8098    0.1447   -2.2689 H   0  0  0  0  0  0  0  0  0  0  0  0
   -2.0732    1.7660   -0.8691 C   0  0  0  0  0  0  0  0  0  0  0  0
   -2.8069    1.2279   -0.2642 H   0  0  0  0  0  0  0  0  0  0  0  0
   -1.4469    2.3730   -0.2124 H   0  0  0  0  0  0  0  0  0  0  0  0
   -2.7980    2.6698   -1.8743 C   0  0  0  0  0  0  0  0  0  0  0  0
   -2.0469    3.1933   -2.4747 H   0  0  0  0  0  0  0  0  0  0  0  0
   -3.3857    2.0391   -2.5482 H   0  0  0  0  0  0  0  0  0  0  0  0
   -3.6796    3.6496   -1.1905 N   0  3  0  0  0  0  0  0  0  0  0  0
   -3.1398    4.2432   -0.5733 H   0  0  0  0  0  0  0  0  0  0  0  0
   -4.1503    4.2375   -1.8670 H   0  0  0  0  0  0  0  0  0  0  0  0
   -4.3823    3.1698   -0.6402 H   0  0  0  0  0  0  0  0  0  0  0  0
   -1.3103    1.3348    1.2791 C   0  0  0  0  0  0  0  0  0  0  0  0
   -2.2333    1.9891    0.8084 O   0  0  0  0  0  0  0  0  0  0  0  0
   -0.4429    1.8293    2.1683 N   0  0  0  0  0  0  0  0  0  0  0  0
    0.2668    1.2118    2.5263 H   0  0  0  0  0  0  0  0  0  0  0  0
   -0.5118    3.1863    2.7135 C   0  0  0  0  0  0  0  0  0  0  0  0
   -1.4470    3.3159    3.2625 H   0  0  0  0  0  0  0  0  0  0  0  0
    0.3243    3.3682    3.3896 H   0  0  0  0  0  0  0  0  0  0  0  0
   -0.4850    3.9172    1.9023 H   0  0  0  0  0  0  0  0  0  0  0  0
  5  6  2  0  0  0  0
  5  7  1  0  0  0  0
  2  3  1  0  0  0  0
  2  4  1  0  0  0  0
  2  5  1  0  0  0  0
  1  2  1  0  0  0  0
 27 28  2  0  0  0  0
 27 29  1  0  0  0  0
 23 24  1  0  0  0  0
 23 25  1  0  0  0  0
 23 26  1  0  0  0  0
 20 21  1  0  0  0  0
 20 22  1  0  0  0  0
 20 23  1  0  0  0  0
 17 18  1  0  0  0  0
 17 19  1  0  0  0  0
 17 20  1  0  0  0  0
 14 15  1  0  0  0  0
 14 16  1  0  0  0  0
 14 17  1  0  0  0  0
 11 12  1  0  0  0  0
 11 13  1  0  0  0  0
 11 14  1  0  0  0  0
  9 10  1  0  0  0  0
  9 11  1  0  0  0  0
  9 27  1  0  0  0  0
  7  8  1  0  0  0  0
  7  9  1  0  0  0  0
 31 32  1  0  0  0  0
 31 33  1  0  0  0  0
 31 34  1  0  0  0  0
 29 30  1  0  0  0  0
 29 31  1  0  0  0  0
M  CHG  1  23   1
M  END
$$$$
default_name
  -OEChem-02102213163D

 34 33  0     1  0  0  0  0  0999 V2000
   -3.8899   -3.6747    1.6490 H   0  0  0  0  0  0  0  0  0  0  0  0
   -3.9109   -2.6717    1.2250 C   0  0  0  0  0  0  0  0  0  0  0  0
   -4.6009   -2.0517    1.7950 H   0  0  0  0  0  0  0  0  0  0  0  0
   -4.2309   -2.7237    0.1860 H   0  0  0  0  0  0  0  0  0  0  0  0
   -2.5229   -2.0787    1.2980 C   0  0  0  0  0  0  0  0  0  0  0  0
   -1.5999   -2.7227    1.7810 O   0  0  0  0  0  0  0  0  0  0  0  0
   -2.3659   -0.8447    0.8120 N   0  0  0  0  0  0  0  0  0  0  0  0
   -3.1749   -0.3807    0.4220 H   0  0  0  0  0  0  0  0  0  0  0  0
   -1.0919   -0.1077    0.8170 C   0  0  1  0  0  0  0  0  0  0  0  0
   -0.4136   -0.6011    1.5155 H   0  0  0  0  0  0  0  0  0  0  0  0
   -0.4834   -0.1723   -0.5965 C   0  0  0  0  0  0  0  0  0  0  0  0
    0.5651    0.1241   -0.5374 H   0  0  0  0  0  0  0  0  0  0  0  0
   -0.5260   -1.2014   -0.9587 H   0  0  0  0  0  0  0  0  0  0  0  0
   -1.1894    0.7484   -1.6036 C   0  0  0  0  0  0  0  0  0  0  0  0
   -0.4786    1.0751   -2.3637 H   0  0  0  0  0  0  0  0  0  0  0  0
   -1.9999    0.1987   -2.0862 H   0  0  0  0  0  0  0  0  0  0  0  0
   -1.7649    1.9795   -0.8901 C   0  0  0  0  0  0  0  0  0  0  0  0
   -2.4651    1.6484   -0.1194 H   0  0  0  0  0  0  0  0  0  0  0  0
   -0.9495    2.5305   -0.4171 H   0  0  0  0  0  0  0  0  0  0  0  0
   -2.4916    2.8873   -1.8903 C   0  0  0  0  0  0  0  0  0  0  0  0
   -1.7761    3.2015   -2.6571 H   0  0  0  0  0  0  0  0  0  0  0  0
   -3.2760    2.3044   -2.3825 H   0  0  0  0  0  0  0  0  0  0  0  0
   -3.0794    4.0756   -1.2218 N   0  3  0  0  0  0  0  0  0  0  0  0
   -2.3569    4.6248   -0.7733 H   0  0  0  0  0  0  0  0  0  0  0  0
   -3.5551    4.6636   -1.8948 H   0  0  0  0  0  0  0  0  0  0  0  0
   -3.7491    3.7903   -0.5169 H   0  0  0  0  0  0  0  0  0  0  0  0
   -1.3103    1.3348    1.2791 C   0  0  0  0  0  0  0  0  0  0  0  0
   -2.2333    1.9891    0.8084 O   0  0  0  0  0  0  0  0  0  0  0  0
   -0.4429    1.8293    2.1683 N   0  0  0  0  0  0  0  0  0  0  0  0
    0.2668    1.2118    2.5263 H   0  0  0  0  0  0  0  0  0  0  0  0
   -0.5118    3.1863    2.7135 C   0  0  0  0  0  0  0  0  0  0  0  0
   -1.4470    3.3159    3.2625 H   0  0  0  0  0  0  0  0  0  0  0  0
    0.3243    3.3682    3.3896 H   0  0  0  0  0  0  0  0  0  0  0  0
   -0.4850    3.9172    1.9023 H   0  0  0  0  0  0  0  0  0  0  0  0
  5  6  2  0  0  0  0
  5  7  1  0  0  0  0
  2  3  1  0  0  0  0
  2  4  1  0  0  0  0
  2  5  1  0  0  0  0
  1  2  1  0  0  0  0
 27 28  2  0  0  0  0
 27 29  1  0  0  0  0
 23 24  1  0  0  0  0
 23 25  1  0  0  0  0
 23 26  1  0  0  0  0
 20 21  1  0  0  0  0
 20 22  1  0  0  0  0
 20 23  1  0  0  0  0
 17 18  1  0  0  0  0
 17 19  1  0  0  0  0
 17 20  1  0  0  0  0
 14 15  1  0  0  0  0
 14 16  1  0  0  0  0
 14 17  1  0  0  0  0
 11 12  1  0  0  0  0
 11 13  1  0  0  0  0
 11 14  1  0  0  0  0
  9 10  1  0  0  0  0
  9 11  1  0  0  0  0
  9 27  1  0  0  0  0
  7  8  1  0  0  0  0
  7  9  1  0  0  0  0
 31 32  1  0  0  0  0
 31 33  1  0  0  0  0
 31 34  1  0  0  0  0
 29 30  1  0  0  0  0
 29 31  1  0  0  0  0
M  CHG  1  23   1
M  END
$$$$
default_name
  -OEChem-02102213163D

 34 33  0     1  0  0  0  0  0999 V2000
   -3.8899   -3.6747    1.6490 H   0  0  0  0  0  0  0  0  0  0  0  0
   -3.9109   -2.6717    1.2250 C   0  0  0  0  0  0  0  0  0  0  0  0
   -4.6009   -2.0517    1.7950 H   0  0  0  0  0  0  0  0  0  0  0  0
   -4.2309   -2.7237    0.1860 H   0  0  0  0  0  0  0  0  0  0  0  0
   -2.5229   -2.0787    1.2980 C   0  0  0  0  0  0  0  0  0  0  0  0
   -1.5999   -2.7227    1.7810 O   0  0  0  0  0  0  0  0  0  0  0  0
   -2.3659   -0.8447    0.8120 N   0  0  0  0  0  0  0  0  0  0  0  0
   -3.1749   -0.3807    0.4220 H   0  0  0  0  0  0  0  0  0  0  0  0
   -1.0919   -0.1077    0.8170 C   0  0  1  0  0  0  0  0  0  0  0  0
   -0.4136   -0.6011    1.5155 H   0  0  0  0  0  0  0  0  0  0  0  0
   -0.4834   -0.1723   -0.5965 C   0  0  0  0  0  0  0  0  0  0  0  0
    0.5651    0.1241   -0.5374 H   0  0  0  0  0  0  0  0  0  0  0  0
   -0.5260   -1.2014   -0.9587 H   0  0  0  0  0  0  0  0  0  0  0  0
   -1.1894    0.7484   -1.6036 C   0  0  0  0  0  0  0  0  0  0  0  0
   -0.5710    0.8604   -2.4951 H   0  0  0  0  0  0  0  0  0  0  0  0
   -2.1460    0.3049   -1.8867 H   0  0  0  0  0  0  0  0  0  0  0  0
   -1.4341    2.1310   -0.9835 C   0  0  0  0  0  0  0  0  0  0  0  0
   -2.0411    2.0138   -0.0826 H   0  0  0  0  0  0  0  0  0  0  0  0
   -0.4742    2.5739   -0.7107 H   0  0  0  0  0  0  0  0  0  0  0  0
   -2.1612    3.0435   -1.9792 C   0  0  0  0  0  0  0  0  0  0  0  0
   -1.5413    3.1417   -2.8763 H   0  0  0  0  0  0  0  0  0  0  0  0
   -3.0993    2.5618   -2.2711 H   0  0  0  0  0  0  0  0  0  0  0  0
   -2.4322    4.3817   -1.3958 N   0  3  0  0  0  0  0  0  0  0  0  0
   -1.5669    4.8368   -1.1333 H   0  0  0  0  0  0  0  0  0  0  0  0
   -2.9121    4.9710   -2.0646 H   0  0  0  0  0  0  0  0  0  0  0  0
   -3.0131    4.2969   -0.5698 H   0  0  0  0  0  0  0  0  0  0  0  0
   -1.3103    1.3348    1.2791 C   0  0  0  0  0  0  0  0  0  0  0  0
   -2.2333    1.9891    0.8084 O   0  0  0  0  0  0  0  0  0  0  0  0
   -0.4429    1.8293    2.1683 N   0  0  0  0  0  0  0  0  0  0  0  0
    0.2668    1.2118    2.5263 H   0  0  0  0  0  0  0  0  0  0  0  0
   -0.5118    3.1863    2.7135 C   0  0  0  0  0  0  0  0  0  0  0  0
   -1.4470    3.3159    3.2625 H   0  0  0  0  0  0  0  0  0  0  0  0
    0.3243    3.3682    3.3896 H   0  0  0  0  0  0  0  0  0  0  0  0
   -0.4850    3.9172    1.9023 H   0  0  0  0  0  0  0  0  0  0  0  0
  5  6  2  0  0  0  0
  5  7  1  0  0  0  0
  2  3  1  0  0  0  0
  2  4  1  0  0  0  0
  2  5  1  0  0  0  0
  1  2  1  0  0  0  0
 27 28  2  0  0  0  0
 27 29  1  0  0  0  0
 23 24  1  0  0  0  0
 23 25  1  0  0  0  0
 23 26  1  0  0  0  0
 20 21  1  0  0  0  0
 20 22  1  0  0  0  0
 20 23  1  0  0  0  0
 17 18  1  0  0  0  0
 17 19  1  0  0  0  0
 17 20  1  0  0  0  0
 14 15  1  0  0  0  0
 14 16  1  0  0  0  0
 14 17  1  0  0  0  0
 11 12  1  0  0  0  0
 11 13  1  0  0  0  0
 11 14  1  0  0  0  0
  9 10  1  0  0  0  0
  9 11  1  0  0  0  0
  9 27  1  0  0  0  0
  7  8  1  0  0  0  0
  7  9  1  0  0  0  0
 31 32  1  0  0  0  0
 31 33  1  0  0  0  0
 31 34  1  0  0  0  0
 29 30  1  0  0  0  0
 29 31  1  0  0  0  0
M  CHG  1  23   1
M  END
$$$$
default_name
  -OEChem-02102213163D

 34 33  0     1  0  0  0  0  0999 V2000
   -3.8899   -3.6747    1.6490 H   0  0  0  0  0  0  0  0  0  0  0  0
   -3.9109   -2.6717    1.2250 C   0  0  0  0  0  0  0  0  0  0  0  0
   -4.6009   -2.0517    1.7950 H   0  0  0  0  0  0  0  0  0  0  0  0
   -4.2309   -2.7237    0.1860 H   0  0  0  0  0  0  0  0  0  0  0  0
   -2.5229   -2.0787    1.2980 C   0  0  0  0  0  0  0  0  0  0  0  0
   -1.5999   -2.7227    1.7810 O   0  0  0  0  0  0  0  0  0  0  0  0
   -2.3659   -0.8447    0.8120 N   0  0  0  0  0  0  0  0  0  0  0  0
   -3.1749   -0.3807    0.4220 H   0  0  0  0  0  0  0  0  0  0  0  0
   -1.0919   -0.1077    0.8170 C   0  0  1  0  0  0  0  0  0  0  0  0
   -0.4136   -0.6011    1.5155 H   0  0  0  0  0  0  0  0  0  0  0  0
   -0.4834   -0.1723   -0.5965 C   0  0  0  0  0  0  0  0  0  0  0  0
    0.5651    0.1241   -0.5374 H   0  0  0  0  0  0  0  0  0  0  0  0
   -0.5260   -1.2014   -0.9587 H   0  0  0  0  0  0  0  0  0  0  0  0
   -1.1894    0.7484   -1.6036 C   0  0  0  0  0  0  0  0  0  0  0  0
   -0.7171    0.6532   -2.5822 H   0  0  0  0  0  0  0  0  0  0  0  0
   -2.2382    0.4559   -1.6840 H   0  0  0  0  0  0  0  0  0  0  0  0
   -1.1034    2.2101   -1.1431 C   0  0  0  0  0  0  0  0  0  0  0  0
   -1.5639    2.2992   -0.1562 H   0  0  0  0  0  0  0  0  0  0  0  0
   -0.0532    2.5002   -1.0732 H   0  0  0  0  0  0  0  0  0  0  0  0
   -1.8293    3.1277   -2.1348 C   0  0  0  0  0  0  0  0  0  0  0  0
   -1.3588    3.0181   -3.1173 H   0  0  0  0  0  0  0  0  0  0  0  0
   -2.8677    2.7937   -2.2215 H   0  0  0  0  0  0  0  0  0  0  0  0
   -1.7821    4.5468   -1.7006 N   0  3  0  0  0  0  0  0  0  0  0  0
   -0.8237    4.8648   -1.6288 H   0  0  0  0  0  0  0  0  0  0  0  0
   -2.2653    5.1385   -2.3649 H   0  0  0  0  0  0  0  0  0  0  0  0
   -2.2244    4.6550   -0.7954 H   0  0  0  0  0  0  0  0  0  0  0  0
   -1.3103    1.3348    1.2791 C   0  0  0  0  0  0  0  0  0  0  0  0
   -2.2333    1.9891    0.8084 O   0  0  0  0  0  0  0  0  0  0  0  0
   -0.4429    1.8293    2.1683 N   0  0  0  0  0  0  0  0  0  0  0  0
    0.2668    1.2118    2.5263 H   0  0  0  0  0  0  0  0  0  0  0  0
   -0.5118    3.1863    2.7135 C   0  0  0  0  0  0  0  0  0  0  0  0
   -1.4470    3.3159    3.2625 H   0  0  0  0  0  0  0  0  0  0  0  0
    0.3243    3.3682    3.3896 H   0  0  0  0  0  0  0  0  0  0  0  0
   -0.4850    3.9172    1.9023 H   0  0  0  0  0  0  0  0  0  0  0  0
  5  6  2  0  0  0  0
  5  7  1  0  0  0  0
  2  3  1  0  0  0  0
  2  4  1  0  0  0  0
  2  5  1  0  0  0  0
  1  2  1  0  0  0  0
 27 28  2  0  0  0  0
 27 29  1  0  0  0  0
 23 24  1  0  0  0  0
 23 25  1  0  0  0  0
 23 26  1  0  0  0  0
 20 21  1  0  0  0  0
 20 22  1  0  0  0  0
 20 23  1  0  0  0  0
 17 18  1  0  0  0  0
 17 19  1  0  0  0  0
 17 20  1  0  0  0  0
 14 15  1  0  0  0  0
 14 16  1  0  0  0  0
 14 17  1  0  0  0  0
 11 12  1  0  0  0  0
 11 13  1  0  0  0  0
 11 14  1  0  0  0  0
  9 10  1  0  0  0  0
  9 11  1  0  0  0  0
  9 27  1  0  0  0  0
  7  8  1  0  0  0  0
  7  9  1  0  0  0  0
 31 32  1  0  0  0  0
 31 33  1  0  0  0  0
 31 34  1  0  0  0  0
 29 30  1  0  0  0  0
 29 31  1  0  0  0  0
M  CHG  1  23   1
M  END
$$$$
default_name
  -OEChem-02102213163D

 34 33  0     1  0  0  0  0  0999 V2000
   -3.8899   -3.6747    1.6490 H   0  0  0  0  0  0  0  0  0  0  0  0
   -3.9109   -2.6717    1.2250 C   0  0  0  0  0  0  0  0  0  0  0  0
   -4.6009   -2.0517    1.7950 H   0  0  0  0  0  0  0  0  0  0  0  0
   -4.2309   -2.7237    0.1860 H   0  0  0  0  0  0  0  0  0  0  0  0
   -2.5229   -2.0787    1.2980 C   0  0  0  0  0  0  0  0  0  0  0  0
   -1.5999   -2.7227    1.7810 O   0  0  0  0  0  0  0  0  0  0  0  0
   -2.3659   -0.8447    0.8120 N   0  0  0  0  0  0  0  0  0  0  0  0
   -3.1749   -0.3807    0.4220 H   0  0  0  0  0  0  0  0  0  0  0  0
   -1.0919   -0.1077    0.8170 C   0  0  1  0  0  0  0  0  0  0  0  0
   -0.4136   -0.6011    1.5155 H   0  0  0  0  0  0  0  0  0  0  0  0
   -0.4834   -0.1723   -0.5965 C   0  0  0  0  0  0  0  0  0  0  0  0
    0.5651    0.1241   -0.5374 H   0  0  0  0  0  0  0  0  0  0  0  0
   -0.5260   -1.2014   -0.9587 H   0  0  0  0  0  0  0  0  0  0  0  0
   -1.1894    0.7484   -1.6036 C   0  0  0  0  0  0  0  0  0  0  0  0
   -0.9069    0.4674   -2.6190 H   0  0  0  0  0  0  0  0  0  0  0  0
   -2.2702    0.6416   -1.4918 H   0  0  0  0  0  0  0  0  0  0  0  0
   -0.7953    2.2114   -1.3579 C   0  0  0  0  0  0  0  0  0  0  0  0
   -1.0660    2.4852   -0.3354 H   0  0  0  0  0  0  0  0  0  0  0  0
    0.2848    2.3145   -1.4799 H   0  0  0  0  0  0  0  0  0  0  0  0
   -1.5186    3.1342   -2.3467 C   0  0  0  0  0  0  0  0  0  0  0  0
   -1.2407    2.8391   -3.3637 H   0  0  0  0  0  0  0  0  0  0  0  0
   -2.5969    2.9843   -2.2370 H   0  0  0  0  0  0  0  0  0  0  0  0
   -1.1734    4.5597   -2.1156 N   0  3  0  0  0  0  0  0  0  0  0  0
   -0.1779    4.7068   -2.2260 H   0  0  0  0  0  0  0  0  0  0  0  0
   -1.6587    5.1549   -2.7752 H   0  0  0  0  0  0  0  0  0  0  0  0
   -1.4368    4.8403   -1.1781 H   0  0  0  0  0  0  0  0  0  0  0  0
   -1.3103    1.3348    1.2791 C   0  0  0  0  0  0  0  0  0  0  0  0
   -2.2333    1.9891    0.8084 O   0  0  0  0  0  0  0  0  0  0  0  0
   -0.4429    1.8293    2.1683 N   0  0  0  0  0  0  0  0  0  0  0  0
    0.2668    1.2118    2.5263 H   0  0  0  0  0  0  0  0  0  0  0  0
   -0.5118    3.1863    2.7135 C   0  0  0  0  0  0  0  0  0  0  0  0
   -1.4470    3.3159    3.2625 H   0  0  0  0  0  0  0  0  0  0  0  0
    0.3243    3.3682    3.3896 H   0  0  0  0  0  0  0  0  0  0  0  0
   -0.4850    3.9172    1.9023 H   0  0  0  0  0  0  0  0  0  0  0  0
  5  6  2  0  0  0  0
  5  7  1  0  0  0  0
  2  3  1  0  0  0  0
  2  4  1  0  0  0  0
  2  5  1  0  0  0  0
  1  2  1  0  0  0  0
 27 28  2  0  0  0  0
 27 29  1  0  0  0  0
 23 24  1  0  0  0  0
 23 25  1  0  0  0  0
 23 26  1  0  0  0  0
 20 21  1  0  0  0  0
 20 22  1  0  0  0  0
 20 23  1  0  0  0  0
 17 18  1  0  0  0  0
 17 19  1  0  0  0  0
 17 20  1  0  0  0  0
 14 15  1  0  0  0  0
 14 16  1  0  0  0  0
 14 17  1  0  0  0  0
 11 12  1  0  0  0  0
 11 13  1  0  0  0  0
 11 14  1  0  0  0  0
  9 10  1  0  0  0  0
  9 11  1  0  0  0  0
  9 27  1  0  0  0  0
  7  8  1  0  0  0  0
  7  9  1  0  0  0  0
 31 32  1  0  0  0  0
 31 33  1  0  0  0  0
 31 34  1  0  0  0  0
 29 30  1  0  0  0  0
 29 31  1  0  0  0  0
M  CHG  1  23   1
M  END
$$$$
default_name
  -OEChem-02102213163D

 34 33  0     1  0  0  0  0  0999 V2000
   -3.8899   -3.6747    1.6490 H   0  0  0  0  0  0  0  0  0  0  0  0
   -3.9109   -2.6717    1.2250 C   0  0  0  0  0  0  0  0  0  0  0  0
   -4.6009   -2.0517    1.7950 H   0  0  0  0  0  0  0  0  0  0  0  0
   -4.2309   -2.7237    0.1860 H   0  0  0  0  0  0  0  0  0  0  0  0
   -2.5229   -2.0787    1.2980 C   0  0  0  0  0  0  0  0  0  0  0  0
   -1.5999   -2.7227    1.7810 O   0  0  0  0  0  0  0  0  0  0  0  0
   -2.3659   -0.8447    0.8120 N   0  0  0  0  0  0  0  0  0  0  0  0
   -3.1749   -0.3807    0.4220 H   0  0  0  0  0  0  0  0  0  0  0  0
   -1.0919   -0.1077    0.8170 C   0  0  1  0  0  0  0  0  0  0  0  0
   -0.4136   -0.6011    1.5155 H   0  0  0  0  0  0  0  0  0  0  0  0
   -0.4834   -0.1723   -0.5965 C   0  0  0  0  0  0  0  0  0  0  0  0
    0.5651    0.1241   -0.5374 H   0  0  0  0  0  0  0  0  0  0  0  0
   -0.5260   -1.2014   -0.9587 H   0  0  0  0  0  0  0  0  0  0  0  0
   -1.1894    0.7484   -1.6036 C   0  0  0  0  0  0  0  0  0  0  0  0
   -1.1274    0.3157   -2.6030 H   0  0  0  0  0  0  0  0  0  0  0  0
   -2.2397    0.8492   -1.3233 H   0  0  0  0  0  0  0  0  0  0  0  0
   -0.5308    2.1348   -1.6134 C   0  0  0  0  0  0  0  0  0  0  0  0
   -0.5812    2.5590   -0.6077 H   0  0  0  0  0  0  0  0  0  0  0  0
    0.5166    2.0294   -1.9031 H   0  0  0  0  0  0  0  0  0  0  0  0
   -1.2503    3.0626   -2.6003 C   0  0  0  0  0  0  0  0  0  0  0  0
   -1.1953    2.6168   -3.5988 H   0  0  0  0  0  0  0  0  0  0  0  0
   -2.3055    3.1206   -2.3168 H   0  0  0  0  0  0  0  0  0  0  0  0
   -0.6477    4.4195   -2.6123 N   0  3  0  0  0  0  0  0  0  0  0  0
    0.3264    4.3735   -2.8842 H   0  0  0  0  0  0  0  0  0  0  0  0
   -1.1335    5.0190   -3.2676 H   0  0  0  0  0  0  0  0  0  0  0  0
   -0.7040    4.8401   -1.6921 H   0  0  0  0  0  0  0  0  0  0  0  0
   -1.3103    1.3348    1.2791 C   0  0  0  0  0  0  0  0  0  0  0  0
   -2.2333    1.9891    0.8084 O   0  0  0  0  0  0  0  0  0  0  0  0
   -0.4429    1.8293    2.1683 N   0  0  0  0  0  0  0  0  0  0  0  0
    0.2668    1.2118    2.5263 H   0  0  0  0  0  0  0  0  0  0  0  0
   -0.5118    3.1863    2.7135 C   0  0  0  0  0  0  0  0  0  0  0  0
   -1.4470    3.3159    3.2625 H   0  0  0  0  0  0  0  0  0  0  0  0
    0.3243    3.3682    3.3896 H   0  0  0  0  0  0  0  0  0  0  0  0
   -0.4850    3.9172    1.9023 H   0  0  0  0  0  0  0  0  0  0  0  0
  5  6  2  0  0  0  0
  5  7  1  0  0  0  0
  2  3  1  0  0  0  0
  2  4  1  0  0  0  0
  2  5  1  0  0  0  0
  1  2  1  0  0  0  0
 27 28  2  0  0  0  0
 27 29  1  0  0  0  0
 23 24  1  0  0  0  0
 23 25  1  0  0  0  0
 23 26  1  0  0  0  0
 20 21  1  0  0  0  0
 20 22  1  0  0  0  0
 20 23  1  0  0  0  0
 17 18  1  0  0  0  0
 17 19  1  0  0  0  0
 17 20  1  0  0  0  0
 14 15  1  0  0  0  0
 14 16  1  0  0  0  0
 14 17  1  0  0  0  0
 11 12  1  0  0  0  0
 11 13  1  0  0  0  0
 11 14  1  0  0  0  0
  9 10  1  0  0  0  0
  9 11  1  0  0  0  0
  9 27  1  0  0  0  0
  7  8  1  0  0  0  0
  7  9  1  0  0  0  0
 31 32  1  0  0  0  0
 31 33  1  0  0  0  0
 31 34  1  0  0  0  0
 29 30  1  0  0  0  0
 29 31  1  0  0  0  0
M  CHG  1  23   1
M  END
$$$$
default_name
  -OEChem-02102213163D

 34 33  0     1  0  0  0  0  0999 V2000
   -3.8899   -3.6747    1.6490 H   0  0  0  0  0  0  0  0  0  0  0  0
   -3.9109   -2.6717    1.2250 C   0  0  0  0  0  0  0  0  0  0  0  0
   -4.6009   -2.0517    1.7950 H   0  0  0  0  0  0  0  0  0  0  0  0
   -4.2309   -2.7237    0.1860 H   0  0  0  0  0  0  0  0  0  0  0  0
   -2.5229   -2.0787    1.2980 C   0  0  0  0  0  0  0  0  0  0  0  0
   -1.5999   -2.7227    1.7810 O   0  0  0  0  0  0  0  0  0  0  0  0
   -2.3659   -0.8447    0.8120 N   0  0  0  0  0  0  0  0  0  0  0  0
   -3.1749   -0.3807    0.4220 H   0  0  0  0  0  0  0  0  0  0  0  0
   -1.0919   -0.1077    0.8170 C   0  0  1  0  0  0  0  0  0  0  0  0
   -0.4136   -0.6011    1.5155 H   0  0  0  0  0  0  0  0  0  0  0  0
   -0.4834   -0.1723   -0.5965 C   0  0  0  0  0  0  0  0  0  0  0  0
    0.5651    0.1241   -0.5374 H   0  0  0  0  0  0  0  0  0  0  0  0
   -0.5260   -1.2014   -0.9587 H   0  0  0  0  0  0  0  0  0  0  0  0
   -1.1894    0.7484   -1.6036 C   0  0  0  0  0  0  0  0  0  0  0  0
   -1.3637    0.2086   -2.5353 H   0  0  0  0  0  0  0  0  0  0  0  0
   -2.1490    1.0647   -1.1900 H   0  0  0  0  0  0  0  0  0  0  0  0
   -0.3279    1.9855   -1.8920 C   0  0  0  0  0  0  0  0  0  0  0  0
   -0.1427    2.5157   -0.9548 H   0  0  0  0  0  0  0  0  0  0  0  0
    0.6265    1.6644   -2.3139 H   0  0  0  0  0  0  0  0  0  0  0  0
   -1.0425    2.9178   -2.8783 C   0  0  0  0  0  0  0  0  0  0  0  0
   -1.2256    2.3665   -3.8064 H   0  0  0  0  0  0  0  0  0  0  0  0
   -2.0132    3.1933   -2.4552 H   0  0  0  0  0  0  0  0  0  0  0  0
   -0.2406    4.1359   -3.1569 N   0  3  0  0  0  0  0  0  0  0  0  0
    0.6549    3.8878   -3.5586 H   0  0  0  0  0  0  0  0  0  0  0  0
   -0.7257    4.7401   -3.8085 H   0  0  0  0  0  0  0  0  0  0  0  0
   -0.0758    4.6545   -2.3021 H   0  0  0  0  0  0  0  0  0  0  0  0
   -1.3103    1.3348    1.2791 C   0  0  0  0  0  0  0  0  0  0  0  0
   -2.2333    1.9891    0.8084 O   0  0  0  0  0  0  0  0  0  0  0  0
   -0.4429    1.8293    2.1683 N   0  0  0  0  0  0  0  0  0  0  0  0
    0.2668    1.2118    2.5263 H   0  0  0  0  0  0  0  0  0  0  0  0
   -0.5118    3.1863    2.7135 C   0  0  0  0  0  0  0  0  0  0  0  0
   -1.4470    3.3159    3.2625 H   0  0  0  0  0  0  0  0  0  0  0  0
    0.3243    3.3682    3.3896 H   0  0  0  0  0  0  0  0  0  0  0  0
   -0.4850    3.9172    1.9023 H   0  0  0  0  0  0  0  0  0  0  0  0
  5  6  2  0  0  0  0
  5  7  1  0  0  0  0
  2  3  1  0  0  0  0
  2  4  1  0  0  0  0
  2  5  1  0  0  0  0
  1  2  1  0  0  0  0
 27 28  2  0  0  0  0
 27 29  1  0  0  0  0
 23 24  1  0  0  0  0
 23 25  1  0  0  0  0
 23 26  1  0  0  0  0
 20 21  1  0  0  0  0
 20 22  1  0  0  0  0
 20 23  1  0  0  0  0
 17 18  1  0  0  0  0
 17 19  1  0  0  0  0
 17 20  1  0  0  0  0
 14 15  1  0  0  0  0
 14 16  1  0  0  0  0
 14 17  1  0  0  0  0
 11 12  1  0  0  0  0
 11 13  1  0  0  0  0
 11 14  1  0  0  0  0
  9 10  1  0  0  0  0
  9 11  1  0  0  0  0
  9 27  1  0  0  0  0
  7  8  1  0  0  0  0
  7  9  1  0  0  0  0
 31 32  1  0  0  0  0
 31 33  1  0  0  0  0
 31 34  1  0  0  0  0
 29 30  1  0  0  0  0
 29 31  1  0  0  0  0
M  CHG  1  23   1
M  END
$$$$
default_name
  -OEChem-02102213163D

 34 33  0     1  0  0  0  0  0999 V2000
   -3.8899   -3.6747    1.6490 H   0  0  0  0  0  0  0  0  0  0  0  0
   -3.9109   -2.6717    1.2250 C   0  0  0  0  0  0  0  0  0  0  0  0
   -4.6009   -2.0517    1.7950 H   0  0  0  0  0  0  0  0  0  0  0  0
   -4.2309   -2.7237    0.1860 H   0  0  0  0  0  0  0  0  0  0  0  0
   -2.5229   -2.0787    1.2980 C   0  0  0  0  0  0  0  0  0  0  0  0
   -1.5999   -2.7227    1.7810 O   0  0  0  0  0  0  0  0  0  0  0  0
   -2.3659   -0.8447    0.8120 N   0  0  0  0  0  0  0  0  0  0  0  0
   -3.1749   -0.3807    0.4220 H   0  0  0  0  0  0  0  0  0  0  0  0
   -1.0919   -0.1077    0.8170 C   0  0  1  0  0  0  0  0  0  0  0  0
   -0.4136   -0.6011    1.5155 H   0  0  0  0  0  0  0  0  0  0  0  0
   -0.4834   -0.1723   -0.5965 C   0  0  0  0  0  0  0  0  0  0  0  0
    0.5651    0.1241   -0.5374 H   0  0  0  0  0  0  0  0  0  0  0  0
   -0.5260   -1.2014   -0.9587 H   0  0  0  0  0  0  0  0  0  0  0  0
   -1.1894    0.7484   -1.6036 C   0  0  0  0  0  0  0  0  0  0  0  0
   -1.5996    0.1532   -2.4206 H   0  0  0  0  0  0  0  0  0  0  0  0
   -2.0041    1.2732   -1.1009 H   0  0  0  0  0  0  0  0  0  0  0  0
   -0.2005    1.7738   -2.1749 C   0  0  0  0  0  0  0  0  0  0  0  0
    0.2198    2.3582   -1.3528 H   0  0  0  0  0  0  0  0  0  0  0  0
    0.6071    1.2442   -2.6843 H   0  0  0  0  0  0  0  0  0  0  0  0
   -0.9096    2.7095   -3.1619 C   0  0  0  0  0  0  0  0  0  0  0  0
   -1.3296    2.1051   -3.9725 H   0  0  0  0  0  0  0  0  0  0  0  0
   -1.7400    3.1975   -2.6428 H   0  0  0  0  0  0  0  0  0  0  0  0
    0.0199    3.7281   -3.7124 N   0  3  0  0  0  0  0  0  0  0  0  0
    0.7852    3.2826   -4.2031 H   0  0  0  0  0  0  0  0  0  0  0  0
   -0.4631    4.3372   -4.3610 H   0  0  0  0  0  0  0  0  0  0  0  0
    0.4048    4.2961   -2.9667 H   0  0  0  0  0  0  0  0  0  0  0  0
   -1.3103    1.3348    1.2791 C   0  0  0  0  0  0  0  0  0  0  0  0
   -2.2333    1.9891    0.8084 O   0  0  0  0  0  0  0  0  0  0  0  0
   -0.4429    1.8293    2.1683 N   0  0  0  0  0  0  0  0  0  0  0  0
    0.2668    1.2118    2.5263 H   0  0  0  0  0  0  0  0  0  0  0  0
   -0.5118    3.1863    2.7135 C   0  0  0  0  0  0  0  0  0  0  0  0
   -1.4470    3.3159    3.2625 H   0  0  0  0  0  0  0  0  0  0  0  0
    0.3243    3.3682    3.3896 H   0  0  0  0  0  0  0  0  0  0  0  0
   -0.4850    3.9172    1.9023 H   0  0  0  0  0  0  0  0  0  0  0  0
  5  6  2  0  0  0  0
  5  7  1  0  0  0  0
  2  3  1  0  0  0  0
  2  4  1  0  0  0  0
  2  5  1  0  0  0  0
  1  2  1  0  0  0  0
 27 28  2  0  0  0  0
 27 29  1  0  0  0  0
 23 24  1  0  0  0  0
 23 25  1  0  0  0  0
 23 26  1  0  0  0  0
 20 21  1  0  0  0  0
 20 22  1  0  0  0  0
 20 23  1  0  0  0  0
 17 18  1  0  0  0  0
 17 19  1  0  0  0  0
 17 20  1  0  0  0  0
 14 15  1  0  0  0  0
 14 16  1  0  0  0  0
 14 17  1  0  0  0  0
 11 12  1  0  0  0  0
 11 13  1  0  0  0  0
 11 14  1  0  0  0  0
  9 10  1  0  0  0  0
  9 11  1  0  0  0  0
  9 27  1  0  0  0  0
  7  8  1  0  0  0  0
  7  9  1  0  0  0  0
 31 32  1  0  0  0  0
 31 33  1  0  0  0  0
 31 34  1  0  0  0  0
 29 30  1  0  0  0  0
 29 31  1  0  0  0  0
M  CHG  1  23   1
M  END
$$$$
default_name
  -OEChem-02102213163D

 34 33  0     1  0  0  0  0  0999 V2000
   -3.8899   -3.6747    1.6490 H   0  0  0  0  0  0  0  0  0  0  0  0
   -3.9109   -2.6717    1.2250 C   0  0  0  0  0  0  0  0  0  0  0  0
   -4.6009   -2.0517    1.7950 H   0  0  0  0  0  0  0  0  0  0  0  0
   -4.2309   -2.7237    0.1860 H   0  0  0  0  0  0  0  0  0  0  0  0
   -2.5229   -2.0787    1.2980 C   0  0  0  0  0  0  0  0  0  0  0  0
   -1.5999   -2.7227    1.7810 O   0  0  0  0  0  0  0  0  0  0  0  0
   -2.3659   -0.8447    0.8120 N   0  0  0  0  0  0  0  0  0  0  0  0
   -3.1749   -0.3807    0.4220 H   0  0  0  0  0  0  0  0  0  0  0  0
   -1.0919   -0.1077    0.8170 C   0  0  1  0  0  0  0  0  0  0  0  0
   -0.4136   -0.6011    1.5155 H   0  0  0  0  0  0  0  0  0  0  0  0
   -0.4834   -0.1723   -0.5965 C   0  0  0  0  0  0  0  0  0  0  0  0
    0.5651    0.1241   -0.5374 H   0  0  0  0  0  0  0  0  0  0  0  0
   -0.5260   -1.2014   -0.9587 H   0  0  0  0  0  0  0  0  0  0  0  0
   -1.1894    0.7484   -1.6036 C   0  0  0  0  0  0  0  0  0  0  0  0
   -1.8191    0.1534   -2.2665 H   0  0  0  0  0  0  0  0  0  0  0  0
   -1.8150    1.4607   -1.0621 H   0  0  0  0  0  0  0  0  0  0  0  0
   -0.1572    1.5141   -2.4427 C   0  0  0  0  0  0  0  0  0  0  0  0
    0.4814    2.0972   -1.7748 H   0  0  0  0  0  0  0  0  0  0  0  0
    0.4596    0.7977   -2.9891 H   0  0  0  0  0  0  0  0  0  0  0  0
   -0.8605    2.4521   -3.4317 C   0  0  0  0  0  0  0  0  0  0  0  0
   -1.5001    1.8505   -4.0857 H   0  0  0  0  0  0  0  0  0  0  0  0
   -1.5046    3.1329   -2.8670 H   0  0  0  0  0  0  0  0  0  0  0  0
    0.1163    3.2239   -4.2409 N   0  3  0  0  0  0  0  0  0  0  0  0
    0.7084    2.5994   -4.7740 H   0  0  0  0  0  0  0  0  0  0  0  0
   -0.3634    3.8377   -4.8876 H   0  0  0  0  0  0  0  0  0  0  0  0
    0.7051    3.7893   -3.6406 H   0  0  0  0  0  0  0  0  0  0  0  0
   -1.3103    1.3348    1.2791 C   0  0  0  0  0  0  0  0  0  0  0  0
   -2.2333    1.9891    0.8084 O   0  0  0  0  0  0  0  0  0  0  0  0
   -0.4429    1.8293    2.1683 N   0  0  0  0  0  0  0  0  0  0  0  0
    0.2668    1.2118    2.5263 H   0  0  0  0  0  0  0  0  0  0  0  0
   -0.5118    3.1863    2.7135 C   0  0  0  0  0  0  0  0  0  0  0  0
   -1.4470    3.3159    3.2625 H   0  0  0  0  0  0  0  0  0  0  0  0
    0.3243    3.3682    3.3896 H   0  0  0  0  0  0  0  0  0  0  0  0
   -0.4850    3.9172    1.9023 H   0  0  0  0  0  0  0  0  0  0  0  0
  5  6  2  0  0  0  0
  5  7  1  0  0  0  0
  2  3  1  0  0  0  0
  2  4  1  0  0  0  0
  2  5  1  0  0  0  0
  1  2  1  0  0  0  0
 27 28  2  0  0  0  0
 27 29  1  0  0  0  0
 23 24  1  0  0  0  0
 23 25  1  0  0  0  0
 23 26  1  0  0  0  0
 20 21  1  0  0  0  0
 20 22  1  0  0  0  0
 20 23  1  0  0  0  0
 17 18  1  0  0  0  0
 17 19  1  0  0  0  0
 17 20  1  0  0  0  0
 14 15  1  0  0  0  0
 14 16  1  0  0  0  0
 14 17  1  0  0  0  0
 11 12  1  0  0  0  0
 11 13  1  0  0  0  0
 11 14  1  0  0  0  0
  9 10  1  0  0  0  0
  9 11  1  0  0  0  0
  9 27  1  0  0  0  0
  7  8  1  0  0  0  0
  7  9  1  0  0  0  0
 31 32  1  0  0  0  0
 31 33  1  0  0  0  0
 31 34  1  0  0  0  0
 29 30  1  0  0  0  0
 29 31  1  0  0  0  0
M  CHG  1  23   1
M  END
$$$$
default_name
  -OEChem-02102213163D

 34 33  0     1  0  0  0  0  0999 V2000
   -3.8899   -3.6747    1.6490 H   0  0  0  0  0  0  0  0  0  0  0  0
   -3.9109   -2.6717    1.2250 C   0  0  0  0  0  0  0  0  0  0  0  0
   -4.6009   -2.0517    1.7950 H   0  0  0  0  0  0  0  0  0  0  0  0
   -4.2309   -2.7237    0.1860 H   0  0  0  0  0  0  0  0  0  0  0  0
   -2.5229   -2.0787    1.2980 C   0  0  0  0  0  0  0  0  0  0  0  0
   -1.5999   -2.7227    1.7810 O   0  0  0  0  0  0  0  0  0  0  0  0
   -2.3659   -0.8447    0.8120 N   0  0  0  0  0  0  0  0  0  0  0  0
   -3.1749   -0.3807    0.4220 H   0  0  0  0  0  0  0  0  0  0  0  0
   -1.0919   -0.1077    0.8170 C   0  0  1  0  0  0  0  0  0  0  0  0
   -0.4136   -0.6011    1.5155 H   0  0  0  0  0  0  0  0  0  0  0  0
   -0.4834   -0.1723   -0.5965 C   0  0  0  0  0  0  0  0  0  0  0  0
    0.5651    0.1241   -0.5374 H   0  0  0  0  0  0  0  0  0  0  0  0
   -0.5260   -1.2014   -0.9587 H   0  0  0  0  0  0  0  0  0  0  0  0
   -1.1894    0.7484   -1.6036 C   0  0  0  0  0  0  0  0  0  0  0  0
   -2.0071    0.2092   -2.0837 H   0  0  0  0  0  0  0  0  0  0  0  0
   -1.5945    1.6143   -1.0763 H   0  0  0  0  0  0  0  0  0  0  0  0
   -0.2010    1.2239   -2.6773 C   0  0  0  0  0  0  0  0  0  0  0  0
    0.6243    1.7505   -2.1920 H   0  0  0  0  0  0  0  0  0  0  0  0
    0.1940    0.3551   -3.2076 H   0  0  0  0  0  0  0  0  0  0  0  0
   -0.8986    2.1630   -3.6692 C   0  0  0  0  0  0  0  0  0  0  0  0
   -1.7256    1.6201   -4.1383 H   0  0  0  0  0  0  0  0  0  0  0  0
   -1.3228    3.0039   -3.1123 H   0  0  0  0  0  0  0  0  0  0  0  0
    0.0418    2.6576   -4.7064 N   0  3  0  0  0  0  0  0  0  0  0  0
    0.4298    1.8845   -5.2322 H   0  0  0  0  0  0  0  0  0  0  0  0
   -0.4335    3.2756   -5.3522 H   0  0  0  0  0  0  0  0  0  0  0  0
    0.8047    3.1687   -4.2778 H   0  0  0  0  0  0  0  0  0  0  0  0
   -1.3103    1.3348    1.2791 C   0  0  0  0  0  0  0  0  0  0  0  0
   -2.2333    1.9891    0.8084 O   0  0  0  0  0  0  0  0  0  0  0  0
   -0.4429    1.8293    2.1683 N   0  0  0  0  0  0  0  0  0  0  0  0
    0.2668    1.2118    2.5263 H   0  0  0  0  0  0  0  0  0  0  0  0
   -0.5118    3.1863    2.7135 C   0  0  0  0  0  0  0  0  0  0  0  0
   -1.4470    3.3159    3.2625 H   0  0  0  0  0  0  0  0  0  0  0  0
    0.3243    3.3682    3.3896 H   0  0  0  0  0  0  0  0  0  0  0  0
   -0.4850    3.9172    1.9023 H   0  0  0  0  0  0  0  0  0  0  0  0
  5  6  2  0  0  0  0
  5  7  1  0  0  0  0
  2  3  1  0  0  0  0
  2  4  1  0  0  0  0
  2  5  1  0  0  0  0
  1  2  1  0  0  0  0
 27 28  2  0  0  0  0
 27 29  1  0  0  0  0
 23 24  1  0  0  0  0
 23 25  1  0  0  0  0
 23 26  1  0  0  0  0
 20 21  1  0  0  0  0
 20 22  1  0  0  0  0
 20 23  1  0  0  0  0
 17 18  1  0  0  0  0
 17 19  1  0  0  0  0
 17 20  1  0  0  0  0
 14 15  1  0  0  0  0
 14 16  1  0  0  0  0
 14 17  1  0  0  0  0
 11 12  1  0  0  0  0
 11 13  1  0  0  0  0
 11 14  1  0  0  0  0
  9 10  1  0  0  0  0
  9 11  1  0  0  0  0
  9 27  1  0  0  0  0
  7  8  1  0  0  0  0
  7  9  1  0  0  0  0
 31 32  1  0  0  0  0
 31 33  1  0  0  0  0
 31 34  1  0  0  0  0
 29 30  1  0  0  0  0
 29 31  1  0  0  0  0
M  CHG  1  23   1
M  END
$$$$
default_name
  -OEChem-02102213163D

 34 33  0     1  0  0  0  0  0999 V2000
   -3.8899   -3.6747    1.6490 H   0  0  0  0  0  0  0  0  0  0  0  0
   -3.9109   -2.6717    1.2250 C   0  0  0  0  0  0  0  0  0  0  0  0
   -4.6009   -2.0517    1.7950 H   0  0  0  0  0  0  0  0  0  0  0  0
   -4.2309   -2.7237    0.1860 H   0  0  0  0  0  0  0  0  0  0  0  0
   -2.5229   -2.0787    1.2980 C   0  0  0  0  0  0  0  0  0  0  0  0
   -1.5999   -2.7227    1.7810 O   0  0  0  0  0  0  0  0  0  0  0  0
   -2.3659   -0.8447    0.8120 N   0  0  0  0  0  0  0  0  0  0  0  0
   -3.1749   -0.3807    0.4220 H   0  0  0  0  0  0  0  0  0  0  0  0
   -1.0919   -0.1077    0.8170 C   0  0  1  0  0  0  0  0  0  0  0  0
   -0.4136   -0.6011    1.5155 H   0  0  0  0  0  0  0  0  0  0  0  0
   -0.4834   -0.1723   -0.5965 C   0  0  0  0  0  0  0  0  0  0  0  0
    0.5651    0.1241   -0.5374 H   0  0  0  0  0  0  0  0  0  0  0  0
   -0.5260   -1.2014   -0.9587 H   0  0  0  0  0  0  0  0  0  0  0  0
   -1.1894    0.7484   -1.6036 C   0  0  0  0  0  0  0  0  0  0  0  0
   -2.1510    0.3166   -1.8846 H   0  0  0  0  0  0  0  0  0  0  0  0
   -1.3576    1.7235   -1.1425 H   0  0  0  0  0  0  0  0  0  0  0  0
   -0.3289    0.9232   -2.8625 C   0  0  0  0  0  0  0  0  0  0  0  0
    0.6389    1.3418   -2.5759 H   0  0  0  0  0  0  0  0  0  0  0  0
   -0.1714   -0.0533   -3.3247 H   0  0  0  0  0  0  0  0  0  0  0  0
   -1.0212    1.8620   -3.8584 C   0  0  0  0  0  0  0  0  0  0  0  0
   -1.9906    1.4295   -4.1267 H   0  0  0  0  0  0  0  0  0  0  0  0
   -1.2072    2.8193   -3.3622 H   0  0  0  0  0  0  0  0  0  0  0  0
   -0.1984    2.0680   -5.0770 N   0  3  0  0  0  0  0  0  0  0  0  0
   -0.0316    1.1867   -5.5465 H   0  0  0  0  0  0  0  0  0  0  0  0
   -0.6686    2.6894   -5.7233 H   0  0  0  0  0  0  0  0  0  0  0  0
    0.6968    2.4765   -4.8350 H   0  0  0  0  0  0  0  0  0  0  0  0
   -1.3103    1.3348    1.2791 C   0  0  0  0  0  0  0  0  0  0  0  0
   -2.2333    1.9891    0.8084 O   0  0  0  0  0  0  0  0  0  0  0  0
   -0.4429    1.8293    2.1683 N   0  0  0  0  0  0  0  0  0  0  0  0
    0.2668    1.2118    2.5263 H   0  0  0  0  0  0  0  0  0  0  0  0
   -0.5118    3.1863    2.7135 C   0  0  0  0  0  0  0  0  0  0  0  0
   -1.4470    3.3159    3.2625 H   0  0  0  0  0  0  0  0  0  0  0  0
    0.3243    3.3682    3.3896 H   0  0  0  0  0  0  0  0  0  0  0  0
   -0.4850    3.9172    1.9023 H   0  0  0  0  0  0  0  0  0  0  0  0
  5  6  2  0  0  0  0
  5  7  1  0  0  0  0
  2  3  1  0  0  0  0
  2  4  1  0  0  0  0
  2  5  1  0  0  0  0
  1  2  1  0  0  0  0
 27 28  2  0  0  0  0
 27 29  1  0  0  0  0
 23 24  1  0  0  0  0
 23 25  1  0  0  0  0
 23 26  1  0  0  0  0
 20 21  1  0  0  0  0
 20 22  1  0  0  0  0
 20 23  1  0  0  0  0
 17 18  1  0  0  0  0
 17 19  1  0  0  0  0
 17 20  1  0  0  0  0
 14 15  1  0  0  0  0
 14 16  1  0  0  0  0
 14 17  1  0  0  0  0
 11 12  1  0  0  0  0
 11 13  1  0  0  0  0
 11 14  1  0  0  0  0
  9 10  1  0  0  0  0
  9 11  1  0  0  0  0
  9 27  1  0  0  0  0
  7  8  1  0  0  0  0
  7  9  1  0  0  0  0
 31 32  1  0  0  0  0
 31 33  1  0  0  0  0
 31 34  1  0  0  0  0
 29 30  1  0  0  0  0
 29 31  1  0  0  0  0
M  CHG  1  23   1
M  END
$$$$
default_name
  -OEChem-02102213163D

 34 33  0     1  0  0  0  0  0999 V2000
   -3.8899   -3.6747    1.6490 H   0  0  0  0  0  0  0  0  0  0  0  0
   -3.9109   -2.6717    1.2250 C   0  0  0  0  0  0  0  0  0  0  0  0
   -4.6009   -2.0517    1.7950 H   0  0  0  0  0  0  0  0  0  0  0  0
   -4.2309   -2.7237    0.1860 H   0  0  0  0  0  0  0  0  0  0  0  0
   -2.5229   -2.0787    1.2980 C   0  0  0  0  0  0  0  0  0  0  0  0
   -1.5999   -2.7227    1.7810 O   0  0  0  0  0  0  0  0  0  0  0  0
   -2.3659   -0.8447    0.8120 N   0  0  0  0  0  0  0  0  0  0  0  0
   -3.1749   -0.3807    0.4220 H   0  0  0  0  0  0  0  0  0  0  0  0
   -1.0919   -0.1077    0.8170 C   0  0  1  0  0  0  0  0  0  0  0  0
   -0.4136   -0.6011    1.5155 H   0  0  0  0  0  0  0  0  0  0  0  0
   -0.4834   -0.1723   -0.5965 C   0  0  0  0  0  0  0  0  0  0  0  0
    0.6038   -0.1416   -0.5086 H   0  0  0  0  0  0  0  0  0  0  0  0
   -0.7602   -1.1196   -1.0633 H   0  0  0  0  0  0  0  0  0  0  0  0
   -0.9276    0.9868   -1.5017 C   0  0  0  0  0  0  0  0  0  0  0  0
   -2.0132    0.9748   -1.6079 H   0  0  0  0  0  0  0  0  0  0  0  0
   -0.6241    1.9329   -1.0493 H   0  0  0  0  0  0  0  0  0  0  0  0
   -0.2846    0.8579   -2.8895 C   0  0  0  0  0  0  0  0  0  0  0  0
    0.8024    0.8551   -2.7785 H   0  0  0  0  0  0  0  0  0  0  0  0
   -0.5986   -0.0852   -3.3413 H   0  0  0  0  0  0  0  0  0  0  0  0
   -0.7075    2.0279   -3.7866 C   0  0  0  0  0  0  0  0  0  0  0  0
   -1.7984    2.0178   -3.8789 H   0  0  0  0  0  0  0  0  0  0  0  0
   -0.4214    2.9632   -3.2960 H   0  0  0  0  0  0  0  0  0  0  0  0
   -0.0800    1.9409   -5.1294 N   0  3  0  0  0  0  0  0  0  0  0  0
   -0.3495    1.0821   -5.5927 H   0  0  0  0  0  0  0  0  0  0  0  0
   -0.3687    2.7196   -5.7084 H   0  0  0  0  0  0  0  0  0  0  0  0
    0.9301    1.9588   -5.0500 H   0  0  0  0  0  0  0  0  0  0  0  0
   -1.3103    1.3348    1.2791 C   0  0  0  0  0  0  0  0  0  0  0  0
   -2.2333    1.9891    0.8084 O   0  0  0  0  0  0  0  0  0  0  0  0
   -0.4429    1.8293    2.1683 N   0  0  0  0  0  0  0  0  0  0  0  0
    0.2668    1.2118    2.5263 H   0  0  0  0  0  0  0  0  0  0  0  0
   -0.5118    3.1863    2.7135 C   0  0  0  0  0  0  0  0  0  0  0  0
   -1.4470    3.3159    3.2625 H   0  0  0  0  0  0  0  0  0  0  0  0
    0.3243    3.3682    3.3896 H   0  0  0  0  0  0  0  0  0  0  0  0
   -0.4850    3.9172    1.9023 H   0  0  0  0  0  0  0  0  0  0  0  0
  5  6  2  0  0  0  0
  5  7  1  0  0  0  0
  2  3  1  0  0  0  0
  2  4  1  0  0  0  0
  2  5  1  0  0  0  0
  1  2  1  0  0  0  0
 27 28  2  0  0  0  0
 27 29  1  0  0  0  0
 23 24  1  0  0  0  0
 23 25  1  0  0  0  0
 23 26  1  0  0  0  0
 20 21  1  0  0  0  0
 20 22  1  0  0  0  0
 20 23  1  0  0  0  0
 17 18  1  0  0  0  0
 17 19  1  0  0  0  0
 17 20  1  0  0  0  0
 14 15  1  0  0  0  0
 14 16  1  0  0  0  0
 14 17  1  0  0  0  0
 11 12  1  0  0  0  0
 11 13  1  0  0  0  0
 11 14  1  0  0  0  0
  9 10  1  0  0  0  0
  9 11  1  0  0  0  0
  9 27  1  0  0  0  0
  7  8  1  0  0  0  0
  7  9  1  0  0  0  0
 31 32  1  0  0  0  0
 31 33  1  0  0  0  0
 31 34  1  0  0  0  0
 29 30  1  0  0  0  0
 29 31  1  0  0  0  0
M  CHG  1  23   1
M  END
$$$$
default_name
  -OEChem-02102213163D

 34 33  0     1  0  0  0  0  0999 V2000
   -3.8899   -3.6747    1.6490 H   0  0  0  0  0  0  0  0  0  0  0  0
   -3.9109   -2.6717    1.2250 C   0  0  0  0  0  0  0  0  0  0  0  0
   -4.6009   -2.0517    1.7950 H   0  0  0  0  0  0  0  0  0  0  0  0
   -4.2309   -2.7237    0.1860 H   0  0  0  0  0  0  0  0  0  0  0  0
   -2.5229   -2.0787    1.2980 C   0  0  0  0  0  0  0  0  0  0  0  0
   -1.5999   -2.7227    1.7810 O   0  0  0  0  0  0  0  0  0  0  0  0
   -2.3659   -0.8447    0.8120 N   0  0  0  0  0  0  0  0  0  0  0  0
   -3.1749   -0.3807    0.4220 H   0  0  0  0  0  0  0  0  0  0  0  0
   -1.0919   -0.1077    0.8170 C   0  0  1  0  0  0  0  0  0  0  0  0
   -0.4136   -0.6011    1.5155 H   0  0  0  0  0  0  0  0  0  0  0  0
   -0.4834   -0.1723   -0.5965 C   0  0  0  0  0  0  0  0  0  0  0  0
    0.6038   -0.1416   -0.5086 H   0  0  0  0  0  0  0  0  0  0  0  0
   -0.7602   -1.1196   -1.0633 H   0  0  0  0  0  0  0  0  0  0  0  0
   -0.9276    0.9868   -1.5017 C   0  0  0  0  0  0  0  0  0  0  0  0
   -2.0023    1.1423   -1.3988 H   0  0  0  0  0  0  0  0  0  0  0  0
   -0.4053    1.8975   -1.2020 H   0  0  0  0  0  0  0  0  0  0  0  0
   -0.6024    0.6741   -2.9689 C   0  0  0  0  0  0  0  0  0  0  0  0
    0.4726    0.5042   -3.0660 H   0  0  0  0  0  0  0  0  0  0  0  0
   -1.1342   -0.2319   -3.2662 H   0  0  0  0  0  0  0  0  0  0  0  0
   -1.0228    1.8411   -3.8711 C   0  0  0  0  0  0  0  0  0  0  0  0
   -2.0997    2.0000   -3.7538 H   0  0  0  0  0  0  0  0  0  0  0  0
   -0.5113    2.7461   -3.5298 H   0  0  0  0  0  0  0  0  0  0  0  0
   -0.6975    1.5748   -5.2951 N   0  3  0  0  0  0  0  0  0  0  0  0
   -1.1763    0.7441   -5.6198 H   0  0  0  0  0  0  0  0  0  0  0  0
   -0.9806    2.3537   -5.8766 H   0  0  0  0  0  0  0  0  0  0  0  0
    0.2996    1.4356   -5.4105 H   0  0  0  0  0  0  0  0  0  0  0  0
   -1.3103    1.3348    1.2791 C   0  0  0  0  0  0  0  0  0  0  0  0
   -2.2333    1.9891    0.8084 O   0  0  0  0  0  0  0  0  0  0  0  0
   -0.4429    1.8293    2.1683 N   0  0  0  0  0  0  0  0  0  0  0  0
    0.2668    1.2118    2.5263 H   0  0  0  0  0  0  0  0  0  0  0  0
   -0.5118    3.1863    2.7135 C   0  0  0  0  0  0  0  0  0  0  0  0
   -1.4470    3.3159    3.2625 H   0  0  0  0  0  0  0  0  0  0  0  0
    0.3243    3.3682    3.3896 H   0  0  0  0  0  0  0  0  0  0  0  0
   -0.4850    3.9172    1.9023 H   0  0  0  0  0  0  0  0  0  0  0  0
  5  6  2  0  0  0  0
  5  7  1  0  0  0  0
  2  3  1  0  0  0  0
  2  4  1  0  0  0  0
  2  5  1  0  0  0  0
  1  2  1  0  0  0  0
 27 28  2  0  0  0  0
 27 29  1  0  0  0  0
 23 24  1  0  0  0  0
 23 25  1  0  0  0  0
 23 26  1  0  0  0  0
 20 21  1  0  0  0  0
 20 22  1  0  0  0  0
 20 23  1  0  0  0  0
 17 18  1  0  0  0  0
 17 19  1  0  0  0  0
 17 20  1  0  0  0  0
 14 15  1  0  0  0  0
 14 16  1  0  0  0  0
 14 17  1  0  0  0  0
 11 12  1  0  0  0  0
 11 13  1  0  0  0  0
 11 14  1  0  0  0  0
  9 10  1  0  0  0  0
  9 11  1  0  0  0  0
  9 27  1  0  0  0  0
  7  8  1  0  0  0  0
  7  9  1  0  0  0  0
 31 32  1  0  0  0  0
 31 33  1  0  0  0  0
 31 34  1  0  0  0  0
 29 30  1  0  0  0  0
 29 31  1  0  0  0  0
M  CHG  1  23   1
M  END
$$$$
default_name
  -OEChem-02102213163D

 34 33  0     1  0  0  0  0  0999 V2000
   -3.8899   -3.6747    1.6490 H   0  0  0  0  0  0  0  0  0  0  0  0
   -3.9109   -2.6717    1.2250 C   0  0  0  0  0  0  0  0  0  0  0  0
   -4.6009   -2.0517    1.7950 H   0  0  0  0  0  0  0  0  0  0  0  0
   -4.2309   -2.7237    0.1860 H   0  0  0  0  0  0  0  0  0  0  0  0
   -2.5229   -2.0787    1.2980 C   0  0  0  0  0  0  0  0  0  0  0  0
   -1.5999   -2.7227    1.7810 O   0  0  0  0  0  0  0  0  0  0  0  0
   -2.3659   -0.8447    0.8120 N   0  0  0  0  0  0  0  0  0  0  0  0
   -3.1749   -0.3807    0.4220 H   0  0  0  0  0  0  0  0  0  0  0  0
   -1.0919   -0.1077    0.8170 C   0  0  1  0  0  0  0  0  0  0  0  0
   -0.4136   -0.6011    1.5155 H   0  0  0  0  0  0  0  0  0  0  0  0
   -0.4834   -0.1723   -0.5965 C   0  0  0  0  0  0  0  0  0  0  0  0
    0.6038   -0.1416   -0.5086 H   0  0  0  0  0  0  0  0  0  0  0  0
   -0.7602   -1.1196   -1.0633 H   0  0  0  0  0  0  0  0  0  0  0  0
   -0.9276    0.9868   -1.5017 C   0  0  0  0  0  0  0  0  0  0  0  0
   -1.9255    1.3180   -1.2114 H   0  0  0  0  0  0  0  0  0  0  0  0
   -0.2292    1.8184   -1.3896 H   0  0  0  0  0  0  0  0  0  0  0  0
   -0.9529    0.5391   -2.9697 C   0  0  0  0  0  0  0  0  0  0  0  0
    0.0443    0.1940   -3.2530 H   0  0  0  0  0  0  0  0  0  0  0  0
   -1.6594   -0.2862   -3.0782 H   0  0  0  0  0  0  0  0  0  0  0  0
   -1.3723    1.7023   -3.8773 C   0  0  0  0  0  0  0  0  0  0  0  0
   -2.3689    2.0382   -3.5728 H   0  0  0  0  0  0  0  0  0  0  0  0
   -0.6769    2.5327   -3.7219 H   0  0  0  0  0  0  0  0  0  0  0  0
   -1.3821    1.3029   -5.3073 N   0  3  0  0  0  0  0  0  0  0  0  0
   -2.0318    0.5416   -5.4592 H   0  0  0  0  0  0  0  0  0  0  0  0
   -1.6603    2.0809   -5.8923 H   0  0  0  0  0  0  0  0  0  0  0  0
   -0.4595    0.9995   -5.5965 H   0  0  0  0  0  0  0  0  0  0  0  0
   -1.3103    1.3348    1.2791 C   0  0  0  0  0  0  0  0  0  0  0  0
   -2.2333    1.9891    0.8084 O   0  0  0  0  0  0  0  0  0  0  0  0
   -0.4429    1.8293    2.1683 N   0  0  0  0  0  0  0  0  0  0  0  0
    0.2668    1.2118    2.5263 H   0  0  0  0  0  0  0  0  0  0  0  0
   -0.5118    3.1863    2.7135 C   0  0  0  0  0  0  0  0  0  0  0  0
   -1.4470    3.3159    3.2625 H   0  0  0  0  0  0  0  0  0  0  0  0
    0.3243    3.3682    3.3896 H   0  0  0  0  0  0  0  0  0  0  0  0
   -0.4850    3.9172    1.9023 H   0  0  0  0  0  0  0  0  0  0  0  0
  5  6  2  0  0  0  0
  5  7  1  0  0  0  0
  2  3  1  0  0  0  0
  2  4  1  0  0  0  0
  2  5  1  0  0  0  0
  1  2  1  0  0  0  0
 27 28  2  0  0  0  0
 27 29  1  0  0  0  0
 23 24  1  0  0  0  0
 23 25  1  0  0  0  0
 23 26  1  0  0  0  0
 20 21  1  0  0  0  0
 20 22  1  0  0  0  0
 20 23  1  0  0  0  0
 17 18  1  0  0  0  0
 17 19  1  0  0  0  0
 17 20  1  0  0  0  0
 14 15  1  0  0  0  0
 14 16  1  0  0  0  0
 14 17  1  0  0  0  0
 11 12  1  0  0  0  0
 11 13  1  0  0  0  0
 11 14  1  0  0  0  0
  9 10  1  0  0  0  0
  9 11  1  0  0  0  0
  9 27  1  0  0  0  0
  7  8  1  0  0  0  0
  7  9  1  0  0  0  0
 31 32  1  0  0  0  0
 31 33  1  0  0  0  0
 31 34  1  0  0  0  0
 29 30  1  0  0  0  0
 29 31  1  0  0  0  0
M  CHG  1  23   1
M  END
$$$$
default_name
  -OEChem-02102213163D

 34 33  0     1  0  0  0  0  0999 V2000
   -3.8899   -3.6747    1.6490 H   0  0  0  0  0  0  0  0  0  0  0  0
   -3.9109   -2.6717    1.2250 C   0  0  0  0  0  0  0  0  0  0  0  0
   -4.6009   -2.0517    1.7950 H   0  0  0  0  0  0  0  0  0  0  0  0
   -4.2309   -2.7237    0.1860 H   0  0  0  0  0  0  0  0  0  0  0  0
   -2.5229   -2.0787    1.2980 C   0  0  0  0  0  0  0  0  0  0  0  0
   -1.5999   -2.7227    1.7810 O   0  0  0  0  0  0  0  0  0  0  0  0
   -2.3659   -0.8447    0.8120 N   0  0  0  0  0  0  0  0  0  0  0  0
   -3.1749   -0.3807    0.4220 H   0  0  0  0  0  0  0  0  0  0  0  0
   -1.0919   -0.1077    0.8170 C   0  0  1  0  0  0  0  0  0  0  0  0
   -0.4136   -0.6011    1.5155 H   0  0  0  0  0  0  0  0  0  0  0  0
   -0.4834   -0.1723   -0.5965 C   0  0  0  0  0  0  0  0  0  0  0  0
    0.6038   -0.1416   -0.5086 H   0  0  0  0  0  0  0  0  0  0  0  0
   -0.7602   -1.1196   -1.0633 H   0  0  0  0  0  0  0  0  0  0  0  0
   -0.9276    0.9868   -1.5017 C   0  0  0  0  0  0  0  0  0  0  0  0
   -1.7879    1.4901   -1.0586 H   0  0  0  0  0  0  0  0  0  0  0  0
   -0.1078    1.7012   -1.5992 H   0  0  0  0  0  0  0  0  0  0  0  0
   -1.3122    0.4621   -2.8920 C   0  0  0  0  0  0  0  0  0  0  0  0
   -0.4532   -0.0544   -3.3269 H   0  0  0  0  0  0  0  0  0  0  0  0
   -2.1382   -0.2446   -2.7899 H   0  0  0  0  0  0  0  0  0  0  0  0
   -1.7323    1.6212   -3.8046 C   0  0  0  0  0  0  0  0  0  0  0  0
   -2.5878    2.1297   -3.3482 H   0  0  0  0  0  0  0  0  0  0  0  0
   -0.9068    2.3374   -3.8591 H   0  0  0  0  0  0  0  0  0  0  0  0
   -2.0872    1.1438   -5.1649 N   0  3  0  0  0  0  0  0  0  0  0  0
   -2.8577    0.4885   -5.1219 H   0  0  0  0  0  0  0  0  0  0  0  0
   -2.3615    1.9200   -5.7542 H   0  0  0  0  0  0  0  0  0  0  0  0
   -1.2957    0.6800   -5.5952 H   0  0  0  0  0  0  0  0  0  0  0  0
   -1.3103    1.3348    1.2791 C   0  0  0  0  0  0  0  0  0  0  0  0
   -2.2333    1.9891    0.8084 O   0  0  0  0  0  0  0  0  0  0  0  0
   -0.4429    1.8293    2.1683 N   0  0  0  0  0  0  0  0  0  0  0  0
    0.2668    1.2118    2.5263 H   0  0  0  0  0  0  0  0  0  0  0  0
   -0.5118    3.1863    2.7135 C   0  0  0  0  0  0  0  0  0  0  0  0
   -1.4470    3.3159    3.2625 H   0  0  0  0  0  0  0  0  0  0  0  0
    0.3243    3.3682    3.3896 H   0  0  0  0  0  0  0  0  0  0  0  0
   -0.4850    3.9172    1.9023 H   0  0  0  0  0  0  0  0  0  0  0  0
  5  6  2  0  0  0  0
  5  7  1  0  0  0  0
  2  3  1  0  0  0  0
  2  4  1  0  0  0  0
  2  5  1  0  0  0  0
  1  2  1  0  0  0  0
 27 28  2  0  0  0  0
 27 29  1  0  0  0  0
 23 24  1  0  0  0  0
 23 25  1  0  0  0  0
 23 26  1  0  0  0  0
 20 21  1  0  0  0  0
 20 22  1  0  0  0  0
 20 23  1  0  0  0  0
 17 18  1  0  0  0  0
 17 19  1  0  0  0  0
 17 20  1  0  0  0  0
 14 15  1  0  0  0  0
 14 16  1  0  0  0  0
 14 17  1  0  0  0  0
 11 12  1  0  0  0  0
 11 13  1  0  0  0  0
 11 14  1  0  0  0  0
  9 10  1  0  0  0  0
  9 11  1  0  0  0  0
  9 27  1  0  0  0  0
  7  8  1  0  0  0  0
  7  9  1  0  0  0  0
 31 32  1  0  0  0  0
 31 33  1  0  0  0  0
 31 34  1  0  0  0  0
 29 30  1  0  0  0  0
 29 31  1  0  0  0  0
M  CHG  1  23   1
M  END
$$$$
default_name
  -OEChem-02102213163D

 34 33  0     1  0  0  0  0  0999 V2000
   -3.8899   -3.6747    1.6490 H   0  0  0  0  0  0  0  0  0  0  0  0
   -3.9109   -2.6717    1.2250 C   0  0  0  0  0  0  0  0  0  0  0  0
   -4.6009   -2.0517    1.7950 H   0  0  0  0  0  0  0  0  0  0  0  0
   -4.2309   -2.7237    0.1860 H   0  0  0  0  0  0  0  0  0  0  0  0
   -2.5229   -2.0787    1.2980 C   0  0  0  0  0  0  0  0  0  0  0  0
   -1.5999   -2.7227    1.7810 O   0  0  0  0  0  0  0  0  0  0  0  0
   -2.3659   -0.8447    0.8120 N   0  0  0  0  0  0  0  0  0  0  0  0
   -3.1749   -0.3807    0.4220 H   0  0  0  0  0  0  0  0  0  0  0  0
   -1.0919   -0.1077    0.8170 C   0  0  1  0  0  0  0  0  0  0  0  0
   -0.4136   -0.6011    1.5155 H   0  0  0  0  0  0  0  0  0  0  0  0
   -0.4834   -0.1723   -0.5965 C   0  0  0  0  0  0  0  0  0  0  0  0
    0.6038   -0.1416   -0.5086 H   0  0  0  0  0  0  0  0  0  0  0  0
   -0.7602   -1.1196   -1.0633 H   0  0  0  0  0  0  0  0  0  0  0  0
   -0.9276    0.9868   -1.5017 C   0  0  0  0  0  0  0  0  0  0  0  0
   -1.5989    1.6468   -0.9508 H   0  0  0  0  0  0  0  0  0  0  0  0
   -0.0494    1.5538   -1.8166 H   0  0  0  0  0  0  0  0  0  0  0  0
   -1.6559    0.4484   -2.7410 C   0  0  0  0  0  0  0  0  0  0  0  0
   -0.9860   -0.2239   -3.2825 H   0  0  0  0  0  0  0  0  0  0  0  0
   -2.5380   -0.1098   -2.4211 H   0  0  0  0  0  0  0  0  0  0  0  0
   -2.0782    1.6031   -3.6580 C   0  0  0  0  0  0  0  0  0  0  0  0
   -2.7415    2.2682   -3.0954 H   0  0  0  0  0  0  0  0  0  0  0  0
   -1.1856    2.1735   -3.9322 H   0  0  0  0  0  0  0  0  0  0  0  0
   -2.7648    1.1083   -4.8779 N   0  3  0  0  0  0  0  0  0  0  0  0
   -3.5976    0.5885   -4.6309 H   0  0  0  0  0  0  0  0  0  0  0  0
   -3.0364    1.8818   -5.4719 H   0  0  0  0  0  0  0  0  0  0  0  0
   -2.1518    0.4991   -5.4068 H   0  0  0  0  0  0  0  0  0  0  0  0
   -1.3103    1.3348    1.2791 C   0  0  0  0  0  0  0  0  0  0  0  0
   -2.2333    1.9891    0.8084 O   0  0  0  0  0  0  0  0  0  0  0  0
   -0.4429    1.8293    2.1683 N   0  0  0  0  0  0  0  0  0  0  0  0
    0.2668    1.2118    2.5263 H   0  0  0  0  0  0  0  0  0  0  0  0
   -0.5118    3.1863    2.7135 C   0  0  0  0  0  0  0  0  0  0  0  0
   -1.4470    3.3159    3.2625 H   0  0  0  0  0  0  0  0  0  0  0  0
    0.3243    3.3682    3.3896 H   0  0  0  0  0  0  0  0  0  0  0  0
   -0.4850    3.9172    1.9023 H   0  0  0  0  0  0  0  0  0  0  0  0
  5  6  2  0  0  0  0
  5  7  1  0  0  0  0
  2  3  1  0  0  0  0
  2  4  1  0  0  0  0
  2  5  1  0  0  0  0
  1  2  1  0  0  0  0
 27 28  2  0  0  0  0
 27 29  1  0  0  0  0
 23 24  1  0  0  0  0
 23 25  1  0  0  0  0
 23 26  1  0  0  0  0
 20 21  1  0  0  0  0
 20 22  1  0  0  0  0
 20 23  1  0  0  0  0
 17 18  1  0  0  0  0
 17 19  1  0  0  0  0
 17 20  1  0  0  0  0
 14 15  1  0  0  0  0
 14 16  1  0  0  0  0
 14 17  1  0  0  0  0
 11 12  1  0  0  0  0
 11 13  1  0  0  0  0
 11 14  1  0  0  0  0
  9 10  1  0  0  0  0
  9 11  1  0  0  0  0
  9 27  1  0  0  0  0
  7  8  1  0  0  0  0
  7  9  1  0  0  0  0
 31 32  1  0  0  0  0
 31 33  1  0  0  0  0
 31 34  1  0  0  0  0
 29 30  1  0  0  0  0
 29 31  1  0  0  0  0
M  CHG  1  23   1
M  END
$$$$
default_name
  -OEChem-02102213163D

 34 33  0     1  0  0  0  0  0999 V2000
   -3.8899   -3.6747    1.6490 H   0  0  0  0  0  0  0  0  0  0  0  0
   -3.9109   -2.6717    1.2250 C   0  0  0  0  0  0  0  0  0  0  0  0
   -4.6009   -2.0517    1.7950 H   0  0  0  0  0  0  0  0  0  0  0  0
   -4.2309   -2.7237    0.1860 H   0  0  0  0  0  0  0  0  0  0  0  0
   -2.5229   -2.0787    1.2980 C   0  0  0  0  0  0  0  0  0  0  0  0
   -1.5999   -2.7227    1.7810 O   0  0  0  0  0  0  0  0  0  0  0  0
   -2.3659   -0.8447    0.8120 N   0  0  0  0  0  0  0  0  0  0  0  0
   -3.1749   -0.3807    0.4220 H   0  0  0  0  0  0  0  0  0  0  0  0
   -1.0919   -0.1077    0.8170 C   0  0  1  0  0  0  0  0  0  0  0  0
   -0.4136   -0.6011    1.5155 H   0  0  0  0  0  0  0  0  0  0  0  0
   -0.4834   -0.1723   -0.5965 C   0  0  0  0  0  0  0  0  0  0  0  0
    0.6038   -0.1416   -0.5086 H   0  0  0  0  0  0  0  0  0  0  0  0
   -0.7602   -1.1196   -1.0633 H   0  0  0  0  0  0  0  0  0  0  0  0
   -0.9276    0.9868   -1.5017 C   0  0  0  0  0  0  0  0  0  0  0  0
   -1.3715    1.7774   -0.8952 H   0  0  0  0  0  0  0  0  0  0  0  0
   -0.0579    1.3863   -2.0270 H   0  0  0  0  0  0  0  0  0  0  0  0
   -1.9604    0.4988   -2.5270 C   0  0  0  0  0  0  0  0  0  0  0  0
   -1.5179   -0.3030   -3.1228 H   0  0  0  0  0  0  0  0  0  0  0  0
   -2.8317    0.1090   -1.9968 H   0  0  0  0  0  0  0  0  0  0  0  0
   -2.3864    1.6494   -3.4475 C   0  0  0  0  0  0  0  0  0  0  0  0
   -2.8194    2.4444   -2.8316 H   0  0  0  0  0  0  0  0  0  0  0  0
   -1.4941    2.0523   -3.9360 H   0  0  0  0  0  0  0  0  0  0  0  0
   -3.3687    1.1989   -4.4656 N   0  3  0  0  0  0  0  0  0  0  0  0
   -4.2012    0.8346   -4.0196 H   0  0  0  0  0  0  0  0  0  0  0  0
   -3.6391    1.9690   -5.0646 H   0  0  0  0  0  0  0  0  0  0  0  0
   -2.9695    0.4689   -5.0441 H   0  0  0  0  0  0  0  0  0  0  0  0
   -1.3103    1.3348    1.2791 C   0  0  0  0  0  0  0  0  0  0  0  0
   -2.2333    1.9891    0.8084 O   0  0  0  0  0  0  0  0  0  0  0  0
   -0.4429    1.8293    2.1683 N   0  0  0  0  0  0  0  0  0  0  0  0
    0.2668    1.2118    2.5263 H   0  0  0  0  0  0  0  0  0  0  0  0
   -0.5118    3.1863    2.7135 C   0  0  0  0  0  0  0  0  0  0  0  0
   -1.4470    3.3159    3.2625 H   0  0  0  0  0  0  0  0  0  0  0  0
    0.3243    3.3682    3.3896 H   0  0  0  0  0  0  0  0  0  0  0  0
   -0.4850    3.9172    1.9023 H   0  0  0  0  0  0  0  0  0  0  0  0
  5  6  2  0  0  0  0
  5  7  1  0  0  0  0
  2  3  1  0  0  0  0
  2  4  1  0  0  0  0
  2  5  1  0  0  0  0
  1  2  1  0  0  0  0
 27 28  2  0  0  0  0
 27 29  1  0  0  0  0
 23 24  1  0  0  0  0
 23 25  1  0  0  0  0
 23 26  1  0  0  0  0
 20 21  1  0  0  0  0
 20 22  1  0  0  0  0
 20 23  1  0  0  0  0
 17 18  1  0  0  0  0
 17 19  1  0  0  0  0
 17 20  1  0  0  0  0
 14 15  1  0  0  0  0
 14 16  1  0  0  0  0
 14 17  1  0  0  0  0
 11 12  1  0  0  0  0
 11 13  1  0  0  0  0
 11 14  1  0  0  0  0
  9 10  1  0  0  0  0
  9 11  1  0  0  0  0
  9 27  1  0  0  0  0
  7  8  1  0  0  0  0
  7  9  1  0  0  0  0
 31 32  1  0  0  0  0
 31 33  1  0  0  0  0
 31 34  1  0  0  0  0
 29 30  1  0  0  0  0
 29 31  1  0  0  0  0
M  CHG  1  23   1
M  END
$$$$
default_name
  -OEChem-02102213163D

 34 33  0     1  0  0  0  0  0999 V2000
   -3.8899   -3.6747    1.6490 H   0  0  0  0  0  0  0  0  0  0  0  0
   -3.9109   -2.6717    1.2250 C   0  0  0  0  0  0  0  0  0  0  0  0
   -4.6009   -2.0517    1.7950 H   0  0  0  0  0  0  0  0  0  0  0  0
   -4.2309   -2.7237    0.1860 H   0  0  0  0  0  0  0  0  0  0  0  0
   -2.5229   -2.0787    1.2980 C   0  0  0  0  0  0  0  0  0  0  0  0
   -1.5999   -2.7227    1.7810 O   0  0  0  0  0  0  0  0  0  0  0  0
   -2.3659   -0.8447    0.8120 N   0  0  0  0  0  0  0  0  0  0  0  0
   -3.1749   -0.3807    0.4220 H   0  0  0  0  0  0  0  0  0  0  0  0
   -1.0919   -0.1077    0.8170 C   0  0  1  0  0  0  0  0  0  0  0  0
   -0.4136   -0.6011    1.5155 H   0  0  0  0  0  0  0  0  0  0  0  0
   -0.4834   -0.1723   -0.5965 C   0  0  0  0  0  0  0  0  0  0  0  0
    0.6038   -0.1416   -0.5086 H   0  0  0  0  0  0  0  0  0  0  0  0
   -0.7602   -1.1196   -1.0633 H   0  0  0  0  0  0  0  0  0  0  0  0
   -0.9276    0.9868   -1.5017 C   0  0  0  0  0  0  0  0  0  0  0  0
   -1.1209    1.8729   -0.8957 H   0  0  0  0  0  0  0  0  0  0  0  0
   -0.1327    1.2100   -2.2161 H   0  0  0  0  0  0  0  0  0  0  0  0
   -2.2051    0.6100   -2.2646 C   0  0  0  0  0  0  0  0  0  0  0  0
   -2.0126   -0.2865   -2.8589 H   0  0  0  0  0  0  0  0  0  0  0  0
   -2.9991    0.3968   -1.5461 H   0  0  0  0  0  0  0  0  0  0  0  0
   -2.6359    1.7568   -3.1874 C   0  0  0  0  0  0  0  0  0  0  0  0
   -2.8163    2.6462   -2.5748 H   0  0  0  0  0  0  0  0  0  0  0  0
   -1.8113    1.9820   -3.8704 H   0  0  0  0  0  0  0  0  0  0  0  0
   -3.8577    1.4093   -3.9563 N   0  3  0  0  0  0  0  0  0  0  0  0
   -4.6274    1.2101   -3.3296 H   0  0  0  0  0  0  0  0  0  0  0  0
   -4.1283    2.1756   -4.5600 H   0  0  0  0  0  0  0  0  0  0  0  0
   -3.6932    0.5917   -4.5319 H   0  0  0  0  0  0  0  0  0  0  0  0
   -1.3103    1.3348    1.2791 C   0  0  0  0  0  0  0  0  0  0  0  0
   -2.2333    1.9891    0.8084 O   0  0  0  0  0  0  0  0  0  0  0  0
   -0.4429    1.8293    2.1683 N   0  0  0  0  0  0  0  0  0  0  0  0
    0.2668    1.2118    2.5263 H   0  0  0  0  0  0  0  0  0  0  0  0
   -0.5118    3.1863    2.7135 C   0  0  0  0  0  0  0  0  0  0  0  0
   -1.4470    3.3159    3.2625 H   0  0  0  0  0  0  0  0  0  0  0  0
    0.3243    3.3682    3.3896 H   0  0  0  0  0  0  0  0  0  0  0  0
   -0.4850    3.9172    1.9023 H   0  0  0  0  0  0  0  0  0  0  0  0
  5  6  2  0  0  0  0
  5  7  1  0  0  0  0
  2  3  1  0  0  0  0
  2  4  1  0  0  0  0
  2  5  1  0  0  0  0
  1  2  1  0  0  0  0
 27 28  2  0  0  0  0
 27 29  1  0  0  0  0
 23 24  1  0  0  0  0
 23 25  1  0  0  0  0
 23 26  1  0  0  0  0
 20 21  1  0  0  0  0
 20 22  1  0  0  0  0
 20 23  1  0  0  0  0
 17 18  1  0  0  0  0
 17 19  1  0  0  0  0
 17 20  1  0  0  0  0
 14 15  1  0  0  0  0
 14 16  1  0  0  0  0
 14 17  1  0  0  0  0
 11 12  1  0  0  0  0
 11 13  1  0  0  0  0
 11 14  1  0  0  0  0
  9 10  1  0  0  0  0
  9 11  1  0  0  0  0
  9 27  1  0  0  0  0
  7  8  1  0  0  0  0
  7  9  1  0  0  0  0
 31 32  1  0  0  0  0
 31 33  1  0  0  0  0
 31 34  1  0  0  0  0
 29 30  1  0  0  0  0
 29 31  1  0  0  0  0
M  CHG  1  23   1
M  END
$$$$
default_name
  -OEChem-02102213163D

 34 33  0     1  0  0  0  0  0999 V2000
   -3.8899   -3.6747    1.6490 H   0  0  0  0  0  0  0  0  0  0  0  0
   -3.9109   -2.6717    1.2250 C   0  0  0  0  0  0  0  0  0  0  0  0
   -4.6009   -2.0517    1.7950 H   0  0  0  0  0  0  0  0  0  0  0  0
   -4.2309   -2.7237    0.1860 H   0  0  0  0  0  0  0  0  0  0  0  0
   -2.5229   -2.0787    1.2980 C   0  0  0  0  0  0  0  0  0  0  0  0
   -1.5999   -2.7227    1.7810 O   0  0  0  0  0  0  0  0  0  0  0  0
   -2.3659   -0.8447    0.8120 N   0  0  0  0  0  0  0  0  0  0  0  0
   -3.1749   -0.3807    0.4220 H   0  0  0  0  0  0  0  0  0  0  0  0
   -1.0919   -0.1077    0.8170 C   0  0  1  0  0  0  0  0  0  0  0  0
   -0.4136   -0.6011    1.5155 H   0  0  0  0  0  0  0  0  0  0  0  0
   -0.4834   -0.1723   -0.5965 C   0  0  0  0  0  0  0  0  0  0  0  0
    0.6038   -0.1416   -0.5086 H   0  0  0  0  0  0  0  0  0  0  0  0
   -0.7602   -1.1196   -1.0633 H   0  0  0  0  0  0  0  0  0  0  0  0
   -0.9276    0.9868   -1.5017 C   0  0  0  0  0  0  0  0  0  0  0  0
   -0.8645    1.9270   -0.9523 H   0  0  0  0  0  0  0  0  0  0  0  0
   -0.2688    1.0369   -2.3709 H   0  0  0  0  0  0  0  0  0  0  0  0
   -2.3733    0.7743   -1.9716 C   0  0  0  0  0  0  0  0  0  0  0  0
   -2.4363   -0.1753   -2.5085 H   0  0  0  0  0  0  0  0  0  0  0  0
   -3.0289    0.7342   -1.0995 H   0  0  0  0  0  0  0  0  0  0  0  0
   -2.8098    1.9181   -2.8955 C   0  0  0  0  0  0  0  0  0  0  0  0
   -2.7323    2.8598   -2.3424 H   0  0  0  0  0  0  0  0  0  0  0  0
   -2.1156    1.9673   -3.7398 H   0  0  0  0  0  0  0  0  0  0  0  0
   -4.1984    1.7252   -3.3845 N   0  3  0  0  0  0  0  0  0  0  0  0
   -4.8470    1.6894   -2.6081 H   0  0  0  0  0  0  0  0  0  0  0  0
   -4.4708    2.4875   -3.9925 H   0  0  0  0  0  0  0  0  0  0  0  0
   -4.2734    0.8589   -3.9049 H   0  0  0  0  0  0  0  0  0  0  0  0
   -1.3103    1.3348    1.2791 C   0  0  0  0  0  0  0  0  0  0  0  0
   -2.2333    1.9891    0.8084 O   0  0  0  0  0  0  0  0  0  0  0  0
   -0.4429    1.8293    2.1683 N   0  0  0  0  0  0  0  0  0  0  0  0
    0.2668    1.2118    2.5263 H   0  0  0  0  0  0  0  0  0  0  0  0
   -0.5118    3.1863    2.7135 C   0  0  0  0  0  0  0  0  0  0  0  0
   -1.4470    3.3159    3.2625 H   0  0  0  0  0  0  0  0  0  0  0  0
    0.3243    3.3682    3.3896 H   0  0  0  0  0  0  0  0  0  0  0  0
   -0.4850    3.9172    1.9023 H   0  0  0  0  0  0  0  0  0  0  0  0
  5  6  2  0  0  0  0
  5  7  1  0  0  0  0
  2  3  1  0  0  0  0
  2  4  1  0  0  0  0
  2  5  1  0  0  0  0
  1  2  1  0  0  0  0
 27 28  2  0  0  0  0
 27 29  1  0  0  0  0
 23 24  1  0  0  0  0
 23 25  1  0  0  0  0
 23 26  1  0  0  0  0
 20 21  1  0  0  0  0
 20 22  1  0  0  0  0
 20 23  1  0  0  0  0
 17 18  1  0  0  0  0
 17 19  1  0  0  0  0
 17 20  1  0  0  0  0
 14 15  1  0  0  0  0
 14 16  1  0  0  0  0
 14 17  1  0  0  0  0
 11 12  1  0  0  0  0
 11 13  1  0  0  0  0
 11 14  1  0  0  0  0
  9 10  1  0  0  0  0
  9 11  1  0  0  0  0
  9 27  1  0  0  0  0
  7  8  1  0  0  0  0
  7  9  1  0  0  0  0
 31 32  1  0  0  0  0
 31 33  1  0  0  0  0
 31 34  1  0  0  0  0
 29 30  1  0  0  0  0
 29 31  1  0  0  0  0
M  CHG  1  23   1
M  END
$$$$
default_name
  -OEChem-02102213163D

 34 33  0     1  0  0  0  0  0999 V2000
   -3.8899   -3.6747    1.6490 H   0  0  0  0  0  0  0  0  0  0  0  0
   -3.9109   -2.6717    1.2250 C   0  0  0  0  0  0  0  0  0  0  0  0
   -4.6009   -2.0517    1.7950 H   0  0  0  0  0  0  0  0  0  0  0  0
   -4.2309   -2.7237    0.1860 H   0  0  0  0  0  0  0  0  0  0  0  0
   -2.5229   -2.0787    1.2980 C   0  0  0  0  0  0  0  0  0  0  0  0
   -1.5999   -2.7227    1.7810 O   0  0  0  0  0  0  0  0  0  0  0  0
   -2.3659   -0.8447    0.8120 N   0  0  0  0  0  0  0  0  0  0  0  0
   -3.1749   -0.3807    0.4220 H   0  0  0  0  0  0  0  0  0  0  0  0
   -1.0919   -0.1077    0.8170 C   0  0  1  0  0  0  0  0  0  0  0  0
   -0.4136   -0.6011    1.5155 H   0  0  0  0  0  0  0  0  0  0  0  0
   -0.4834   -0.1723   -0.5965 C   0  0  0  0  0  0  0  0  0  0  0  0
    0.6038   -0.1416   -0.5086 H   0  0  0  0  0  0  0  0  0  0  0  0
   -0.7602   -1.1196   -1.0633 H   0  0  0  0  0  0  0  0  0  0  0  0
   -0.9276    0.9868   -1.5017 C   0  0  0  0  0  0  0  0  0  0  0  0
   -0.6196    1.9359   -1.0611 H   0  0  0  0  0  0  0  0  0  0  0  0
   -0.4569    0.8789   -2.4809 H   0  0  0  0  0  0  0  0  0  0  0  0
   -2.4535    0.9806   -1.6682 C   0  0  0  0  0  0  0  0  0  0  0  0
   -2.7602    0.0230   -2.0957 H   0  0  0  0  0  0  0  0  0  0  0  0
   -2.9191    1.0980   -0.6876 H   0  0  0  0  0  0  0  0  0  0  0  0
   -2.8962    2.1223   -2.5917 C   0  0  0  0  0  0  0  0  0  0  0  0
   -2.5733    3.0708   -2.1503 H   0  0  0  0  0  0  0  0  0  0  0  0
   -2.3863    2.0093   -3.5532 H   0  0  0  0  0  0  0  0  0  0  0  0
   -4.3677    2.1251   -2.7894 N   0  3  0  0  0  0  0  0  0  0  0  0
   -4.8451    2.2399   -1.9041 H   0  0  0  0  0  0  0  0  0  0  0  0
   -4.6433    2.8835   -3.4008 H   0  0  0  0  0  0  0  0  0  0  0  0
   -4.6707    1.2525   -3.2060 H   0  0  0  0  0  0  0  0  0  0  0  0
   -1.3103    1.3348    1.2791 C   0  0  0  0  0  0  0  0  0  0  0  0
   -2.2333    1.9891    0.8084 O   0  0  0  0  0  0  0  0  0  0  0  0
   -0.4429    1.8293    2.1683 N   0  0  0  0  0  0  0  0  0  0  0  0
    0.2668    1.2118    2.5263 H   0  0  0  0  0  0  0  0  0  0  0  0
   -0.5118    3.1863    2.7135 C   0  0  0  0  0  0  0  0  0  0  0  0
   -1.4470    3.3159    3.2625 H   0  0  0  0  0  0  0  0  0  0  0  0
    0.3243    3.3682    3.3896 H   0  0  0  0  0  0  0  0  0  0  0  0
   -0.4850    3.9172    1.9023 H   0  0  0  0  0  0  0  0  0  0  0  0
  5  6  2  0  0  0  0
  5  7  1  0  0  0  0
  2  3  1  0  0  0  0
  2  4  1  0  0  0  0
  2  5  1  0  0  0  0
  1  2  1  0  0  0  0
 27 28  2  0  0  0  0
 27 29  1  0  0  0  0
 23 24  1  0  0  0  0
 23 25  1  0  0  0  0
 23 26  1  0  0  0  0
 20 21  1  0  0  0  0
 20 22  1  0  0  0  0
 20 23  1  0  0  0  0
 17 18  1  0  0  0  0
 17 19  1  0  0  0  0
 17 20  1  0  0  0  0
 14 15  1  0  0  0  0
 14 16  1  0  0  0  0
 14 17  1  0  0  0  0
 11 12  1  0  0  0  0
 11 13  1  0  0  0  0
 11 14  1  0  0  0  0
  9 10  1  0  0  0  0
  9 11  1  0  0  0  0
  9 27  1  0  0  0  0
  7  8  1  0  0  0  0
  7  9  1  0  0  0  0
 31 32  1  0  0  0  0
 31 33  1  0  0  0  0
 31 34  1  0  0  0  0
 29 30  1  0  0  0  0
 29 31  1  0  0  0  0
M  CHG  1  23   1
M  END
$$$$
default_name
  -OEChem-02102213163D

 34 33  0     1  0  0  0  0  0999 V2000
   -3.8899   -3.6747    1.6490 H   0  0  0  0  0  0  0  0  0  0  0  0
   -3.9109   -2.6717    1.2250 C   0  0  0  0  0  0  0  0  0  0  0  0
   -4.6009   -2.0517    1.7950 H   0  0  0  0  0  0  0  0  0  0  0  0
   -4.2309   -2.7237    0.1860 H   0  0  0  0  0  0  0  0  0  0  0  0
   -2.5229   -2.0787    1.2980 C   0  0  0  0  0  0  0  0  0  0  0  0
   -1.5999   -2.7227    1.7810 O   0  0  0  0  0  0  0  0  0  0  0  0
   -2.3659   -0.8447    0.8120 N   0  0  0  0  0  0  0  0  0  0  0  0
   -3.1749   -0.3807    0.4220 H   0  0  0  0  0  0  0  0  0  0  0  0
   -1.0919   -0.1077    0.8170 C   0  0  1  0  0  0  0  0  0  0  0  0
   -0.4136   -0.6011    1.5155 H   0  0  0  0  0  0  0  0  0  0  0  0
   -0.4834   -0.1723   -0.5965 C   0  0  0  0  0  0  0  0  0  0  0  0
    0.6038   -0.1416   -0.5086 H   0  0  0  0  0  0  0  0  0  0  0  0
   -0.7602   -1.1196   -1.0633 H   0  0  0  0  0  0  0  0  0  0  0  0
   -0.9276    0.9868   -1.5017 C   0  0  0  0  0  0  0  0  0  0  0  0
   -0.4029    1.8991   -1.2146 H   0  0  0  0  0  0  0  0  0  0  0  0
   -0.6841    0.7468   -2.5386 H   0  0  0  0  0  0  0  0  0  0  0  0
   -2.4402    1.2148   -1.3748 C   0  0  0  0  0  0  0  0  0  0  0  0
   -2.9622    0.2948   -1.6486 H   0  0  0  0  0  0  0  0  0  0  0  0
   -2.6771    1.4634   -0.3384 H   0  0  0  0  0  0  0  0  0  0  0  0
   -2.8892    2.3554   -2.2967 C   0  0  0  0  0  0  0  0  0  0  0  0
   -2.3500    3.2647   -2.0116 H   0  0  0  0  0  0  0  0  0  0  0  0
   -2.6049    2.1052   -3.3232 H   0  0  0  0  0  0  0  0  0  0  0  0
   -4.3541    2.5817   -2.2114 N   0  3  0  0  0  0  0  0  0  0  0  0
   -4.6219    2.8241   -1.2657 H   0  0  0  0  0  0  0  0  0  0  0  0
   -4.6340    3.3366   -2.8253 H   0  0  0  0  0  0  0  0  0  0  0  0
   -4.8580    1.7455   -2.4828 H   0  0  0  0  0  0  0  0  0  0  0  0
   -1.3103    1.3348    1.2791 C   0  0  0  0  0  0  0  0  0  0  0  0
   -2.2333    1.9891    0.8084 O   0  0  0  0  0  0  0  0  0  0  0  0
   -0.4429    1.8293    2.1683 N   0  0  0  0  0  0  0  0  0  0  0  0
    0.2668    1.2118    2.5263 H   0  0  0  0  0  0  0  0  0  0  0  0
   -0.5118    3.1863    2.7135 C   0  0  0  0  0  0  0  0  0  0  0  0
   -1.4470    3.3159    3.2625 H   0  0  0  0  0  0  0  0  0  0  0  0
    0.3243    3.3682    3.3896 H   0  0  0  0  0  0  0  0  0  0  0  0
   -0.4850    3.9172    1.9023 H   0  0  0  0  0  0  0  0  0  0  0  0
  5  6  2  0  0  0  0
  5  7  1  0  0  0  0
  2  3  1  0  0  0  0
  2  4  1  0  0  0  0
  2  5  1  0  0  0  0
  1  2  1  0  0  0  0
 27 28  2  0  0  0  0
 27 29  1  0  0  0  0
 23 24  1  0  0  0  0
 23 25  1  0  0  0  0
 23 26  1  0  0  0  0
 20 21  1  0  0  0  0
 20 22  1  0  0  0  0
 20 23  1  0  0  0  0
 17 18  1  0  0  0  0
 17 19  1  0  0  0  0
 17 20  1  0  0  0  0
 14 15  1  0  0  0  0
 14 16  1  0  0  0  0
 14 17  1  0  0  0  0
 11 12  1  0  0  0  0
 11 13  1  0  0  0  0
 11 14  1  0  0  0  0
  9 10  1  0  0  0  0
  9 11  1  0  0  0  0
  9 27  1  0  0  0  0
  7  8  1  0  0  0  0
  7  9  1  0  0  0  0
 31 32  1  0  0  0  0
 31 33  1  0  0  0  0
 31 34  1  0  0  0  0
 29 30  1  0  0  0  0
 29 31  1  0  0  0  0
M  CHG  1  23   1
M  END
$$$$
default_name
  -OEChem-02102213163D

 34 33  0     1  0  0  0  0  0999 V2000
   -3.8899   -3.6747    1.6490 H   0  0  0  0  0  0  0  0  0  0  0  0
   -3.9109   -2.6717    1.2250 C   0  0  0  0  0  0  0  0  0  0  0  0
   -4.6009   -2.0517    1.7950 H   0  0  0  0  0  0  0  0  0  0  0  0
   -4.2309   -2.7237    0.1860 H   0  0  0  0  0  0  0  0  0  0  0  0
   -2.5229   -2.0787    1.2980 C   0  0  0  0  0  0  0  0  0  0  0  0
   -1.5999   -2.7227    1.7810 O   0  0  0  0  0  0  0  0  0  0  0  0
   -2.3659   -0.8447    0.8120 N   0  0  0  0  0  0  0  0  0  0  0  0
   -3.1749   -0.3807    0.4220 H   0  0  0  0  0  0  0  0  0  0  0  0
   -1.0919   -0.1077    0.8170 C   0  0  1  0  0  0  0  0  0  0  0  0
   -0.4136   -0.6011    1.5155 H   0  0  0  0  0  0  0  0  0  0  0  0
   -0.4834   -0.1723   -0.5965 C   0  0  0  0  0  0  0  0  0  0  0  0
    0.6038   -0.1416   -0.5086 H   0  0  0  0  0  0  0  0  0  0  0  0
   -0.7602   -1.1196   -1.0633 H   0  0  0  0  0  0  0  0  0  0  0  0
   -0.9276    0.9868   -1.5017 C   0  0  0  0  0  0  0  0  0  0  0  0
   -0.2292    1.8189   -1.4025 H   0  0  0  0  0  0  0  0  0  0  0  0
   -0.9350    0.6495   -2.5400 H   0  0  0  0  0  0  0  0  0  0  0  0
   -2.3344    1.4609   -1.1116 C   0  0  0  0  0  0  0  0  0  0  0  0
   -3.0286    0.6216   -1.1976 H   0  0  0  0  0  0  0  0  0  0  0  0
   -2.3194    1.8057   -0.0757 H   0  0  0  0  0  0  0  0  0  0  0  0
   -2.7892    2.6016   -2.0305 C   0  0  0  0  0  0  0  0  0  0  0  0
   -2.0776    3.4283   -1.9357 H   0  0  0  0  0  0  0  0  0  0  0  0
   -2.7565    2.2483   -3.0655 H   0  0  0  0  0  0  0  0  0  0  0  0
   -4.1584    3.0640   -1.6899 N   0  3  0  0  0  0  0  0  0  0  0  0
   -4.1926    3.4020   -0.7363 H   0  0  0  0  0  0  0  0  0  0  0  0
   -4.4435    3.8159   -2.3050 H   0  0  0  0  0  0  0  0  0  0  0  0
   -4.8225    2.3044   -1.7846 H   0  0  0  0  0  0  0  0  0  0  0  0
   -1.3103    1.3348    1.2791 C   0  0  0  0  0  0  0  0  0  0  0  0
   -2.2333    1.9891    0.8084 O   0  0  0  0  0  0  0  0  0  0  0  0
   -0.4429    1.8293    2.1683 N   0  0  0  0  0  0  0  0  0  0  0  0
    0.2668    1.2118    2.5263 H   0  0  0  0  0  0  0  0  0  0  0  0
   -0.5118    3.1863    2.7135 C   0  0  0  0  0  0  0  0  0  0  0  0
   -1.4470    3.3159    3.2625 H   0  0  0  0  0  0  0  0  0  0  0  0
    0.3243    3.3682    3.3896 H   0  0  0  0  0  0  0  0  0  0  0  0
   -0.4850    3.9172    1.9023 H   0  0  0  0  0  0  0  0  0  0  0  0
  5  6  2  0  0  0  0
  5  7  1  0  0  0  0
  2  3  1  0  0  0  0
  2  4  1  0  0  0  0
  2  5  1  0  0  0  0
  1  2  1  0  0  0  0
 27 28  2  0  0  0  0
 27 29  1  0  0  0  0
 23 24  1  0  0  0  0
 23 25  1  0  0  0  0
 23 26  1  0  0  0  0
 20 21  1  0  0  0  0
 20 22  1  0  0  0  0
 20 23  1  0  0  0  0
 17 18  1  0  0  0  0
 17 19  1  0  0  0  0
 17 20  1  0  0  0  0
 14 15  1  0  0  0  0
 14 16  1  0  0  0  0
 14 17  1  0  0  0  0
 11 12  1  0  0  0  0
 11 13  1  0  0  0  0
 11 14  1  0  0  0  0
  9 10  1  0  0  0  0
  9 11  1  0  0  0  0
  9 27  1  0  0  0  0
  7  8  1  0  0  0  0
  7  9  1  0  0  0  0
 31 32  1  0  0  0  0
 31 33  1  0  0  0  0
 31 34  1  0  0  0  0
 29 30  1  0  0  0  0
 29 31  1  0  0  0  0
M  CHG  1  23   1
M  END
$$$$
default_name
  -OEChem-02102213163D

 34 33  0     1  0  0  0  0  0999 V2000
   -3.8899   -3.6747    1.6490 H   0  0  0  0  0  0  0  0  0  0  0  0
   -3.9109   -2.6717    1.2250 C   0  0  0  0  0  0  0  0  0  0  0  0
   -4.6009   -2.0517    1.7950 H   0  0  0  0  0  0  0  0  0  0  0  0
   -4.2309   -2.7237    0.1860 H   0  0  0  0  0  0  0  0  0  0  0  0
   -2.5229   -2.0787    1.2980 C   0  0  0  0  0  0  0  0  0  0  0  0
   -1.5999   -2.7227    1.7810 O   0  0  0  0  0  0  0  0  0  0  0  0
   -2.3659   -0.8447    0.8120 N   0  0  0  0  0  0  0  0  0  0  0  0
   -3.1749   -0.3807    0.4220 H   0  0  0  0  0  0  0  0  0  0  0  0
   -1.0919   -0.1077    0.8170 C   0  0  1  0  0  0  0  0  0  0  0  0
   -0.4136   -0.6011    1.5155 H   0  0  0  0  0  0  0  0  0  0  0  0
   -0.4834   -0.1723   -0.5965 C   0  0  0  0  0  0  0  0  0  0  0  0
    0.6038   -0.1416   -0.5086 H   0  0  0  0  0  0  0  0  0  0  0  0
   -0.7602   -1.1196   -1.0633 H   0  0  0  0  0  0  0  0  0  0  0  0
   -0.9276    0.9868   -1.5017 C   0  0  0  0  0  0  0  0  0  0  0  0
   -0.1104    1.7009   -1.6119 H   0  0  0  0  0  0  0  0  0  0  0  0
   -1.1925    0.5936   -2.4852 H   0  0  0  0  0  0  0  0  0  0  0  0
   -2.1432    1.7022   -0.8964 C   0  0  0  0  0  0  0  0  0  0  0  0
   -2.9548    0.9811   -0.7734 H   0  0  0  0  0  0  0  0  0  0  0  0
   -1.8704    2.1014    0.0826 H   0  0  0  0  0  0  0  0  0  0  0  0
   -2.6031    2.8441   -1.8113 C   0  0  0  0  0  0  0  0  0  0  0  0
   -1.7748    3.5505   -1.9279 H   0  0  0  0  0  0  0  0  0  0  0  0
   -2.8308    2.4289   -2.7977 H   0  0  0  0  0  0  0  0  0  0  0  0
   -3.7940    3.5390   -1.2605 N   0  3  0  0  0  0  0  0  0  0  0  0
   -3.5863    3.9345   -0.3521 H   0  0  0  0  0  0  0  0  0  0  0  0
   -4.0848    4.2887   -1.8756 H   0  0  0  0  0  0  0  0  0  0  0  0
   -4.5666    2.8911   -1.1590 H   0  0  0  0  0  0  0  0  0  0  0  0
   -1.3103    1.3348    1.2791 C   0  0  0  0  0  0  0  0  0  0  0  0
   -2.2333    1.9891    0.8084 O   0  0  0  0  0  0  0  0  0  0  0  0
   -0.4429    1.8293    2.1683 N   0  0  0  0  0  0  0  0  0  0  0  0
    0.2668    1.2118    2.5263 H   0  0  0  0  0  0  0  0  0  0  0  0
   -0.5118    3.1863    2.7135 C   0  0  0  0  0  0  0  0  0  0  0  0
   -1.4470    3.3159    3.2625 H   0  0  0  0  0  0  0  0  0  0  0  0
    0.3243    3.3682    3.3896 H   0  0  0  0  0  0  0  0  0  0  0  0
   -0.4850    3.9172    1.9023 H   0  0  0  0  0  0  0  0  0  0  0  0
  5  6  2  0  0  0  0
  5  7  1  0  0  0  0
  2  3  1  0  0  0  0
  2  4  1  0  0  0  0
  2  5  1  0  0  0  0
  1  2  1  0  0  0  0
 27 28  2  0  0  0  0
 27 29  1  0  0  0  0
 23 24  1  0  0  0  0
 23 25  1  0  0  0  0
 23 26  1  0  0  0  0
 20 21  1  0  0  0  0
 20 22  1  0  0  0  0
 20 23  1  0  0  0  0
 17 18  1  0  0  0  0
 17 19  1  0  0  0  0
 17 20  1  0  0  0  0
 14 15  1  0  0  0  0
 14 16  1  0  0  0  0
 14 17  1  0  0  0  0
 11 12  1  0  0  0  0
 11 13  1  0  0  0  0
 11 14  1  0  0  0  0
  9 10  1  0  0  0  0
  9 11  1  0  0  0  0
  9 27  1  0  0  0  0
  7  8  1  0  0  0  0
  7  9  1  0  0  0  0
 31 32  1  0  0  0  0
 31 33  1  0  0  0  0
 31 34  1  0  0  0  0
 29 30  1  0  0  0  0
 29 31  1  0  0  0  0
M  CHG  1  23   1
M  END
$$$$
default_name
  -OEChem-02102213163D

 34 33  0     1  0  0  0  0  0999 V2000
   -3.8899   -3.6747    1.6490 H   0  0  0  0  0  0  0  0  0  0  0  0
   -3.9109   -2.6717    1.2250 C   0  0  0  0  0  0  0  0  0  0  0  0
   -4.6009   -2.0517    1.7950 H   0  0  0  0  0  0  0  0  0  0  0  0
   -4.2309   -2.7237    0.1860 H   0  0  0  0  0  0  0  0  0  0  0  0
   -2.5229   -2.0787    1.2980 C   0  0  0  0  0  0  0  0  0  0  0  0
   -1.5999   -2.7227    1.7810 O   0  0  0  0  0  0  0  0  0  0  0  0
   -2.3659   -0.8447    0.8120 N   0  0  0  0  0  0  0  0  0  0  0  0
   -3.1749   -0.3807    0.4220 H   0  0  0  0  0  0  0  0  0  0  0  0
   -1.0919   -0.1077    0.8170 C   0  0  1  0  0  0  0  0  0  0  0  0
   -0.4136   -0.6011    1.5155 H   0  0  0  0  0  0  0  0  0  0  0  0
   -0.4834   -0.1723   -0.5965 C   0  0  0  0  0  0  0  0  0  0  0  0
    0.6038   -0.1416   -0.5086 H   0  0  0  0  0  0  0  0  0  0  0  0
   -0.7602   -1.1196   -1.0633 H   0  0  0  0  0  0  0  0  0  0  0  0
   -0.9276    0.9868   -1.5017 C   0  0  0  0  0  0  0  0  0  0  0  0
   -0.0545    1.5531   -1.8286 H   0  0  0  0  0  0  0  0  0  0  0  0
   -1.4390    0.5831   -2.3777 H   0  0  0  0  0  0  0  0  0  0  0  0
   -1.8797    1.9223   -0.7439 C   0  0  0  0  0  0  0  0  0  0  0  0
   -2.7459    1.3489   -0.4050 H   0  0  0  0  0  0  0  0  0  0  0  0
   -1.3607    2.3304    0.1257 H   0  0  0  0  0  0  0  0  0  0  0  0
   -2.3436    3.0664   -1.6541 C   0  0  0  0  0  0  0  0  0  0  0  0
   -1.4621    3.6230   -1.9886 H   0  0  0  0  0  0  0  0  0  0  0  0
   -2.8228    2.6348   -2.5381 H   0  0  0  0  0  0  0  0  0  0  0  0
   -3.2858    3.9744   -0.9525 N   0  3  0  0  0  0  0  0  0  0  0  0
   -2.8445    4.3851   -0.1392 H   0  0  0  0  0  0  0  0  0  0  0  0
   -3.5824    4.7229   -1.5662 H   0  0  0  0  0  0  0  0  0  0  0  0
   -4.1078    3.4656   -0.6485 H   0  0  0  0  0  0  0  0  0  0  0  0
   -1.3103    1.3348    1.2791 C   0  0  0  0  0  0  0  0  0  0  0  0
   -2.2333    1.9891    0.8084 O   0  0  0  0  0  0  0  0  0  0  0  0
   -0.4429    1.8293    2.1683 N   0  0  0  0  0  0  0  0  0  0  0  0
    0.2668    1.2118    2.5263 H   0  0  0  0  0  0  0  0  0  0  0  0
   -0.5118    3.1863    2.7135 C   0  0  0  0  0  0  0  0  0  0  0  0
   -1.4470    3.3159    3.2625 H   0  0  0  0  0  0  0  0  0  0  0  0
    0.3243    3.3682    3.3896 H   0  0  0  0  0  0  0  0  0  0  0  0
   -0.4850    3.9172    1.9023 H   0  0  0  0  0  0  0  0  0  0  0  0
  5  6  2  0  0  0  0
  5  7  1  0  0  0  0
  2  3  1  0  0  0  0
  2  4  1  0  0  0  0
  2  5  1  0  0  0  0
  1  2  1  0  0  0  0
 27 28  2  0  0  0  0
 27 29  1  0  0  0  0
 23 24  1  0  0  0  0
 23 25  1  0  0  0  0
 23 26  1  0  0  0  0
 20 21  1  0  0  0  0
 20 22  1  0  0  0  0
 20 23  1  0  0  0  0
 17 18  1  0  0  0  0
 17 19  1  0  0  0  0
 17 20  1  0  0  0  0
 14 15  1  0  0  0  0
 14 16  1  0  0  0  0
 14 17  1  0  0  0  0
 11 12  1  0  0  0  0
 11 13  1  0  0  0  0
 11 14  1  0  0  0  0
  9 10  1  0  0  0  0
  9 11  1  0  0  0  0
  9 27  1  0  0  0  0
  7  8  1  0  0  0  0
  7  9  1  0  0  0  0
 31 32  1  0  0  0  0
 31 33  1  0  0  0  0
 31 34  1  0  0  0  0
 29 30  1  0  0  0  0
 29 31  1  0  0  0  0
M  CHG  1  23   1
M  END
$$$$
default_name
  -OEChem-02102213163D

 34 33  0     1  0  0  0  0  0999 V2000
   -3.8899   -3.6747    1.6490 H   0  0  0  0  0  0  0  0  0  0  0  0
   -3.9109   -2.6717    1.2250 C   0  0  0  0  0  0  0  0  0  0  0  0
   -4.6009   -2.0517    1.7950 H   0  0  0  0  0  0  0  0  0  0  0  0
   -4.2309   -2.7237    0.1860 H   0  0  0  0  0  0  0  0  0  0  0  0
   -2.5229   -2.0787    1.2980 C   0  0  0  0  0  0  0  0  0  0  0  0
   -1.5999   -2.7227    1.7810 O   0  0  0  0  0  0  0  0  0  0  0  0
   -2.3659   -0.8447    0.8120 N   0  0  0  0  0  0  0  0  0  0  0  0
   -3.1749   -0.3807    0.4220 H   0  0  0  0  0  0  0  0  0  0  0  0
   -1.0919   -0.1077    0.8170 C   0  0  1  0  0  0  0  0  0  0  0  0
   -0.4136   -0.6011    1.5155 H   0  0  0  0  0  0  0  0  0  0  0  0
   -0.4834   -0.1723   -0.5965 C   0  0  0  0  0  0  0  0  0  0  0  0
    0.6038   -0.1416   -0.5086 H   0  0  0  0  0  0  0  0  0  0  0  0
   -0.7602   -1.1196   -1.0633 H   0  0  0  0  0  0  0  0  0  0  0  0
   -0.9276    0.9868   -1.5017 C   0  0  0  0  0  0  0  0  0  0  0  0
   -0.0653    1.3857   -2.0377 H   0  0  0  0  0  0  0  0  0  0  0  0
   -1.6577    0.6185   -2.2250 H   0  0  0  0  0  0  0  0  0  0  0  0
   -1.5619    2.1061   -0.6645 C   0  0  0  0  0  0  0  0  0  0  0  0
   -2.4160    1.6999   -0.1175 H   0  0  0  0  0  0  0  0  0  0  0  0
   -0.8250    2.4771    0.0506 H   0  0  0  0  0  0  0  0  0  0  0  0
   -2.0284    3.2532   -1.5695 C   0  0  0  0  0  0  0  0  0  0  0  0
   -1.1609    3.6407   -2.1137 H   0  0  0  0  0  0  0  0  0  0  0  0
   -2.7329    2.8519   -2.3043 H   0  0  0  0  0  0  0  0  0  0  0  0
   -2.6683    4.3405   -0.7867 N   0  3  0  0  0  0  0  0  0  0  0  0
   -2.0177    4.7231   -0.1121 H   0  0  0  0  0  0  0  0  0  0  0  0
   -2.9705    5.0888   -1.3980 H   0  0  0  0  0  0  0  0  0  0  0  0
   -3.4773    3.9888   -0.2880 H   0  0  0  0  0  0  0  0  0  0  0  0
   -1.3103    1.3348    1.2791 C   0  0  0  0  0  0  0  0  0  0  0  0
   -2.2333    1.9891    0.8084 O   0  0  0  0  0  0  0  0  0  0  0  0
   -0.4429    1.8293    2.1683 N   0  0  0  0  0  0  0  0  0  0  0  0
    0.2668    1.2118    2.5263 H   0  0  0  0  0  0  0  0  0  0  0  0
   -0.5118    3.1863    2.7135 C   0  0  0  0  0  0  0  0  0  0  0  0
   -1.4470    3.3159    3.2625 H   0  0  0  0  0  0  0  0  0  0  0  0
    0.3243    3.3682    3.3896 H   0  0  0  0  0  0  0  0  0  0  0  0
   -0.4850    3.9172    1.9023 H   0  0  0  0  0  0  0  0  0  0  0  0
  5  6  2  0  0  0  0
  5  7  1  0  0  0  0
  2  3  1  0  0  0  0
  2  4  1  0  0  0  0
  2  5  1  0  0  0  0
  1  2  1  0  0  0  0
 27 28  2  0  0  0  0
 27 29  1  0  0  0  0
 23 24  1  0  0  0  0
 23 25  1  0  0  0  0
 23 26  1  0  0  0  0
 20 21  1  0  0  0  0
 20 22  1  0  0  0  0
 20 23  1  0  0  0  0
 17 18  1  0  0  0  0
 17 19  1  0  0  0  0
 17 20  1  0  0  0  0
 14 15  1  0  0  0  0
 14 16  1  0  0  0  0
 14 17  1  0  0  0  0
 11 12  1  0  0  0  0
 11 13  1  0  0  0  0
 11 14  1  0  0  0  0
  9 10  1  0  0  0  0
  9 11  1  0  0  0  0
  9 27  1  0  0  0  0
  7  8  1  0  0  0  0
  7  9  1  0  0  0  0
 31 32  1  0  0  0  0
 31 33  1  0  0  0  0
 31 34  1  0  0  0  0
 29 30  1  0  0  0  0
 29 31  1  0  0  0  0
M  CHG  1  23   1
M  END
$$$$
default_name
  -OEChem-02102213163D

 34 33  0     1  0  0  0  0  0999 V2000
   -3.8899   -3.6747    1.6490 H   0  0  0  0  0  0  0  0  0  0  0  0
   -3.9109   -2.6717    1.2250 C   0  0  0  0  0  0  0  0  0  0  0  0
   -4.6009   -2.0517    1.7950 H   0  0  0  0  0  0  0  0  0  0  0  0
   -4.2309   -2.7237    0.1860 H   0  0  0  0  0  0  0  0  0  0  0  0
   -2.5229   -2.0787    1.2980 C   0  0  0  0  0  0  0  0  0  0  0  0
   -1.5999   -2.7227    1.7810 O   0  0  0  0  0  0  0  0  0  0  0  0
   -2.3659   -0.8447    0.8120 N   0  0  0  0  0  0  0  0  0  0  0  0
   -3.1749   -0.3807    0.4220 H   0  0  0  0  0  0  0  0  0  0  0  0
   -1.0919   -0.1077    0.8170 C   0  0  1  0  0  0  0  0  0  0  0  0
   -0.4136   -0.6011    1.5155 H   0  0  0  0  0  0  0  0  0  0  0  0
   -0.4834   -0.1723   -0.5965 C   0  0  0  0  0  0  0  0  0  0  0  0
    0.6038   -0.1416   -0.5086 H   0  0  0  0  0  0  0  0  0  0  0  0
   -0.7602   -1.1196   -1.0633 H   0  0  0  0  0  0  0  0  0  0  0  0
   -0.9276    0.9868   -1.5017 C   0  0  0  0  0  0  0  0  0  0  0  0
   -0.1421    1.2099   -2.2250 H   0  0  0  0  0  0  0  0  0  0  0  0
   -1.8338    0.6975   -2.0375 H   0  0  0  0  0  0  0  0  0  0  0  0
   -1.2114    2.2411   -0.6637 C   0  0  0  0  0  0  0  0  0  0  0  0
   -1.9878    2.0101    0.0696 H   0  0  0  0  0  0  0  0  0  0  0  0
   -0.2999    2.5314   -0.1374 H   0  0  0  0  0  0  0  0  0  0  0  0
   -1.6789    3.3919   -1.5634 C   0  0  0  0  0  0  0  0  0  0  0  0
   -0.8917    3.6025   -2.2947 H   0  0  0  0  0  0  0  0  0  0  0  0
   -2.5673    3.0653   -2.1122 H   0  0  0  0  0  0  0  0  0  0  0  0
   -1.9837    4.6123   -0.7746 N   0  3  0  0  0  0  0  0  0  0  0  0
   -1.1622    4.9255   -0.2726 H   0  0  0  0  0  0  0  0  0  0  0  0
   -2.2908    5.3615   -1.3823 H   0  0  0  0  0  0  0  0  0  0  0  0
   -2.7181    4.4250   -0.1020 H   0  0  0  0  0  0  0  0  0  0  0  0
   -1.3103    1.3348    1.2791 C   0  0  0  0  0  0  0  0  0  0  0  0
   -2.2333    1.9891    0.8084 O   0  0  0  0  0  0  0  0  0  0  0  0
   -0.4429    1.8293    2.1683 N   0  0  0  0  0  0  0  0  0  0  0  0
    0.2668    1.2118    2.5263 H   0  0  0  0  0  0  0  0  0  0  0  0
   -0.5118    3.1863    2.7135 C   0  0  0  0  0  0  0  0  0  0  0  0
   -1.4470    3.3159    3.2625 H   0  0  0  0  0  0  0  0  0  0  0  0
    0.3243    3.3682    3.3896 H   0  0  0  0  0  0  0  0  0  0  0  0
   -0.4850    3.9172    1.9023 H   0  0  0  0  0  0  0  0  0  0  0  0
  5  6  2  0  0  0  0
  5  7  1  0  0  0  0
  2  3  1  0  0  0  0
  2  4  1  0  0  0  0
  2  5  1  0  0  0  0
  1  2  1  0  0  0  0
 27 28  2  0  0  0  0
 27 29  1  0  0  0  0
 23 24  1  0  0  0  0
 23 25  1  0  0  0  0
 23 26  1  0  0  0  0
 20 21  1  0  0  0  0
 20 22  1  0  0  0  0
 20 23  1  0  0  0  0
 17 18  1  0  0  0  0
 17 19  1  0  0  0  0
 17 20  1  0  0  0  0
 14 15  1  0  0  0  0
 14 16  1  0  0  0  0
 14 17  1  0  0  0  0
 11 12  1  0  0  0  0
 11 13  1  0  0  0  0
 11 14  1  0  0  0  0
  9 10  1  0  0  0  0
  9 11  1  0  0  0  0
  9 27  1  0  0  0  0
  7  8  1  0  0  0  0
  7  9  1  0  0  0  0
 31 32  1  0  0  0  0
 31 33  1  0  0  0  0
 31 34  1  0  0  0  0
 29 30  1  0  0  0  0
 29 31  1  0  0  0  0
M  CHG  1  23   1
M  END
$$$$
default_name
  -OEChem-02102213163D

 34 33  0     1  0  0  0  0  0999 V2000
   -3.8899   -3.6747    1.6490 H   0  0  0  0  0  0  0  0  0  0  0  0
   -3.9109   -2.6717    1.2250 C   0  0  0  0  0  0  0  0  0  0  0  0
   -4.6009   -2.0517    1.7950 H   0  0  0  0  0  0  0  0  0  0  0  0
   -4.2309   -2.7237    0.1860 H   0  0  0  0  0  0  0  0  0  0  0  0
   -2.5229   -2.0787    1.2980 C   0  0  0  0  0  0  0  0  0  0  0  0
   -1.5999   -2.7227    1.7810 O   0  0  0  0  0  0  0  0  0  0  0  0
   -2.3659   -0.8447    0.8120 N   0  0  0  0  0  0  0  0  0  0  0  0
   -3.1749   -0.3807    0.4220 H   0  0  0  0  0  0  0  0  0  0  0  0
   -1.0919   -0.1077    0.8170 C   0  0  1  0  0  0  0  0  0  0  0  0
   -0.4136   -0.6011    1.5155 H   0  0  0  0  0  0  0  0  0  0  0  0
   -0.4834   -0.1723   -0.5965 C   0  0  0  0  0  0  0  0  0  0  0  0
    0.6038   -0.1416   -0.5086 H   0  0  0  0  0  0  0  0  0  0  0  0
   -0.7602   -1.1196   -1.0633 H   0  0  0  0  0  0  0  0  0  0  0  0
   -0.9276    0.9868   -1.5017 C   0  0  0  0  0  0  0  0  0  0  0  0
   -0.2797    1.0379   -2.3778 H   0  0  0  0  0  0  0  0  0  0  0  0
   -1.9552    0.8147   -1.8278 H   0  0  0  0  0  0  0  0  0  0  0  0
   -0.8520    2.3181   -0.7414 C   0  0  0  0  0  0  0  0  0  0  0  0
   -1.4903    2.2584    0.1434 H   0  0  0  0  0  0  0  0  0  0  0  0
    0.1789    2.4898   -0.4257 H   0  0  0  0  0  0  0  0  0  0  0  0
   -1.3189    3.4731   -1.6361 C   0  0  0  0  0  0  0  0  0  0  0  0
   -0.6727    3.5111   -2.5192 H   0  0  0  0  0  0  0  0  0  0  0  0
   -2.3374    3.2607   -1.9750 H   0  0  0  0  0  0  0  0  0  0  0  0
   -1.2785    4.7714   -0.9169 N   0  3  0  0  0  0  0  0  0  0  0  0
   -0.3364    4.9786   -0.6099 H   0  0  0  0  0  0  0  0  0  0  0  0
   -1.5895    5.5225   -1.5204 H   0  0  0  0  0  0  0  0  0  0  0  0
   -1.8820    4.7444   -0.1033 H   0  0  0  0  0  0  0  0  0  0  0  0
   -1.3103    1.3348    1.2791 C   0  0  0  0  0  0  0  0  0  0  0  0
   -2.2333    1.9891    0.8084 O   0  0  0  0  0  0  0  0  0  0  0  0
   -0.4429    1.8293    2.1683 N   0  0  0  0  0  0  0  0  0  0  0  0
    0.2668    1.2118    2.5263 H   0  0  0  0  0  0  0  0  0  0  0  0
   -0.5118    3.1863    2.7135 C   0  0  0  0  0  0  0  0  0  0  0  0
   -1.4470    3.3159    3.2625 H   0  0  0  0  0  0  0  0  0  0  0  0
    0.3243    3.3682    3.3896 H   0  0  0  0  0  0  0  0  0  0  0  0
   -0.4850    3.9172    1.9023 H   0  0  0  0  0  0  0  0  0  0  0  0
  5  6  2  0  0  0  0
  5  7  1  0  0  0  0
  2  3  1  0  0  0  0
  2  4  1  0  0  0  0
  2  5  1  0  0  0  0
  1  2  1  0  0  0  0
 27 28  2  0  0  0  0
 27 29  1  0  0  0  0
 23 24  1  0  0  0  0
 23 25  1  0  0  0  0
 23 26  1  0  0  0  0
 20 21  1  0  0  0  0
 20 22  1  0  0  0  0
 20 23  1  0  0  0  0
 17 18  1  0  0  0  0
 17 19  1  0  0  0  0
 17 20  1  0  0  0  0
 14 15  1  0  0  0  0
 14 16  1  0  0  0  0
 14 17  1  0  0  0  0
 11 12  1  0  0  0  0
 11 13  1  0  0  0  0
 11 14  1  0  0  0  0
  9 10  1  0  0  0  0
  9 11  1  0  0  0  0
  9 27  1  0  0  0  0
  7  8  1  0  0  0  0
  7  9  1  0  0  0  0
 31 32  1  0  0  0  0
 31 33  1  0  0  0  0
 31 34  1  0  0  0  0
 29 30  1  0  0  0  0
 29 31  1  0  0  0  0
M  CHG  1  23   1
M  END
$$$$
default_name
  -OEChem-02102213163D

 34 33  0     1  0  0  0  0  0999 V2000
   -3.8899   -3.6747    1.6490 H   0  0  0  0  0  0  0  0  0  0  0  0
   -3.9109   -2.6717    1.2250 C   0  0  0  0  0  0  0  0  0  0  0  0
   -4.6009   -2.0517    1.7950 H   0  0  0  0  0  0  0  0  0  0  0  0
   -4.2309   -2.7237    0.1860 H   0  0  0  0  0  0  0  0  0  0  0  0
   -2.5229   -2.0787    1.2980 C   0  0  0  0  0  0  0  0  0  0  0  0
   -1.5999   -2.7227    1.7810 O   0  0  0  0  0  0  0  0  0  0  0  0
   -2.3659   -0.8447    0.8120 N   0  0  0  0  0  0  0  0  0  0  0  0
   -3.1749   -0.3807    0.4220 H   0  0  0  0  0  0  0  0  0  0  0  0
   -1.0919   -0.1077    0.8170 C   0  0  1  0  0  0  0  0  0  0  0  0
   -0.4136   -0.6011    1.5155 H   0  0  0  0  0  0  0  0  0  0  0  0
   -0.4834   -0.1723   -0.5965 C   0  0  0  0  0  0  0  0  0  0  0  0
    0.6038   -0.1416   -0.5086 H   0  0  0  0  0  0  0  0  0  0  0  0
   -0.7602   -1.1196   -1.0633 H   0  0  0  0  0  0  0  0  0  0  0  0
   -0.9276    0.9868   -1.5017 C   0  0  0  0  0  0  0  0  0  0  0  0
   -0.4687    0.8812   -2.4857 H   0  0  0  0  0  0  0  0  0  0  0  0
   -2.0136    0.9621   -1.6104 H   0  0  0  0  0  0  0  0  0  0  0  0
   -0.5084    2.3318   -0.8924 C   0  0  0  0  0  0  0  0  0  0  0  0
   -0.9574    2.4279    0.0990 H   0  0  0  0  0  0  0  0  0  0  0  0
    0.5788    2.3550   -0.7945 H   0  0  0  0  0  0  0  0  0  0  0  0
   -0.9730    3.4912   -1.7827 C   0  0  0  0  0  0  0  0  0  0  0  0
   -0.5191    3.3725   -2.7720 H   0  0  0  0  0  0  0  0  0  0  0  0
   -2.0586    3.4245   -1.9019 H   0  0  0  0  0  0  0  0  0  0  0  0
   -0.6009    4.8069   -1.2040 N   0  3  0  0  0  0  0  0  0  0  0  0
    0.4036    4.8787   -1.1010 H   0  0  0  0  0  0  0  0  0  0  0  0
   -0.9146    5.5606   -1.8027 H   0  0  0  0  0  0  0  0  0  0  0  0
   -1.0259    4.9254   -0.2917 H   0  0  0  0  0  0  0  0  0  0  0  0
   -1.3103    1.3348    1.2791 C   0  0  0  0  0  0  0  0  0  0  0  0
   -2.2333    1.9891    0.8084 O   0  0  0  0  0  0  0  0  0  0  0  0
   -0.4429    1.8293    2.1683 N   0  0  0  0  0  0  0  0  0  0  0  0
    0.2668    1.2118    2.5263 H   0  0  0  0  0  0  0  0  0  0  0  0
   -0.5118    3.1863    2.7135 C   0  0  0  0  0  0  0  0  0  0  0  0
   -1.4470    3.3159    3.2625 H   0  0  0  0  0  0  0  0  0  0  0  0
    0.3243    3.3682    3.3896 H   0  0  0  0  0  0  0  0  0  0  0  0
   -0.4850    3.9172    1.9023 H   0  0  0  0  0  0  0  0  0  0  0  0
  5  6  2  0  0  0  0
  5  7  1  0  0  0  0
  2  3  1  0  0  0  0
  2  4  1  0  0  0  0
  2  5  1  0  0  0  0
  1  2  1  0  0  0  0
 27 28  2  0  0  0  0
 27 29  1  0  0  0  0
 23 24  1  0  0  0  0
 23 25  1  0  0  0  0
 23 26  1  0  0  0  0
 20 21  1  0  0  0  0
 20 22  1  0  0  0  0
 20 23  1  0  0  0  0
 17 18  1  0  0  0  0
 17 19  1  0  0  0  0
 17 20  1  0  0  0  0
 14 15  1  0  0  0  0
 14 16  1  0  0  0  0
 14 17  1  0  0  0  0
 11 12  1  0  0  0  0
 11 13  1  0  0  0  0
 11 14  1  0  0  0  0
  9 10  1  0  0  0  0
  9 11  1  0  0  0  0
  9 27  1  0  0  0  0
  7  8  1  0  0  0  0
  7  9  1  0  0  0  0
 31 32  1  0  0  0  0
 31 33  1  0  0  0  0
 31 34  1  0  0  0  0
 29 30  1  0  0  0  0
 29 31  1  0  0  0  0
M  CHG  1  23   1
M  END
$$$$
default_name
  -OEChem-02102213163D

 34 33  0     1  0  0  0  0  0999 V2000
   -3.8899   -3.6747    1.6490 H   0  0  0  0  0  0  0  0  0  0  0  0
   -3.9109   -2.6717    1.2250 C   0  0  0  0  0  0  0  0  0  0  0  0
   -4.6009   -2.0517    1.7950 H   0  0  0  0  0  0  0  0  0  0  0  0
   -4.2309   -2.7237    0.1860 H   0  0  0  0  0  0  0  0  0  0  0  0
   -2.5229   -2.0787    1.2980 C   0  0  0  0  0  0  0  0  0  0  0  0
   -1.5999   -2.7227    1.7810 O   0  0  0  0  0  0  0  0  0  0  0  0
   -2.3659   -0.8447    0.8120 N   0  0  0  0  0  0  0  0  0  0  0  0
   -3.1749   -0.3807    0.4220 H   0  0  0  0  0  0  0  0  0  0  0  0
   -1.0919   -0.1077    0.8170 C   0  0  1  0  0  0  0  0  0  0  0  0
   -0.4136   -0.6011    1.5155 H   0  0  0  0  0  0  0  0  0  0  0  0
   -0.4834   -0.1723   -0.5965 C   0  0  0  0  0  0  0  0  0  0  0  0
    0.6038   -0.1416   -0.5086 H   0  0  0  0  0  0  0  0  0  0  0  0
   -0.7602   -1.1196   -1.0633 H   0  0  0  0  0  0  0  0  0  0  0  0
   -0.9276    0.9868   -1.5017 C   0  0  0  0  0  0  0  0  0  0  0  0
   -0.6962    0.7506   -2.5412 H   0  0  0  0  0  0  0  0  0  0  0  0
   -2.0051    1.1297   -1.4000 H   0  0  0  0  0  0  0  0  0  0  0  0
   -0.2039    2.2814   -1.1065 C   0  0  0  0  0  0  0  0  0  0  0  0
   -0.4256    2.5071   -0.0606 H   0  0  0  0  0  0  0  0  0  0  0  0
    0.8724    2.1362   -1.2188 H   0  0  0  0  0  0  0  0  0  0  0  0
   -0.6648    3.4449   -1.9932 C   0  0  0  0  0  0  0  0  0  0  0  0
   -0.4412    3.1964   -3.0358 H   0  0  0  0  0  0  0  0  0  0  0  0
   -1.7501    3.5457   -1.8981 H   0  0  0  0  0  0  0  0  0  0  0  0
    0.0029    4.7164   -1.6162 N   0  3  0  0  0  0  0  0  0  0  0  0
    1.0072    4.6326   -1.7123 H   0  0  0  0  0  0  0  0  0  0  0  0
   -0.3120    5.4735   -2.2100 H   0  0  0  0  0  0  0  0  0  0  0  0
   -0.2082    4.9555   -0.6544 H   0  0  0  0  0  0  0  0  0  0  0  0
   -1.3103    1.3348    1.2791 C   0  0  0  0  0  0  0  0  0  0  0  0
   -2.2333    1.9891    0.8084 O   0  0  0  0  0  0  0  0  0  0  0  0
   -0.4429    1.8293    2.1683 N   0  0  0  0  0  0  0  0  0  0  0  0
    0.2668    1.2118    2.5263 H   0  0  0  0  0  0  0  0  0  0  0  0
   -0.5118    3.1863    2.7135 C   0  0  0  0  0  0  0  0  0  0  0  0
   -1.4470    3.3159    3.2625 H   0  0  0  0  0  0  0  0  0  0  0  0
    0.3243    3.3682    3.3896 H   0  0  0  0  0  0  0  0  0  0  0  0
   -0.4850    3.9172    1.9023 H   0  0  0  0  0  0  0  0  0  0  0  0
  5  6  2  0  0  0  0
  5  7  1  0  0  0  0
  2  3  1  0  0  0  0
  2  4  1  0  0  0  0
  2  5  1  0  0  0  0
  1  2  1  0  0  0  0
 27 28  2  0  0  0  0
 27 29  1  0  0  0  0
 23 24  1  0  0  0  0
 23 25  1  0  0  0  0
 23 26  1  0  0  0  0
 20 21  1  0  0  0  0
 20 22  1  0  0  0  0
 20 23  1  0  0  0  0
 17 18  1  0  0  0  0
 17 19  1  0  0  0  0
 17 20  1  0  0  0  0
 14 15  1  0  0  0  0
 14 16  1  0  0  0  0
 14 17  1  0  0  0  0
 11 12  1  0  0  0  0
 11 13  1  0  0  0  0
 11 14  1  0  0  0  0
  9 10  1  0  0  0  0
  9 11  1  0  0  0  0
  9 27  1  0  0  0  0
  7  8  1  0  0  0  0
  7  9  1  0  0  0  0
 31 32  1  0  0  0  0
 31 33  1  0  0  0  0
 31 34  1  0  0  0  0
 29 30  1  0  0  0  0
 29 31  1  0  0  0  0
M  CHG  1  23   1
M  END
$$$$
default_name
  -OEChem-02102213163D

 34 33  0     1  0  0  0  0  0999 V2000
   -3.8899   -3.6747    1.6490 H   0  0  0  0  0  0  0  0  0  0  0  0
   -3.9109   -2.6717    1.2250 C   0  0  0  0  0  0  0  0  0  0  0  0
   -4.6009   -2.0517    1.7950 H   0  0  0  0  0  0  0  0  0  0  0  0
   -4.2309   -2.7237    0.1860 H   0  0  0  0  0  0  0  0  0  0  0  0
   -2.5229   -2.0787    1.2980 C   0  0  0  0  0  0  0  0  0  0  0  0
   -1.5999   -2.7227    1.7810 O   0  0  0  0  0  0  0  0  0  0  0  0
   -2.3659   -0.8447    0.8120 N   0  0  0  0  0  0  0  0  0  0  0  0
   -3.1749   -0.3807    0.4220 H   0  0  0  0  0  0  0  0  0  0  0  0
   -1.0919   -0.1077    0.8170 C   0  0  1  0  0  0  0  0  0  0  0  0
   -0.4136   -0.6011    1.5155 H   0  0  0  0  0  0  0  0  0  0  0  0
   -0.4834   -0.1723   -0.5965 C   0  0  0  0  0  0  0  0  0  0  0  0
    0.6038   -0.1416   -0.5086 H   0  0  0  0  0  0  0  0  0  0  0  0
   -0.7602   -1.1196   -1.0633 H   0  0  0  0  0  0  0  0  0  0  0  0
   -0.9276    0.9868   -1.5017 C   0  0  0  0  0  0  0  0  0  0  0  0
   -0.9467    0.6550   -2.5407 H   0  0  0  0  0  0  0  0  0  0  0  0
   -1.9303    1.3060   -1.2110 H   0  0  0  0  0  0  0  0  0  0  0  0
    0.0408    2.1703   -1.3689 C   0  0  0  0  0  0  0  0  0  0  0  0
    0.0691    2.4905   -0.3246 H   0  0  0  0  0  0  0  0  0  0  0  0
    1.0399    1.8484   -1.6695 H   0  0  0  0  0  0  0  0  0  0  0  0
   -0.4152    3.3375   -2.2533 C   0  0  0  0  0  0  0  0  0  0  0  0
   -0.4443    2.9946   -3.2927 H   0  0  0  0  0  0  0  0  0  0  0  0
   -1.4329    3.6161   -1.9637 H   0  0  0  0  0  0  0  0  0  0  0  0
    0.4919    4.5060   -2.1256 N   0  3  0  0  0  0  0  0  0  0  0  0
    1.4333    4.2571   -2.4023 H   0  0  0  0  0  0  0  0  0  0  0  0
    0.1772    5.2669   -2.7146 H   0  0  0  0  0  0  0  0  0  0  0  0
    0.5155    4.8328   -1.1667 H   0  0  0  0  0  0  0  0  0  0  0  0
   -1.3103    1.3348    1.2791 C   0  0  0  0  0  0  0  0  0  0  0  0
   -2.2333    1.9891    0.8084 O   0  0  0  0  0  0  0  0  0  0  0  0
   -0.4429    1.8293    2.1683 N   0  0  0  0  0  0  0  0  0  0  0  0
    0.2668    1.2118    2.5263 H   0  0  0  0  0  0  0  0  0  0  0  0
   -0.5118    3.1863    2.7135 C   0  0  0  0  0  0  0  0  0  0  0  0
   -1.4470    3.3159    3.2625 H   0  0  0  0  0  0  0  0  0  0  0  0
    0.3243    3.3682    3.3896 H   0  0  0  0  0  0  0  0  0  0  0  0
   -0.4850    3.9172    1.9023 H   0  0  0  0  0  0  0  0  0  0  0  0
  5  6  2  0  0  0  0
  5  7  1  0  0  0  0
  2  3  1  0  0  0  0
  2  4  1  0  0  0  0
  2  5  1  0  0  0  0
  1  2  1  0  0  0  0
 27 28  2  0  0  0  0
 27 29  1  0  0  0  0
 23 24  1  0  0  0  0
 23 25  1  0  0  0  0
 23 26  1  0  0  0  0
 20 21  1  0  0  0  0
 20 22  1  0  0  0  0
 20 23  1  0  0  0  0
 17 18  1  0  0  0  0
 17 19  1  0  0  0  0
 17 20  1  0  0  0  0
 14 15  1  0  0  0  0
 14 16  1  0  0  0  0
 14 17  1  0  0  0  0
 11 12  1  0  0  0  0
 11 13  1  0  0  0  0
 11 14  1  0  0  0  0
  9 10  1  0  0  0  0
  9 11  1  0  0  0  0
  9 27  1  0  0  0  0
  7  8  1  0  0  0  0
  7  9  1  0  0  0  0
 31 32  1  0  0  0  0
 31 33  1  0  0  0  0
 31 34  1  0  0  0  0
 29 30  1  0  0  0  0
 29 31  1  0  0  0  0
M  CHG  1  23   1
M  END
$$$$
default_name
  -OEChem-02102213163D

 34 33  0     1  0  0  0  0  0999 V2000
   -3.8899   -3.6747    1.6490 H   0  0  0  0  0  0  0  0  0  0  0  0
   -3.9109   -2.6717    1.2250 C   0  0  0  0  0  0  0  0  0  0  0  0
   -4.6009   -2.0517    1.7950 H   0  0  0  0  0  0  0  0  0  0  0  0
   -4.2309   -2.7237    0.1860 H   0  0  0  0  0  0  0  0  0  0  0  0
   -2.5229   -2.0787    1.2980 C   0  0  0  0  0  0  0  0  0  0  0  0
   -1.5999   -2.7227    1.7810 O   0  0  0  0  0  0  0  0  0  0  0  0
   -2.3659   -0.8447    0.8120 N   0  0  0  0  0  0  0  0  0  0  0  0
   -3.1749   -0.3807    0.4220 H   0  0  0  0  0  0  0  0  0  0  0  0
   -1.0919   -0.1077    0.8170 C   0  0  1  0  0  0  0  0  0  0  0  0
   -0.4136   -0.6011    1.5155 H   0  0  0  0  0  0  0  0  0  0  0  0
   -0.4834   -0.1723   -0.5965 C   0  0  0  0  0  0  0  0  0  0  0  0
    0.6038   -0.1416   -0.5086 H   0  0  0  0  0  0  0  0  0  0  0  0
   -0.7602   -1.1196   -1.0633 H   0  0  0  0  0  0  0  0  0  0  0  0
   -0.9276    0.9868   -1.5017 C   0  0  0  0  0  0  0  0  0  0  0  0
   -1.2031    0.6009   -2.4841 H   0  0  0  0  0  0  0  0  0  0  0  0
   -1.7942    1.4791   -1.0562 H   0  0  0  0  0  0  0  0  0  0  0  0
    0.2090    2.0059   -1.6618 C   0  0  0  0  0  0  0  0  0  0  0  0
    0.4928    2.3793   -0.6749 H   0  0  0  0  0  0  0  0  0  0  0  0
    1.0697    1.5110   -2.1161 H   0  0  0  0  0  0  0  0  0  0  0  0
   -0.2413    3.1762   -2.5452 C   0  0  0  0  0  0  0  0  0  0  0  0
   -0.5282    2.7809   -3.5251 H   0  0  0  0  0  0  0  0  0  0  0  0
   -1.1286    3.6307   -2.0943 H   0  0  0  0  0  0  0  0  0  0  0  0
    0.8326    4.1900   -2.6973 N   0  3  0  0  0  0  0  0  0  0  0  0
    1.6529    3.7777   -3.1238 H   0  0  0  0  0  0  0  0  0  0  0  0
    0.5198    4.9550   -3.2821 H   0  0  0  0  0  0  0  0  0  0  0  0
    1.0957    4.5655   -1.7936 H   0  0  0  0  0  0  0  0  0  0  0  0
   -1.3103    1.3348    1.2791 C   0  0  0  0  0  0  0  0  0  0  0  0
   -2.2333    1.9891    0.8084 O   0  0  0  0  0  0  0  0  0  0  0  0
   -0.4429    1.8293    2.1683 N   0  0  0  0  0  0  0  0  0  0  0  0
    0.2668    1.2118    2.5263 H   0  0  0  0  0  0  0  0  0  0  0  0
   -0.5118    3.1863    2.7135 C   0  0  0  0  0  0  0  0  0  0  0  0
   -1.4470    3.3159    3.2625 H   0  0  0  0  0  0  0  0  0  0  0  0
    0.3243    3.3682    3.3896 H   0  0  0  0  0  0  0  0  0  0  0  0
   -0.4850    3.9172    1.9023 H   0  0  0  0  0  0  0  0  0  0  0  0
  5  6  2  0  0  0  0
  5  7  1  0  0  0  0
  2  3  1  0  0  0  0
  2  4  1  0  0  0  0
  2  5  1  0  0  0  0
  1  2  1  0  0  0  0
 27 28  2  0  0  0  0
 27 29  1  0  0  0  0
 23 24  1  0  0  0  0
 23 25  1  0  0  0  0
 23 26  1  0  0  0  0
 20 21  1  0  0  0  0
 20 22  1  0  0  0  0
 20 23  1  0  0  0  0
 17 18  1  0  0  0  0
 17 19  1  0  0  0  0
 17 20  1  0  0  0  0
 14 15  1  0  0  0  0
 14 16  1  0  0  0  0
 14 17  1  0  0  0  0
 11 12  1  0  0  0  0
 11 13  1  0  0  0  0
 11 14  1  0  0  0  0
  9 10  1  0  0  0  0
  9 11  1  0  0  0  0
  9 27  1  0  0  0  0
  7  8  1  0  0  0  0
  7  9  1  0  0  0  0
 31 32  1  0  0  0  0
 31 33  1  0  0  0  0
 31 34  1  0  0  0  0
 29 30  1  0  0  0  0
 29 31  1  0  0  0  0
M  CHG  1  23   1
M  END
$$$$
default_name
  -OEChem-02102213163D

 34 33  0     1  0  0  0  0  0999 V2000
   -3.8899   -3.6747    1.6490 H   0  0  0  0  0  0  0  0  0  0  0  0
   -3.9109   -2.6717    1.2250 C   0  0  0  0  0  0  0  0  0  0  0  0
   -4.6009   -2.0517    1.7950 H   0  0  0  0  0  0  0  0  0  0  0  0
   -4.2309   -2.7237    0.1860 H   0  0  0  0  0  0  0  0  0  0  0  0
   -2.5229   -2.0787    1.2980 C   0  0  0  0  0  0  0  0  0  0  0  0
   -1.5999   -2.7227    1.7810 O   0  0  0  0  0  0  0  0  0  0  0  0
   -2.3659   -0.8447    0.8120 N   0  0  0  0  0  0  0  0  0  0  0  0
   -3.1749   -0.3807    0.4220 H   0  0  0  0  0  0  0  0  0  0  0  0
   -1.0919   -0.1077    0.8170 C   0  0  1  0  0  0  0  0  0  0  0  0
   -0.4136   -0.6011    1.5155 H   0  0  0  0  0  0  0  0  0  0  0  0
   -0.4834   -0.1723   -0.5965 C   0  0  0  0  0  0  0  0  0  0  0  0
    0.6038   -0.1416   -0.5086 H   0  0  0  0  0  0  0  0  0  0  0  0
   -0.7602   -1.1196   -1.0633 H   0  0  0  0  0  0  0  0  0  0  0  0
   -0.9276    0.9868   -1.5017 C   0  0  0  0  0  0  0  0  0  0  0  0
   -1.4480    0.5920   -2.3753 H   0  0  0  0  0  0  0  0  0  0  0  0
   -1.6062    1.6370   -0.9462 H   0  0  0  0  0  0  0  0  0  0  0  0
    0.2892    1.7996   -1.9653 C   0  0  0  0  0  0  0  0  0  0  0  0
    0.8167    2.1811   -1.0877 H   0  0  0  0  0  0  0  0  0  0  0  0
    0.9598    1.1472   -2.5280 H   0  0  0  0  0  0  0  0  0  0  0  0
   -0.1549    2.9720   -2.8490 C   0  0  0  0  0  0  0  0  0  0  0  0
   -0.6873    2.5699   -3.7171 H   0  0  0  0  0  0  0  0  0  0  0  0
   -0.8579    3.5887   -2.2809 H   0  0  0  0  0  0  0  0  0  0  0  0
    1.0020    3.7901   -3.2924 N   0  3  0  0  0  0  0  0  0  0  0  0
    1.6511    3.2272   -3.8278 H   0  0  0  0  0  0  0  0  0  0  0  0
    0.6923    4.5590   -3.8738 H   0  0  0  0  0  0  0  0  0  0  0  0
    1.4930    4.1720   -2.4925 H   0  0  0  0  0  0  0  0  0  0  0  0
   -1.3103    1.3348    1.2791 C   0  0  0  0  0  0  0  0  0  0  0  0
   -2.2333    1.9891    0.8084 O   0  0  0  0  0  0  0  0  0  0  0  0
   -0.4429    1.8293    2.1683 N   0  0  0  0  0  0  0  0  0  0  0  0
    0.2668    1.2118    2.5263 H   0  0  0  0  0  0  0  0  0  0  0  0
   -0.5118    3.1863    2.7135 C   0  0  0  0  0  0  0  0  0  0  0  0
   -1.4470    3.3159    3.2625 H   0  0  0  0  0  0  0  0  0  0  0  0
    0.3243    3.3682    3.3896 H   0  0  0  0  0  0  0  0  0  0  0  0
   -0.4850    3.9172    1.9023 H   0  0  0  0  0  0  0  0  0  0  0  0
  5  6  2  0  0  0  0
  5  7  1  0  0  0  0
  2  3  1  0  0  0  0
  2  4  1  0  0  0  0
  2  5  1  0  0  0  0
  1  2  1  0  0  0  0
 27 28  2  0  0  0  0
 27 29  1  0  0  0  0
 23 24  1  0  0  0  0
 23 25  1  0  0  0  0
 23 26  1  0  0  0  0
 20 21  1  0  0  0  0
 20 22  1  0  0  0  0
 20 23  1  0  0  0  0
 17 18  1  0  0  0  0
 17 19  1  0  0  0  0
 17 20  1  0  0  0  0
 14 15  1  0  0  0  0
 14 16  1  0  0  0  0
 14 17  1  0  0  0  0
 11 12  1  0  0  0  0
 11 13  1  0  0  0  0
 11 14  1  0  0  0  0
  9 10  1  0  0  0  0
  9 11  1  0  0  0  0
  9 27  1  0  0  0  0
  7  8  1  0  0  0  0
  7  9  1  0  0  0  0
 31 32  1  0  0  0  0
 31 33  1  0  0  0  0
 31 34  1  0  0  0  0
 29 30  1  0  0  0  0
 29 31  1  0  0  0  0
M  CHG  1  23   1
M  END
$$$$
default_name
  -OEChem-02102213163D

 34 33  0     1  0  0  0  0  0999 V2000
   -3.8899   -3.6747    1.6490 H   0  0  0  0  0  0  0  0  0  0  0  0
   -3.9109   -2.6717    1.2250 C   0  0  0  0  0  0  0  0  0  0  0  0
   -4.6009   -2.0517    1.7950 H   0  0  0  0  0  0  0  0  0  0  0  0
   -4.2309   -2.7237    0.1860 H   0  0  0  0  0  0  0  0  0  0  0  0
   -2.5229   -2.0787    1.2980 C   0  0  0  0  0  0  0  0  0  0  0  0
   -1.5999   -2.7227    1.7810 O   0  0  0  0  0  0  0  0  0  0  0  0
   -2.3659   -0.8447    0.8120 N   0  0  0  0  0  0  0  0  0  0  0  0
   -3.1749   -0.3807    0.4220 H   0  0  0  0  0  0  0  0  0  0  0  0
   -1.0919   -0.1077    0.8170 C   0  0  1  0  0  0  0  0  0  0  0  0
   -0.4136   -0.6011    1.5155 H   0  0  0  0  0  0  0  0  0  0  0  0
   -0.4834   -0.1723   -0.5965 C   0  0  0  0  0  0  0  0  0  0  0  0
    0.6038   -0.1416   -0.5086 H   0  0  0  0  0  0  0  0  0  0  0  0
   -0.7602   -1.1196   -1.0633 H   0  0  0  0  0  0  0  0  0  0  0  0
   -0.9276    0.9868   -1.5017 C   0  0  0  0  0  0  0  0  0  0  0  0
   -1.6647    0.6289   -2.2218 H   0  0  0  0  0  0  0  0  0  0  0  0
   -1.3789    1.7692   -0.8885 H   0  0  0  0  0  0  0  0  0  0  0  0
    0.2759    1.5654   -2.2586 C   0  0  0  0  0  0  0  0  0  0  0  0
    1.0187    1.9093   -1.5349 H   0  0  0  0  0  0  0  0  0  0  0  0
    0.7178    0.7818   -2.8772 H   0  0  0  0  0  0  0  0  0  0  0  0
   -0.1620    2.7389   -3.1440 C   0  0  0  0  0  0  0  0  0  0  0  0
   -0.9106    2.3760   -3.8559 H   0  0  0  0  0  0  0  0  0  0  0  0
   -0.6393    3.4929   -2.5109 H   0  0  0  0  0  0  0  0  0  0  0  0
    0.9883    3.3335   -3.8704 N   0  3  0  0  0  0  0  0  0  0  0  0
    1.4279    2.6431   -4.4662 H   0  0  0  0  0  0  0  0  0  0  0  0
    0.6829    4.1059   -4.4493 H   0  0  0  0  0  0  0  0  0  0  0  0
    1.6803    3.6789   -3.2157 H   0  0  0  0  0  0  0  0  0  0  0  0
   -1.3103    1.3348    1.2791 C   0  0  0  0  0  0  0  0  0  0  0  0
   -2.2333    1.9891    0.8084 O   0  0  0  0  0  0  0  0  0  0  0  0
   -0.4429    1.8293    2.1683 N   0  0  0  0  0  0  0  0  0  0  0  0
    0.2668    1.2118    2.5263 H   0  0  0  0  0  0  0  0  0  0  0  0
   -0.5118    3.1863    2.7135 C   0  0  0  0  0  0  0  0  0  0  0  0
   -1.4470    3.3159    3.2625 H   0  0  0  0  0  0  0  0  0  0  0  0
    0.3243    3.3682    3.3896 H   0  0  0  0  0  0  0  0  0  0  0  0
   -0.4850    3.9172    1.9023 H   0  0  0  0  0  0  0  0  0  0  0  0
  5  6  2  0  0  0  0
  5  7  1  0  0  0  0
  2  3  1  0  0  0  0
  2  4  1  0  0  0  0
  2  5  1  0  0  0  0
  1  2  1  0  0  0  0
 27 28  2  0  0  0  0
 27 29  1  0  0  0  0
 23 24  1  0  0  0  0
 23 25  1  0  0  0  0
 23 26  1  0  0  0  0
 20 21  1  0  0  0  0
 20 22  1  0  0  0  0
 20 23  1  0  0  0  0
 17 18  1  0  0  0  0
 17 19  1  0  0  0  0
 17 20  1  0  0  0  0
 14 15  1  0  0  0  0
 14 16  1  0  0  0  0
 14 17  1  0  0  0  0
 11 12  1  0  0  0  0
 11 13  1  0  0  0  0
 11 14  1  0  0  0  0
  9 10  1  0  0  0  0
  9 11  1  0  0  0  0
  9 27  1  0  0  0  0
  7  8  1  0  0  0  0
  7  9  1  0  0  0  0
 31 32  1  0  0  0  0
 31 33  1  0  0  0  0
 31 34  1  0  0  0  0
 29 30  1  0  0  0  0
 29 31  1  0  0  0  0
M  CHG  1  23   1
M  END
$$$$
default_name
  -OEChem-02102213163D

 34 33  0     1  0  0  0  0  0999 V2000
   -3.8899   -3.6747    1.6490 H   0  0  0  0  0  0  0  0  0  0  0  0
   -3.9109   -2.6717    1.2250 C   0  0  0  0  0  0  0  0  0  0  0  0
   -4.6009   -2.0517    1.7950 H   0  0  0  0  0  0  0  0  0  0  0  0
   -4.2309   -2.7237    0.1860 H   0  0  0  0  0  0  0  0  0  0  0  0
   -2.5229   -2.0787    1.2980 C   0  0  0  0  0  0  0  0  0  0  0  0
   -1.5999   -2.7227    1.7810 O   0  0  0  0  0  0  0  0  0  0  0  0
   -2.3659   -0.8447    0.8120 N   0  0  0  0  0  0  0  0  0  0  0  0
   -3.1749   -0.3807    0.4220 H   0  0  0  0  0  0  0  0  0  0  0  0
   -1.0919   -0.1077    0.8170 C   0  0  1  0  0  0  0  0  0  0  0  0
   -0.4136   -0.6011    1.5155 H   0  0  0  0  0  0  0  0  0  0  0  0
   -0.4834   -0.1723   -0.5965 C   0  0  0  0  0  0  0  0  0  0  0  0
    0.6038   -0.1416   -0.5086 H   0  0  0  0  0  0  0  0  0  0  0  0
   -0.7602   -1.1196   -1.0633 H   0  0  0  0  0  0  0  0  0  0  0  0
   -0.9276    0.9868   -1.5017 C   0  0  0  0  0  0  0  0  0  0  0  0
   -1.8384    0.7091   -2.0339 H   0  0  0  0  0  0  0  0  0  0  0  0
   -1.1280    1.8665   -0.8870 H   0  0  0  0  0  0  0  0  0  0  0  0
    0.1701    1.3193   -2.5219 C   0  0  0  0  0  0  0  0  0  0  0  0
    1.0851    1.5825   -1.9859 H   0  0  0  0  0  0  0  0  0  0  0  0
    0.3601    0.4395   -3.1399 H   0  0  0  0  0  0  0  0  0  0  0  0
   -0.2619    2.4927   -3.4102 C   0  0  0  0  0  0  0  0  0  0  0  0
   -1.1829    2.2124   -3.9317 H   0  0  0  0  0  0  0  0  0  0  0  0
   -0.4877    3.3497   -2.7686 H   0  0  0  0  0  0  0  0  0  0  0  0
    0.7927    2.8513   -4.3919 N   0  3  0  0  0  0  0  0  0  0  0  0
    0.9985    2.0651   -4.9956 H   0  0  0  0  0  0  0  0  0  0  0  0
    0.4924    3.6266   -4.9696 H   0  0  0  0  0  0  0  0  0  0  0  0
    1.6448    3.1200   -3.9139 H   0  0  0  0  0  0  0  0  0  0  0  0
   -1.3103    1.3348    1.2791 C   0  0  0  0  0  0  0  0  0  0  0  0
   -2.2333    1.9891    0.8084 O   0  0  0  0  0  0  0  0  0  0  0  0
   -0.4429    1.8293    2.1683 N   0  0  0  0  0  0  0  0  0  0  0  0
    0.2668    1.2118    2.5263 H   0  0  0  0  0  0  0  0  0  0  0  0
   -0.5118    3.1863    2.7135 C   0  0  0  0  0  0  0  0  0  0  0  0
   -1.4470    3.3159    3.2625 H   0  0  0  0  0  0  0  0  0  0  0  0
    0.3243    3.3682    3.3896 H   0  0  0  0  0  0  0  0  0  0  0  0
   -0.4850    3.9172    1.9023 H   0  0  0  0  0  0  0  0  0  0  0  0
  5  6  2  0  0  0  0
  5  7  1  0  0  0  0
  2  3  1  0  0  0  0
  2  4  1  0  0  0  0
  2  5  1  0  0  0  0
  1  2  1  0  0  0  0
 27 28  2  0  0  0  0
 27 29  1  0  0  0  0
 23 24  1  0  0  0  0
 23 25  1  0  0  0  0
 23 26  1  0  0  0  0
 20 21  1  0  0  0  0
 20 22  1  0  0  0  0
 20 23  1  0  0  0  0
 17 18  1  0  0  0  0
 17 19  1  0  0  0  0
 17 20  1  0  0  0  0
 14 15  1  0  0  0  0
 14 16  1  0  0  0  0
 14 17  1  0  0  0  0
 11 12  1  0  0  0  0
 11 13  1  0  0  0  0
 11 14  1  0  0  0  0
  9 10  1  0  0  0  0
  9 11  1  0  0  0  0
  9 27  1  0  0  0  0
  7  8  1  0  0  0  0
  7  9  1  0  0  0  0
 31 32  1  0  0  0  0
 31 33  1  0  0  0  0
 31 34  1  0  0  0  0
 29 30  1  0  0  0  0
 29 31  1  0  0  0  0
M  CHG  1  23   1
M  END
$$$$
default_name
  -OEChem-02102213163D

 34 33  0     1  0  0  0  0  0999 V2000
   -3.8899   -3.6747    1.6490 H   0  0  0  0  0  0  0  0  0  0  0  0
   -3.9109   -2.6717    1.2250 C   0  0  0  0  0  0  0  0  0  0  0  0
   -4.6009   -2.0517    1.7950 H   0  0  0  0  0  0  0  0  0  0  0  0
   -4.2309   -2.7237    0.1860 H   0  0  0  0  0  0  0  0  0  0  0  0
   -2.5229   -2.0787    1.2980 C   0  0  0  0  0  0  0  0  0  0  0  0
   -1.5999   -2.7227    1.7810 O   0  0  0  0  0  0  0  0  0  0  0  0
   -2.3659   -0.8447    0.8120 N   0  0  0  0  0  0  0  0  0  0  0  0
   -3.1749   -0.3807    0.4220 H   0  0  0  0  0  0  0  0  0  0  0  0
   -1.0919   -0.1077    0.8170 C   0  0  1  0  0  0  0  0  0  0  0  0
   -0.4136   -0.6011    1.5155 H   0  0  0  0  0  0  0  0  0  0  0  0
   -0.4834   -0.1723   -0.5965 C   0  0  0  0  0  0  0  0  0  0  0  0
    0.6038   -0.1416   -0.5086 H   0  0  0  0  0  0  0  0  0  0  0  0
   -0.7602   -1.1196   -1.0633 H   0  0  0  0  0  0  0  0  0  0  0  0
   -0.9276    0.9868   -1.5017 C   0  0  0  0  0  0  0  0  0  0  0  0
   -1.9572    0.8271   -1.8245 H   0  0  0  0  0  0  0  0  0  0  0  0
   -0.8706    1.9223   -0.9419 H   0  0  0  0  0  0  0  0  0  0  0  0
   -0.0211    1.0780   -2.7371 C   0  0  0  0  0  0  0  0  0  0  0  0
    1.0113    1.2229   -2.4101 H   0  0  0  0  0  0  0  0  0  0  0  0
   -0.0889    0.1438   -3.2982 H   0  0  0  0  0  0  0  0  0  0  0  0
   -0.4480    2.2502   -3.6294 C   0  0  0  0  0  0  0  0  0  0  0  0
   -1.4858    2.0902   -3.9396 H   0  0  0  0  0  0  0  0  0  0  0  0
   -0.4134    3.1691   -3.0364 H   0  0  0  0  0  0  0  0  0  0  0  0
    0.4283    2.3763   -4.8213 N   0  3  0  0  0  0  0  0  0  0  0  0
    0.3923    1.5327   -5.3798 H   0  0  0  0  0  0  0  0  0  0  0  0
    0.1338    3.1537   -5.3990 H   0  0  0  0  0  0  0  0  0  0  0  0
    1.3889    2.5333   -4.5396 H   0  0  0  0  0  0  0  0  0  0  0  0
   -1.3103    1.3348    1.2791 C   0  0  0  0  0  0  0  0  0  0  0  0
   -2.2333    1.9891    0.8084 O   0  0  0  0  0  0  0  0  0  0  0  0
   -0.4429    1.8293    2.1683 N   0  0  0  0  0  0  0  0  0  0  0  0
    0.2668    1.2118    2.5263 H   0  0  0  0  0  0  0  0  0  0  0  0
   -0.5118    3.1863    2.7135 C   0  0  0  0  0  0  0  0  0  0  0  0
   -1.4470    3.3159    3.2625 H   0  0  0  0  0  0  0  0  0  0  0  0
    0.3243    3.3682    3.3896 H   0  0  0  0  0  0  0  0  0  0  0  0
   -0.4850    3.9172    1.9023 H   0  0  0  0  0  0  0  0  0  0  0  0
  5  6  2  0  0  0  0
  5  7  1  0  0  0  0
  2  3  1  0  0  0  0
  2  4  1  0  0  0  0
  2  5  1  0  0  0  0
  1  2  1  0  0  0  0
 27 28  2  0  0  0  0
 27 29  1  0  0  0  0
 23 24  1  0  0  0  0
 23 25  1  0  0  0  0
 23 26  1  0  0  0  0
 20 21  1  0  0  0  0
 20 22  1  0  0  0  0
 20 23  1  0  0  0  0
 17 18  1  0  0  0  0
 17 19  1  0  0  0  0
 17 20  1  0  0  0  0
 14 15  1  0  0  0  0
 14 16  1  0  0  0  0
 14 17  1  0  0  0  0
 11 12  1  0  0  0  0
 11 13  1  0  0  0  0
 11 14  1  0  0  0  0
  9 10  1  0  0  0  0
  9 11  1  0  0  0  0
  9 27  1  0  0  0  0
  7  8  1  0  0  0  0
  7  9  1  0  0  0  0
 31 32  1  0  0  0  0
 31 33  1  0  0  0  0
 31 34  1  0  0  0  0
 29 30  1  0  0  0  0
 29 31  1  0  0  0  0
M  CHG  1  23   1
M  END
$$$$
default_name
  -OEChem-02102213163D

 34 33  0     1  0  0  0  0  0999 V2000
   -3.8899   -3.6747    1.6490 H   0  0  0  0  0  0  0  0  0  0  0  0
   -3.9109   -2.6717    1.2250 C   0  0  0  0  0  0  0  0  0  0  0  0
   -4.6009   -2.0517    1.7950 H   0  0  0  0  0  0  0  0  0  0  0  0
   -4.2309   -2.7237    0.1860 H   0  0  0  0  0  0  0  0  0  0  0  0
   -2.5229   -2.0787    1.2980 C   0  0  0  0  0  0  0  0  0  0  0  0
   -1.5999   -2.7227    1.7810 O   0  0  0  0  0  0  0  0  0  0  0  0
   -2.3659   -0.8447    0.8120 N   0  0  0  0  0  0  0  0  0  0  0  0
   -3.1749   -0.3807    0.4220 H   0  0  0  0  0  0  0  0  0  0  0  0
   -1.0919   -0.1077    0.8170 C   0  0  1  0  0  0  0  0  0  0  0  0
   -0.4136   -0.6011    1.5155 H   0  0  0  0  0  0  0  0  0  0  0  0
   -0.4834   -0.1723   -0.5965 C   0  0  0  0  0  0  0  0  0  0  0  0
    0.5778   -0.4103   -0.5075 H   0  0  0  0  0  0  0  0  0  0  0  0
   -0.9659   -0.9744   -1.1585 H   0  0  0  0  0  0  0  0  0  0  0  0
   -0.6191    1.1445   -1.3761 C   0  0  0  0  0  0  0  0  0  0  0  0
   -1.6739    1.4021   -1.4813 H   0  0  0  0  0  0  0  0  0  0  0  0
   -0.1107    1.9405   -0.8286 H   0  0  0  0  0  0  0  0  0  0  0  0
    0.0070    1.0070   -2.7708 C   0  0  0  0  0  0  0  0  0  0  0  0
    1.0595    0.7344   -2.6622 H   0  0  0  0  0  0  0  0  0  0  0  0
   -0.5109    0.2164   -3.3173 H   0  0  0  0  0  0  0  0  0  0  0  0
   -0.1057    2.3285   -3.5412 C   0  0  0  0  0  0  0  0  0  0  0  0
   -1.1655    2.5877   -3.6324 H   0  0  0  0  0  0  0  0  0  0  0  0
    0.3824    3.1143   -2.9568 H   0  0  0  0  0  0  0  0  0  0  0  0
    0.5144    2.2306   -4.8867 N   0  3  0  0  0  0  0  0  0  0  0  0
    0.0598    1.5119   -5.4361 H   0  0  0  0  0  0  0  0  0  0  0  0
    0.4319    3.1100   -5.3815 H   0  0  0  0  0  0  0  0  0  0  0  0
    1.4978    1.9994   -4.8075 H   0  0  0  0  0  0  0  0  0  0  0  0
   -1.3103    1.3348    1.2791 C   0  0  0  0  0  0  0  0  0  0  0  0
   -2.2333    1.9891    0.8084 O   0  0  0  0  0  0  0  0  0  0  0  0
   -0.4429    1.8293    2.1683 N   0  0  0  0  0  0  0  0  0  0  0  0
    0.2668    1.2118    2.5263 H   0  0  0  0  0  0  0  0  0  0  0  0
   -0.5118    3.1863    2.7135 C   0  0  0  0  0  0  0  0  0  0  0  0
   -1.4470    3.3159    3.2625 H   0  0  0  0  0  0  0  0  0  0  0  0
    0.3243    3.3682    3.3896 H   0  0  0  0  0  0  0  0  0  0  0  0
   -0.4850    3.9172    1.9023 H   0  0  0  0  0  0  0  0  0  0  0  0
  5  6  2  0  0  0  0
  5  7  1  0  0  0  0
  2  3  1  0  0  0  0
  2  4  1  0  0  0  0
  2  5  1  0  0  0  0
  1  2  1  0  0  0  0
 27 28  2  0  0  0  0
 27 29  1  0  0  0  0
 23 24  1  0  0  0  0
 23 25  1  0  0  0  0
 23 26  1  0  0  0  0
 20 21  1  0  0  0  0
 20 22  1  0  0  0  0
 20 23  1  0  0  0  0
 17 18  1  0  0  0  0
 17 19  1  0  0  0  0
 17 20  1  0  0  0  0
 14 15  1  0  0  0  0
 14 16  1  0  0  0  0
 14 17  1  0  0  0  0
 11 12  1  0  0  0  0
 11 13  1  0  0  0  0
 11 14  1  0  0  0  0
  9 10  1  0  0  0  0
  9 11  1  0  0  0  0
  9 27  1  0  0  0  0
  7  8  1  0  0  0  0
  7  9  1  0  0  0  0
 31 32  1  0  0  0  0
 31 33  1  0  0  0  0
 31 34  1  0  0  0  0
 29 30  1  0  0  0  0
 29 31  1  0  0  0  0
M  CHG  1  23   1
M  END
$$$$
default_name
  -OEChem-02102213163D

 34 33  0     1  0  0  0  0  0999 V2000
   -3.8899   -3.6747    1.6490 H   0  0  0  0  0  0  0  0  0  0  0  0
   -3.9109   -2.6717    1.2250 C   0  0  0  0  0  0  0  0  0  0  0  0
   -4.6009   -2.0517    1.7950 H   0  0  0  0  0  0  0  0  0  0  0  0
   -4.2309   -2.7237    0.1860 H   0  0  0  0  0  0  0  0  0  0  0  0
   -2.5229   -2.0787    1.2980 C   0  0  0  0  0  0  0  0  0  0  0  0
   -1.5999   -2.7227    1.7810 O   0  0  0  0  0  0  0  0  0  0  0  0
   -2.3659   -0.8447    0.8120 N   0  0  0  0  0  0  0  0  0  0  0  0
   -3.1749   -0.3807    0.4220 H   0  0  0  0  0  0  0  0  0  0  0  0
   -1.0919   -0.1077    0.8170 C   0  0  1  0  0  0  0  0  0  0  0  0
   -0.4136   -0.6011    1.5155 H   0  0  0  0  0  0  0  0  0  0  0  0
   -0.4834   -0.1723   -0.5965 C   0  0  0  0  0  0  0  0  0  0  0  0
    0.5778   -0.4103   -0.5075 H   0  0  0  0  0  0  0  0  0  0  0  0
   -0.9659   -0.9744   -1.1585 H   0  0  0  0  0  0  0  0  0  0  0  0
   -0.6191    1.1445   -1.3761 C   0  0  0  0  0  0  0  0  0  0  0  0
   -1.6286    1.5402   -1.2560 H   0  0  0  0  0  0  0  0  0  0  0  0
    0.0969    1.8696   -0.9845 H   0  0  0  0  0  0  0  0  0  0  0  0
   -0.3433    0.9132   -2.8683 C   0  0  0  0  0  0  0  0  0  0  0  0
    0.6627    0.5029   -2.9841 H   0  0  0  0  0  0  0  0  0  0  0  0
   -1.0677    0.1946   -3.2571 H   0  0  0  0  0  0  0  0  0  0  0  0
   -0.4542    2.2316   -3.6442 C   0  0  0  0  0  0  0  0  0  0  0  0
   -1.4652    2.6297   -3.5094 H   0  0  0  0  0  0  0  0  0  0  0  0
    0.2491    2.9497   -3.2117 H   0  0  0  0  0  0  0  0  0  0  0  0
   -0.1683    2.0407   -5.0886 N   0  3  0  0  0  0  0  0  0  0  0  0
   -0.8227    1.3850   -5.4968 H   0  0  0  0  0  0  0  0  0  0  0  0
   -0.2452    2.9192   -5.5858 H   0  0  0  0  0  0  0  0  0  0  0  0
    0.7699    1.6805   -5.2193 H   0  0  0  0  0  0  0  0  0  0  0  0
   -1.3103    1.3348    1.2791 C   0  0  0  0  0  0  0  0  0  0  0  0
   -2.2333    1.9891    0.8084 O   0  0  0  0  0  0  0  0  0  0  0  0
   -0.4429    1.8293    2.1683 N   0  0  0  0  0  0  0  0  0  0  0  0
    0.2668    1.2118    2.5263 H   0  0  0  0  0  0  0  0  0  0  0  0
   -0.5118    3.1863    2.7135 C   0  0  0  0  0  0  0  0  0  0  0  0
   -1.4470    3.3159    3.2625 H   0  0  0  0  0  0  0  0  0  0  0  0
    0.3243    3.3682    3.3896 H   0  0  0  0  0  0  0  0  0  0  0  0
   -0.4850    3.9172    1.9023 H   0  0  0  0  0  0  0  0  0  0  0  0
  5  6  2  0  0  0  0
  5  7  1  0  0  0  0
  2  3  1  0  0  0  0
  2  4  1  0  0  0  0
  2  5  1  0  0  0  0
  1  2  1  0  0  0  0
 27 28  2  0  0  0  0
 27 29  1  0  0  0  0
 23 24  1  0  0  0  0
 23 25  1  0  0  0  0
 23 26  1  0  0  0  0
 20 21  1  0  0  0  0
 20 22  1  0  0  0  0
 20 23  1  0  0  0  0
 17 18  1  0  0  0  0
 17 19  1  0  0  0  0
 17 20  1  0  0  0  0
 14 15  1  0  0  0  0
 14 16  1  0  0  0  0
 14 17  1  0  0  0  0
 11 12  1  0  0  0  0
 11 13  1  0  0  0  0
 11 14  1  0  0  0  0
  9 10  1  0  0  0  0
  9 11  1  0  0  0  0
  9 27  1  0  0  0  0
  7  8  1  0  0  0  0
  7  9  1  0  0  0  0
 31 32  1  0  0  0  0
 31 33  1  0  0  0  0
 31 34  1  0  0  0  0
 29 30  1  0  0  0  0
 29 31  1  0  0  0  0
M  CHG  1  23   1
M  END
$$$$
default_name
  -OEChem-02102213163D

 34 33  0     1  0  0  0  0  0999 V2000
   -3.8899   -3.6747    1.6490 H   0  0  0  0  0  0  0  0  0  0  0  0
   -3.9109   -2.6717    1.2250 C   0  0  0  0  0  0  0  0  0  0  0  0
   -4.6009   -2.0517    1.7950 H   0  0  0  0  0  0  0  0  0  0  0  0
   -4.2309   -2.7237    0.1860 H   0  0  0  0  0  0  0  0  0  0  0  0
   -2.5229   -2.0787    1.2980 C   0  0  0  0  0  0  0  0  0  0  0  0
   -1.5999   -2.7227    1.7810 O   0  0  0  0  0  0  0  0  0  0  0  0
   -2.3659   -0.8447    0.8120 N   0  0  0  0  0  0  0  0  0  0  0  0
   -3.1749   -0.3807    0.4220 H   0  0  0  0  0  0  0  0  0  0  0  0
   -1.0919   -0.1077    0.8170 C   0  0  1  0  0  0  0  0  0  0  0  0
   -0.4136   -0.6011    1.5155 H   0  0  0  0  0  0  0  0  0  0  0  0
   -0.4834   -0.1723   -0.5965 C   0  0  0  0  0  0  0  0  0  0  0  0
    0.5778   -0.4103   -0.5075 H   0  0  0  0  0  0  0  0  0  0  0  0
   -0.9659   -0.9744   -1.1585 H   0  0  0  0  0  0  0  0  0  0  0  0
   -0.6191    1.1445   -1.3761 C   0  0  0  0  0  0  0  0  0  0  0  0
   -1.5166    1.6728   -1.0516 H   0  0  0  0  0  0  0  0  0  0  0  0
    0.2536    1.7703   -1.1795 H   0  0  0  0  0  0  0  0  0  0  0  0
   -0.7158    0.8663   -2.8826 C   0  0  0  0  0  0  0  0  0  0  0  0
    0.1776    0.3241   -3.2016 H   0  0  0  0  0  0  0  0  0  0  0  0
   -1.5949    0.2481   -3.0749 H   0  0  0  0  0  0  0  0  0  0  0  0
   -0.8264    2.1814   -3.6641 C   0  0  0  0  0  0  0  0  0  0  0  0
   -1.7218    2.7124   -3.3250 H   0  0  0  0  0  0  0  0  0  0  0  0
    0.0422    2.8023   -3.4246 H   0  0  0  0  0  0  0  0  0  0  0  0
   -0.8974    1.9423   -5.1278 N   0  3  0  0  0  0  0  0  0  0  0  0
   -1.7053    1.3769   -5.3568 H   0  0  0  0  0  0  0  0  0  0  0  0
   -0.9696    2.8191   -5.6286 H   0  0  0  0  0  0  0  0  0  0  0  0
   -0.0665    1.4587   -5.4483 H   0  0  0  0  0  0  0  0  0  0  0  0
   -1.3103    1.3348    1.2791 C   0  0  0  0  0  0  0  0  0  0  0  0
   -2.2333    1.9891    0.8084 O   0  0  0  0  0  0  0  0  0  0  0  0
   -0.4429    1.8293    2.1683 N   0  0  0  0  0  0  0  0  0  0  0  0
    0.2668    1.2118    2.5263 H   0  0  0  0  0  0  0  0  0  0  0  0
   -0.5118    3.1863    2.7135 C   0  0  0  0  0  0  0  0  0  0  0  0
   -1.4470    3.3159    3.2625 H   0  0  0  0  0  0  0  0  0  0  0  0
    0.3243    3.3682    3.3896 H   0  0  0  0  0  0  0  0  0  0  0  0
   -0.4850    3.9172    1.9023 H   0  0  0  0  0  0  0  0  0  0  0  0
  5  6  2  0  0  0  0
  5  7  1  0  0  0  0
  2  3  1  0  0  0  0
  2  4  1  0  0  0  0
  2  5  1  0  0  0  0
  1  2  1  0  0  0  0
 27 28  2  0  0  0  0
 27 29  1  0  0  0  0
 23 24  1  0  0  0  0
 23 25  1  0  0  0  0
 23 26  1  0  0  0  0
 20 21  1  0  0  0  0
 20 22  1  0  0  0  0
 20 23  1  0  0  0  0
 17 18  1  0  0  0  0
 17 19  1  0  0  0  0
 17 20  1  0  0  0  0
 14 15  1  0  0  0  0
 14 16  1  0  0  0  0
 14 17  1  0  0  0  0
 11 12  1  0  0  0  0
 11 13  1  0  0  0  0
 11 14  1  0  0  0  0
  9 10  1  0  0  0  0
  9 11  1  0  0  0  0
  9 27  1  0  0  0  0
  7  8  1  0  0  0  0
  7  9  1  0  0  0  0
 31 32  1  0  0  0  0
 31 33  1  0  0  0  0
 31 34  1  0  0  0  0
 29 30  1  0  0  0  0
 29 31  1  0  0  0  0
M  CHG  1  23   1
M  END
$$$$
default_name
  -OEChem-02102213163D

 34 33  0     1  0  0  0  0  0999 V2000
   -3.8899   -3.6747    1.6490 H   0  0  0  0  0  0  0  0  0  0  0  0
   -3.9109   -2.6717    1.2250 C   0  0  0  0  0  0  0  0  0  0  0  0
   -4.6009   -2.0517    1.7950 H   0  0  0  0  0  0  0  0  0  0  0  0
   -4.2309   -2.7237    0.1860 H   0  0  0  0  0  0  0  0  0  0  0  0
   -2.5229   -2.0787    1.2980 C   0  0  0  0  0  0  0  0  0  0  0  0
   -1.5999   -2.7227    1.7810 O   0  0  0  0  0  0  0  0  0  0  0  0
   -2.3659   -0.8447    0.8120 N   0  0  0  0  0  0  0  0  0  0  0  0
   -3.1749   -0.3807    0.4220 H   0  0  0  0  0  0  0  0  0  0  0  0
   -1.0919   -0.1077    0.8170 C   0  0  1  0  0  0  0  0  0  0  0  0
   -0.4136   -0.6011    1.5155 H   0  0  0  0  0  0  0  0  0  0  0  0
   -0.4834   -0.1723   -0.5965 C   0  0  0  0  0  0  0  0  0  0  0  0
    0.5778   -0.4103   -0.5075 H   0  0  0  0  0  0  0  0  0  0  0  0
   -0.9659   -0.9744   -1.1585 H   0  0  0  0  0  0  0  0  0  0  0  0
   -0.6191    1.1445   -1.3761 C   0  0  0  0  0  0  0  0  0  0  0  0
   -1.3458    1.7908   -0.8820 H   0  0  0  0  0  0  0  0  0  0  0  0
    0.3486    1.6493   -1.4003 H   0  0  0  0  0  0  0  0  0  0  0  0
   -1.0848    0.8696   -2.8127 C   0  0  0  0  0  0  0  0  0  0  0  0
   -0.3627    0.2101   -3.3000 H   0  0  0  0  0  0  0  0  0  0  0  0
   -2.0568    0.3733   -2.7831 H   0  0  0  0  0  0  0  0  0  0  0  0
   -1.1969    2.1814   -3.5997 C   0  0  0  0  0  0  0  0  0  0  0  0
   -1.9180    2.8302   -3.0919 H   0  0  0  0  0  0  0  0  0  0  0  0
   -0.2243    2.6822   -3.5810 H   0  0  0  0  0  0  0  0  0  0  0  0
   -1.6232    1.9421   -5.0016 N   0  3  0  0  0  0  0  0  0  0  0  0
   -2.5278    1.4882   -5.0256 H   0  0  0  0  0  0  0  0  0  0  0  0
   -1.6920    2.8167   -5.5070 H   0  0  0  0  0  0  0  0  0  0  0  0
   -0.9543    1.3491   -5.4788 H   0  0  0  0  0  0  0  0  0  0  0  0
   -1.3103    1.3348    1.2791 C   0  0  0  0  0  0  0  0  0  0  0  0
   -2.2333    1.9891    0.8084 O   0  0  0  0  0  0  0  0  0  0  0  0
   -0.4429    1.8293    2.1683 N   0  0  0  0  0  0  0  0  0  0  0  0
    0.2668    1.2118    2.5263 H   0  0  0  0  0  0  0  0  0  0  0  0
   -0.5118    3.1863    2.7135 C   0  0  0  0  0  0  0  0  0  0  0  0
   -1.4470    3.3159    3.2625 H   0  0  0  0  0  0  0  0  0  0  0  0
    0.3243    3.3682    3.3896 H   0  0  0  0  0  0  0  0  0  0  0  0
   -0.4850    3.9172    1.9023 H   0  0  0  0  0  0  0  0  0  0  0  0
  5  6  2  0  0  0  0
  5  7  1  0  0  0  0
  2  3  1  0  0  0  0
  2  4  1  0  0  0  0
  2  5  1  0  0  0  0
  1  2  1  0  0  0  0
 27 28  2  0  0  0  0
 27 29  1  0  0  0  0
 23 24  1  0  0  0  0
 23 25  1  0  0  0  0
 23 26  1  0  0  0  0
 20 21  1  0  0  0  0
 20 22  1  0  0  0  0
 20 23  1  0  0  0  0
 17 18  1  0  0  0  0
 17 19  1  0  0  0  0
 17 20  1  0  0  0  0
 14 15  1  0  0  0  0
 14 16  1  0  0  0  0
 14 17  1  0  0  0  0
 11 12  1  0  0  0  0
 11 13  1  0  0  0  0
 11 14  1  0  0  0  0
  9 10  1  0  0  0  0
  9 11  1  0  0  0  0
  9 27  1  0  0  0  0
  7  8  1  0  0  0  0
  7  9  1  0  0  0  0
 31 32  1  0  0  0  0
 31 33  1  0  0  0  0
 31 34  1  0  0  0  0
 29 30  1  0  0  0  0
 29 31  1  0  0  0  0
M  CHG  1  23   1
M  END
$$$$
default_name
  -OEChem-02102213163D

 34 33  0     1  0  0  0  0  0999 V2000
   -3.8899   -3.6747    1.6490 H   0  0  0  0  0  0  0  0  0  0  0  0
   -3.9109   -2.6717    1.2250 C   0  0  0  0  0  0  0  0  0  0  0  0
   -4.6009   -2.0517    1.7950 H   0  0  0  0  0  0  0  0  0  0  0  0
   -4.2309   -2.7237    0.1860 H   0  0  0  0  0  0  0  0  0  0  0  0
   -2.5229   -2.0787    1.2980 C   0  0  0  0  0  0  0  0  0  0  0  0
   -1.5999   -2.7227    1.7810 O   0  0  0  0  0  0  0  0  0  0  0  0
   -2.3659   -0.8447    0.8120 N   0  0  0  0  0  0  0  0  0  0  0  0
   -3.1749   -0.3807    0.4220 H   0  0  0  0  0  0  0  0  0  0  0  0
   -1.0919   -0.1077    0.8170 C   0  0  1  0  0  0  0  0  0  0  0  0
   -0.4136   -0.6011    1.5155 H   0  0  0  0  0  0  0  0  0  0  0  0
   -0.4834   -0.1723   -0.5965 C   0  0  0  0  0  0  0  0  0  0  0  0
    0.5778   -0.4103   -0.5075 H   0  0  0  0  0  0  0  0  0  0  0  0
   -0.9659   -0.9744   -1.1585 H   0  0  0  0  0  0  0  0  0  0  0  0
   -0.6191    1.1445   -1.3761 C   0  0  0  0  0  0  0  0  0  0  0  0
   -1.1276    1.8863   -0.7588 H   0  0  0  0  0  0  0  0  0  0  0  0
    0.3755    1.5150   -1.6319 H   0  0  0  0  0  0  0  0  0  0  0  0
   -1.4253    0.9229   -2.6634 C   0  0  0  0  0  0  0  0  0  0  0  0
   -0.9215    0.1687   -3.2726 H   0  0  0  0  0  0  0  0  0  0  0  0
   -2.4218    0.5614   -2.4017 H   0  0  0  0  0  0  0  0  0  0  0  0
   -1.5405    2.2315   -3.4552 C   0  0  0  0  0  0  0  0  0  0  0  0
   -2.0403    2.9751   -2.8258 H   0  0  0  0  0  0  0  0  0  0  0  0
   -0.5321    2.5977   -3.6702 H   0  0  0  0  0  0  0  0  0  0  0  0
   -2.2964    2.0402   -4.7188 N   0  3  0  0  0  0  0  0  0  0  0  0
   -3.2342    1.7113   -4.5257 H   0  0  0  0  0  0  0  0  0  0  0  0
   -2.3631    2.9120   -5.2291 H   0  0  0  0  0  0  0  0  0  0  0  0
   -1.8331    1.3590   -5.3089 H   0  0  0  0  0  0  0  0  0  0  0  0
   -1.3103    1.3348    1.2791 C   0  0  0  0  0  0  0  0  0  0  0  0
   -2.2333    1.9891    0.8084 O   0  0  0  0  0  0  0  0  0  0  0  0
   -0.4429    1.8293    2.1683 N   0  0  0  0  0  0  0  0  0  0  0  0
    0.2668    1.2118    2.5263 H   0  0  0  0  0  0  0  0  0  0  0  0
   -0.5118    3.1863    2.7135 C   0  0  0  0  0  0  0  0  0  0  0  0
   -1.4470    3.3159    3.2625 H   0  0  0  0  0  0  0  0  0  0  0  0
    0.3243    3.3682    3.3896 H   0  0  0  0  0  0  0  0  0  0  0  0
   -0.4850    3.9172    1.9023 H   0  0  0  0  0  0  0  0  0  0  0  0
  5  6  2  0  0  0  0
  5  7  1  0  0  0  0
  2  3  1  0  0  0  0
  2  4  1  0  0  0  0
  2  5  1  0  0  0  0
  1  2  1  0  0  0  0
 27 28  2  0  0  0  0
 27 29  1  0  0  0  0
 23 24  1  0  0  0  0
 23 25  1  0  0  0  0
 23 26  1  0  0  0  0
 20 21  1  0  0  0  0
 20 22  1  0  0  0  0
 20 23  1  0  0  0  0
 17 18  1  0  0  0  0
 17 19  1  0  0  0  0
 17 20  1  0  0  0  0
 14 15  1  0  0  0  0
 14 16  1  0  0  0  0
 14 17  1  0  0  0  0
 11 12  1  0  0  0  0
 11 13  1  0  0  0  0
 11 14  1  0  0  0  0
  9 10  1  0  0  0  0
  9 11  1  0  0  0  0
  9 27  1  0  0  0  0
  7  8  1  0  0  0  0
  7  9  1  0  0  0  0
 31 32  1  0  0  0  0
 31 33  1  0  0  0  0
 31 34  1  0  0  0  0
 29 30  1  0  0  0  0
 29 31  1  0  0  0  0
M  CHG  1  23   1
M  END
$$$$
default_name
  -OEChem-02102213163D

 34 33  0     1  0  0  0  0  0999 V2000
   -3.8899   -3.6747    1.6490 H   0  0  0  0  0  0  0  0  0  0  0  0
   -3.9109   -2.6717    1.2250 C   0  0  0  0  0  0  0  0  0  0  0  0
   -4.6009   -2.0517    1.7950 H   0  0  0  0  0  0  0  0  0  0  0  0
   -4.2309   -2.7237    0.1860 H   0  0  0  0  0  0  0  0  0  0  0  0
   -2.5229   -2.0787    1.2980 C   0  0  0  0  0  0  0  0  0  0  0  0
   -1.5999   -2.7227    1.7810 O   0  0  0  0  0  0  0  0  0  0  0  0
   -2.3659   -0.8447    0.8120 N   0  0  0  0  0  0  0  0  0  0  0  0
   -3.1749   -0.3807    0.4220 H   0  0  0  0  0  0  0  0  0  0  0  0
   -1.0919   -0.1077    0.8170 C   0  0  1  0  0  0  0  0  0  0  0  0
   -0.4136   -0.6011    1.5155 H   0  0  0  0  0  0  0  0  0  0  0  0
   -0.4834   -0.1723   -0.5965 C   0  0  0  0  0  0  0  0  0  0  0  0
    0.5778   -0.4103   -0.5075 H   0  0  0  0  0  0  0  0  0  0  0  0
   -0.9659   -0.9744   -1.1585 H   0  0  0  0  0  0  0  0  0  0  0  0
   -0.6191    1.1445   -1.3761 C   0  0  0  0  0  0  0  0  0  0  0  0
   -0.8770    1.9526   -0.6903 H   0  0  0  0  0  0  0  0  0  0  0  0
    0.3324    1.3764   -1.8586 H   0  0  0  0  0  0  0  0  0  0  0  0
   -1.7141    1.0225   -2.4449 C   0  0  0  0  0  0  0  0  0  0  0  0
   -1.4605    0.2027   -3.1212 H   0  0  0  0  0  0  0  0  0  0  0  0
   -2.6650    0.7999   -1.9566 H   0  0  0  0  0  0  0  0  0  0  0  0
   -1.8338    2.3283   -3.2406 C   0  0  0  0  0  0  0  0  0  0  0  0
   -2.0803    3.1372   -2.5451 H   0  0  0  0  0  0  0  0  0  0  0  0
   -0.8604    2.5544   -3.6861 H   0  0  0  0  0  0  0  0  0  0  0  0
   -2.8710    2.2298   -4.2985 N   0  3  0  0  0  0  0  0  0  0  0  0
   -3.7763    2.0310   -3.8913 H   0  0  0  0  0  0  0  0  0  0  0  0
   -2.9372    3.0985   -4.8140 H   0  0  0  0  0  0  0  0  0  0  0  0
   -2.6428    1.4880   -4.9501 H   0  0  0  0  0  0  0  0  0  0  0  0
   -1.3103    1.3348    1.2791 C   0  0  0  0  0  0  0  0  0  0  0  0
   -2.2333    1.9891    0.8084 O   0  0  0  0  0  0  0  0  0  0  0  0
   -0.4429    1.8293    2.1683 N   0  0  0  0  0  0  0  0  0  0  0  0
    0.2668    1.2118    2.5263 H   0  0  0  0  0  0  0  0  0  0  0  0
   -0.5118    3.1863    2.7135 C   0  0  0  0  0  0  0  0  0  0  0  0
   -1.4470    3.3159    3.2625 H   0  0  0  0  0  0  0  0  0  0  0  0
    0.3243    3.3682    3.3896 H   0  0  0  0  0  0  0  0  0  0  0  0
   -0.4850    3.9172    1.9023 H   0  0  0  0  0  0  0  0  0  0  0  0
  5  6  2  0  0  0  0
  5  7  1  0  0  0  0
  2  3  1  0  0  0  0
  2  4  1  0  0  0  0
  2  5  1  0  0  0  0
  1  2  1  0  0  0  0
 27 28  2  0  0  0  0
 27 29  1  0  0  0  0
 23 24  1  0  0  0  0
 23 25  1  0  0  0  0
 23 26  1  0  0  0  0
 20 21  1  0  0  0  0
 20 22  1  0  0  0  0
 20 23  1  0  0  0  0
 17 18  1  0  0  0  0
 17 19  1  0  0  0  0
 17 20  1  0  0  0  0
 14 15  1  0  0  0  0
 14 16  1  0  0  0  0
 14 17  1  0  0  0  0
 11 12  1  0  0  0  0
 11 13  1  0  0  0  0
 11 14  1  0  0  0  0
  9 10  1  0  0  0  0
  9 11  1  0  0  0  0
  9 27  1  0  0  0  0
  7  8  1  0  0  0  0
  7  9  1  0  0  0  0
 31 32  1  0  0  0  0
 31 33  1  0  0  0  0
 31 34  1  0  0  0  0
 29 30  1  0  0  0  0
 29 31  1  0  0  0  0
M  CHG  1  23   1
M  END
$$$$
default_name
  -OEChem-02102213163D

 34 33  0     1  0  0  0  0  0999 V2000
   -3.8899   -3.6747    1.6490 H   0  0  0  0  0  0  0  0  0  0  0  0
   -3.9109   -2.6717    1.2250 C   0  0  0  0  0  0  0  0  0  0  0  0
   -4.6009   -2.0517    1.7950 H   0  0  0  0  0  0  0  0  0  0  0  0
   -4.2309   -2.7237    0.1860 H   0  0  0  0  0  0  0  0  0  0  0  0
   -2.5229   -2.0787    1.2980 C   0  0  0  0  0  0  0  0  0  0  0  0
   -1.5999   -2.7227    1.7810 O   0  0  0  0  0  0  0  0  0  0  0  0
   -2.3659   -0.8447    0.8120 N   0  0  0  0  0  0  0  0  0  0  0  0
   -3.1749   -0.3807    0.4220 H   0  0  0  0  0  0  0  0  0  0  0  0
   -1.0919   -0.1077    0.8170 C   0  0  1  0  0  0  0  0  0  0  0  0
   -0.4136   -0.6011    1.5155 H   0  0  0  0  0  0  0  0  0  0  0  0
   -0.4834   -0.1723   -0.5965 C   0  0  0  0  0  0  0  0  0  0  0  0
    0.5778   -0.4103   -0.5075 H   0  0  0  0  0  0  0  0  0  0  0  0
   -0.9659   -0.9744   -1.1585 H   0  0  0  0  0  0  0  0  0  0  0  0
   -0.6191    1.1445   -1.3761 C   0  0  0  0  0  0  0  0  0  0  0  0
   -0.6111    1.9854   -0.6813 H   0  0  0  0  0  0  0  0  0  0  0  0
    0.2223    1.2430   -2.0647 H   0  0  0  0  0  0  0  0  0  0  0  0
   -1.9315    1.1617   -2.1720 C   0  0  0  0  0  0  0  0  0  0  0  0
   -1.9431    0.3099   -2.8562 H   0  0  0  0  0  0  0  0  0  0  0  0
   -2.7699    1.0723   -1.4782 H   0  0  0  0  0  0  0  0  0  0  0  0
   -2.0568    2.4653   -2.9704 C   0  0  0  0  0  0  0  0  0  0  0  0
   -2.0354    3.3054   -2.2687 H   0  0  0  0  0  0  0  0  0  0  0  0
   -1.1866    2.5553   -3.6277 H   0  0  0  0  0  0  0  0  0  0  0  0
   -3.3079    2.4980   -3.7693 N   0  3  0  0  0  0  0  0  0  0  0  0
   -4.1172    2.4256   -3.1655 H   0  0  0  0  0  0  0  0  0  0  0  0
   -3.3752    3.3636   -4.2900 H   0  0  0  0  0  0  0  0  0  0  0  0
   -3.3285    1.7271   -4.4267 H   0  0  0  0  0  0  0  0  0  0  0  0
   -1.3103    1.3348    1.2791 C   0  0  0  0  0  0  0  0  0  0  0  0
   -2.2333    1.9891    0.8084 O   0  0  0  0  0  0  0  0  0  0  0  0
   -0.4429    1.8293    2.1683 N   0  0  0  0  0  0  0  0  0  0  0  0
    0.2668    1.2118    2.5263 H   0  0  0  0  0  0  0  0  0  0  0  0
   -0.5118    3.1863    2.7135 C   0  0  0  0  0  0  0  0  0  0  0  0
   -1.4470    3.3159    3.2625 H   0  0  0  0  0  0  0  0  0  0  0  0
    0.3243    3.3682    3.3896 H   0  0  0  0  0  0  0  0  0  0  0  0
   -0.4850    3.9172    1.9023 H   0  0  0  0  0  0  0  0  0  0  0  0
  5  6  2  0  0  0  0
  5  7  1  0  0  0  0
  2  3  1  0  0  0  0
  2  4  1  0  0  0  0
  2  5  1  0  0  0  0
  1  2  1  0  0  0  0
 27 28  2  0  0  0  0
 27 29  1  0  0  0  0
 23 24  1  0  0  0  0
 23 25  1  0  0  0  0
 23 26  1  0  0  0  0
 20 21  1  0  0  0  0
 20 22  1  0  0  0  0
 20 23  1  0  0  0  0
 17 18  1  0  0  0  0
 17 19  1  0  0  0  0
 17 20  1  0  0  0  0
 14 15  1  0  0  0  0
 14 16  1  0  0  0  0
 14 17  1  0  0  0  0
 11 12  1  0  0  0  0
 11 13  1  0  0  0  0
 11 14  1  0  0  0  0
  9 10  1  0  0  0  0
  9 11  1  0  0  0  0
  9 27  1  0  0  0  0
  7  8  1  0  0  0  0
  7  9  1  0  0  0  0
 31 32  1  0  0  0  0
 31 33  1  0  0  0  0
 31 34  1  0  0  0  0
 29 30  1  0  0  0  0
 29 31  1  0  0  0  0
M  CHG  1  23   1
M  END
$$$$
default_name
  -OEChem-02102213163D

 34 33  0     1  0  0  0  0  0999 V2000
   -3.8899   -3.6747    1.6490 H   0  0  0  0  0  0  0  0  0  0  0  0
   -3.9109   -2.6717    1.2250 C   0  0  0  0  0  0  0  0  0  0  0  0
   -4.6009   -2.0517    1.7950 H   0  0  0  0  0  0  0  0  0  0  0  0
   -4.2309   -2.7237    0.1860 H   0  0  0  0  0  0  0  0  0  0  0  0
   -2.5229   -2.0787    1.2980 C   0  0  0  0  0  0  0  0  0  0  0  0
   -1.5999   -2.7227    1.7810 O   0  0  0  0  0  0  0  0  0  0  0  0
   -2.3659   -0.8447    0.8120 N   0  0  0  0  0  0  0  0  0  0  0  0
   -3.1749   -0.3807    0.4220 H   0  0  0  0  0  0  0  0  0  0  0  0
   -1.0919   -0.1077    0.8170 C   0  0  1  0  0  0  0  0  0  0  0  0
   -0.4136   -0.6011    1.5155 H   0  0  0  0  0  0  0  0  0  0  0  0
   -0.4834   -0.1723   -0.5965 C   0  0  0  0  0  0  0  0  0  0  0  0
    0.5778   -0.4103   -0.5075 H   0  0  0  0  0  0  0  0  0  0  0  0
   -0.9659   -0.9744   -1.1585 H   0  0  0  0  0  0  0  0  0  0  0  0
   -0.6191    1.1445   -1.3761 C   0  0  0  0  0  0  0  0  0  0  0  0
   -0.3479    1.9823   -0.7324 H   0  0  0  0  0  0  0  0  0  0  0  0
    0.0527    1.1238   -2.2364 H   0  0  0  0  0  0  0  0  0  0  0  0
   -2.0627    1.3309   -1.8634 C   0  0  0  0  0  0  0  0  0  0  0  0
   -2.3364    0.4828   -2.4956 H   0  0  0  0  0  0  0  0  0  0  0  0
   -2.7293    1.3602   -0.9991 H   0  0  0  0  0  0  0  0  0  0  0  0
   -2.1942    2.6330   -2.6632 C   0  0  0  0  0  0  0  0  0  0  0  0
   -1.9087    3.4684   -2.0156 H   0  0  0  0  0  0  0  0  0  0  0  0
   -1.4887    2.6005   -3.4989 H   0  0  0  0  0  0  0  0  0  0  0  0
   -3.5773    2.8266   -3.1674 N   0  3  0  0  0  0  0  0  0  0  0  0
   -4.2337    2.8681   -2.3979 H   0  0  0  0  0  0  0  0  0  0  0  0
   -3.6471    3.6892   -3.6928 H   0  0  0  0  0  0  0  0  0  0  0  0
   -3.8433    2.0602   -3.7746 H   0  0  0  0  0  0  0  0  0  0  0  0
   -1.3103    1.3348    1.2791 C   0  0  0  0  0  0  0  0  0  0  0  0
   -2.2333    1.9891    0.8084 O   0  0  0  0  0  0  0  0  0  0  0  0
   -0.4429    1.8293    2.1683 N   0  0  0  0  0  0  0  0  0  0  0  0
    0.2668    1.2118    2.5263 H   0  0  0  0  0  0  0  0  0  0  0  0
   -0.5118    3.1863    2.7135 C   0  0  0  0  0  0  0  0  0  0  0  0
   -1.4470    3.3159    3.2625 H   0  0  0  0  0  0  0  0  0  0  0  0
    0.3243    3.3682    3.3896 H   0  0  0  0  0  0  0  0  0  0  0  0
   -0.4850    3.9172    1.9023 H   0  0  0  0  0  0  0  0  0  0  0  0
  5  6  2  0  0  0  0
  5  7  1  0  0  0  0
  2  3  1  0  0  0  0
  2  4  1  0  0  0  0
  2  5  1  0  0  0  0
  1  2  1  0  0  0  0
 27 28  2  0  0  0  0
 27 29  1  0  0  0  0
 23 24  1  0  0  0  0
 23 25  1  0  0  0  0
 23 26  1  0  0  0  0
 20 21  1  0  0  0  0
 20 22  1  0  0  0  0
 20 23  1  0  0  0  0
 17 18  1  0  0  0  0
 17 19  1  0  0  0  0
 17 20  1  0  0  0  0
 14 15  1  0  0  0  0
 14 16  1  0  0  0  0
 14 17  1  0  0  0  0
 11 12  1  0  0  0  0
 11 13  1  0  0  0  0
 11 14  1  0  0  0  0
  9 10  1  0  0  0  0
  9 11  1  0  0  0  0
  9 27  1  0  0  0  0
  7  8  1  0  0  0  0
  7  9  1  0  0  0  0
 31 32  1  0  0  0  0
 31 33  1  0  0  0  0
 31 34  1  0  0  0  0
 29 30  1  0  0  0  0
 29 31  1  0  0  0  0
M  CHG  1  23   1
M  END
$$$$
default_name
  -OEChem-02102213163D

 34 33  0     1  0  0  0  0  0999 V2000
   -3.8899   -3.6747    1.6490 H   0  0  0  0  0  0  0  0  0  0  0  0
   -3.9109   -2.6717    1.2250 C   0  0  0  0  0  0  0  0  0  0  0  0
   -4.6009   -2.0517    1.7950 H   0  0  0  0  0  0  0  0  0  0  0  0
   -4.2309   -2.7237    0.1860 H   0  0  0  0  0  0  0  0  0  0  0  0
   -2.5229   -2.0787    1.2980 C   0  0  0  0  0  0  0  0  0  0  0  0
   -1.5999   -2.7227    1.7810 O   0  0  0  0  0  0  0  0  0  0  0  0
   -2.3659   -0.8447    0.8120 N   0  0  0  0  0  0  0  0  0  0  0  0
   -3.1749   -0.3807    0.4220 H   0  0  0  0  0  0  0  0  0  0  0  0
   -1.0919   -0.1077    0.8170 C   0  0  1  0  0  0  0  0  0  0  0  0
   -0.4136   -0.6011    1.5155 H   0  0  0  0  0  0  0  0  0  0  0  0
   -0.4834   -0.1723   -0.5965 C   0  0  0  0  0  0  0  0  0  0  0  0
    0.5778   -0.4103   -0.5075 H   0  0  0  0  0  0  0  0  0  0  0  0
   -0.9659   -0.9744   -1.1585 H   0  0  0  0  0  0  0  0  0  0  0  0
   -0.6191    1.1445   -1.3761 C   0  0  0  0  0  0  0  0  0  0  0  0
   -0.1054    1.9436   -0.8400 H   0  0  0  0  0  0  0  0  0  0  0  0
   -0.1648    1.0271   -2.3619 H   0  0  0  0  0  0  0  0  0  0  0  0
   -2.0988    1.5186   -1.5400 C   0  0  0  0  0  0  0  0  0  0  0  0
   -2.6136    0.7098   -2.0640 H   0  0  0  0  0  0  0  0  0  0  0  0
   -2.5459    1.6439   -0.5519 H   0  0  0  0  0  0  0  0  0  0  0  0
   -2.2368    2.8201   -2.3397 C   0  0  0  0  0  0  0  0  0  0  0  0
   -1.7087    3.6149   -1.8029 H   0  0  0  0  0  0  0  0  0  0  0  0
   -1.7460    2.6867   -3.3085 H   0  0  0  0  0  0  0  0  0  0  0  0
   -3.6608    3.1931   -2.5338 N   0  3  0  0  0  0  0  0  0  0  0  0
   -4.1178    3.3283   -1.6407 H   0  0  0  0  0  0  0  0  0  0  0  0
   -3.7345    4.0530   -3.0630 H   0  0  0  0  0  0  0  0  0  0  0  0
   -4.1521    2.4644   -3.0382 H   0  0  0  0  0  0  0  0  0  0  0  0
   -1.3103    1.3348    1.2791 C   0  0  0  0  0  0  0  0  0  0  0  0
   -2.2333    1.9891    0.8084 O   0  0  0  0  0  0  0  0  0  0  0  0
   -0.4429    1.8293    2.1683 N   0  0  0  0  0  0  0  0  0  0  0  0
    0.2668    1.2118    2.5263 H   0  0  0  0  0  0  0  0  0  0  0  0
   -0.5118    3.1863    2.7135 C   0  0  0  0  0  0  0  0  0  0  0  0
   -1.4470    3.3159    3.2625 H   0  0  0  0  0  0  0  0  0  0  0  0
    0.3243    3.3682    3.3896 H   0  0  0  0  0  0  0  0  0  0  0  0
   -0.4850    3.9172    1.9023 H   0  0  0  0  0  0  0  0  0  0  0  0
  5  6  2  0  0  0  0
  5  7  1  0  0  0  0
  2  3  1  0  0  0  0
  2  4  1  0  0  0  0
  2  5  1  0  0  0  0
  1  2  1  0  0  0  0
 27 28  2  0  0  0  0
 27 29  1  0  0  0  0
 23 24  1  0  0  0  0
 23 25  1  0  0  0  0
 23 26  1  0  0  0  0
 20 21  1  0  0  0  0
 20 22  1  0  0  0  0
 20 23  1  0  0  0  0
 17 18  1  0  0  0  0
 17 19  1  0  0  0  0
 17 20  1  0  0  0  0
 14 15  1  0  0  0  0
 14 16  1  0  0  0  0
 14 17  1  0  0  0  0
 11 12  1  0  0  0  0
 11 13  1  0  0  0  0
 11 14  1  0  0  0  0
  9 10  1  0  0  0  0
  9 11  1  0  0  0  0
  9 27  1  0  0  0  0
  7  8  1  0  0  0  0
  7  9  1  0  0  0  0
 31 32  1  0  0  0  0
 31 33  1  0  0  0  0
 31 34  1  0  0  0  0
 29 30  1  0  0  0  0
 29 31  1  0  0  0  0
M  CHG  1  23   1
M  END
$$$$
default_name
  -OEChem-02102213163D

 34 33  0     1  0  0  0  0  0999 V2000
   -3.8899   -3.6747    1.6490 H   0  0  0  0  0  0  0  0  0  0  0  0
   -3.9109   -2.6717    1.2250 C   0  0  0  0  0  0  0  0  0  0  0  0
   -4.6009   -2.0517    1.7950 H   0  0  0  0  0  0  0  0  0  0  0  0
   -4.2309   -2.7237    0.1860 H   0  0  0  0  0  0  0  0  0  0  0  0
   -2.5229   -2.0787    1.2980 C   0  0  0  0  0  0  0  0  0  0  0  0
   -1.5999   -2.7227    1.7810 O   0  0  0  0  0  0  0  0  0  0  0  0
   -2.3659   -0.8447    0.8120 N   0  0  0  0  0  0  0  0  0  0  0  0
   -3.1749   -0.3807    0.4220 H   0  0  0  0  0  0  0  0  0  0  0  0
   -1.0919   -0.1077    0.8170 C   0  0  1  0  0  0  0  0  0  0  0  0
   -0.4136   -0.6011    1.5155 H   0  0  0  0  0  0  0  0  0  0  0  0
   -0.4834   -0.1723   -0.5965 C   0  0  0  0  0  0  0  0  0  0  0  0
    0.5778   -0.4103   -0.5075 H   0  0  0  0  0  0  0  0  0  0  0  0
   -0.9659   -0.9744   -1.1585 H   0  0  0  0  0  0  0  0  0  0  0  0
   -0.6191    1.1445   -1.3761 C   0  0  0  0  0  0  0  0  0  0  0  0
    0.0999    1.8719   -0.9969 H   0  0  0  0  0  0  0  0  0  0  0  0
   -0.4154    0.9594   -2.4326 H   0  0  0  0  0  0  0  0  0  0  0  0
   -2.0372    1.7120   -1.2240 C   0  0  0  0  0  0  0  0  0  0  0  0
   -2.7558    0.9753   -1.5908 H   0  0  0  0  0  0  0  0  0  0  0  0
   -2.2324    1.9040   -0.1671 H   0  0  0  0  0  0  0  0  0  0  0  0
   -2.1816    3.0139   -2.0221 C   0  0  0  0  0  0  0  0  0  0  0  0
   -1.4491    3.7351   -1.6452 H   0  0  0  0  0  0  0  0  0  0  0  0
   -1.9409    2.8081   -3.0695 H   0  0  0  0  0  0  0  0  0  0  0  0
   -3.5528    3.5726   -1.9117 N   0  3  0  0  0  0  0  0  0  0  0  0
   -3.7774    3.7750   -0.9455 H   0  0  0  0  0  0  0  0  0  0  0  0
   -3.6315    4.4304   -2.4436 H   0  0  0  0  0  0  0  0  0  0  0  0
   -4.2340    2.9122   -2.2675 H   0  0  0  0  0  0  0  0  0  0  0  0
   -1.3103    1.3348    1.2791 C   0  0  0  0  0  0  0  0  0  0  0  0
   -2.2333    1.9891    0.8084 O   0  0  0  0  0  0  0  0  0  0  0  0
   -0.4429    1.8293    2.1683 N   0  0  0  0  0  0  0  0  0  0  0  0
    0.2668    1.2118    2.5263 H   0  0  0  0  0  0  0  0  0  0  0  0
   -0.5118    3.1863    2.7135 C   0  0  0  0  0  0  0  0  0  0  0  0
   -1.4470    3.3159    3.2625 H   0  0  0  0  0  0  0  0  0  0  0  0
    0.3243    3.3682    3.3896 H   0  0  0  0  0  0  0  0  0  0  0  0
   -0.4850    3.9172    1.9023 H   0  0  0  0  0  0  0  0  0  0  0  0
  5  6  2  0  0  0  0
  5  7  1  0  0  0  0
  2  3  1  0  0  0  0
  2  4  1  0  0  0  0
  2  5  1  0  0  0  0
  1  2  1  0  0  0  0
 27 28  2  0  0  0  0
 27 29  1  0  0  0  0
 23 24  1  0  0  0  0
 23 25  1  0  0  0  0
 23 26  1  0  0  0  0
 20 21  1  0  0  0  0
 20 22  1  0  0  0  0
 20 23  1  0  0  0  0
 17 18  1  0  0  0  0
 17 19  1  0  0  0  0
 17 20  1  0  0  0  0
 14 15  1  0  0  0  0
 14 16  1  0  0  0  0
 14 17  1  0  0  0  0
 11 12  1  0  0  0  0
 11 13  1  0  0  0  0
 11 14  1  0  0  0  0
  9 10  1  0  0  0  0
  9 11  1  0  0  0  0
  9 27  1  0  0  0  0
  7  8  1  0  0  0  0
  7  9  1  0  0  0  0
 31 32  1  0  0  0  0
 31 33  1  0  0  0  0
 31 34  1  0  0  0  0
 29 30  1  0  0  0  0
 29 31  1  0  0  0  0
M  CHG  1  23   1
M  END
$$$$
default_name
  -OEChem-02102213163D

 34 33  0     1  0  0  0  0  0999 V2000
   -3.8899   -3.6747    1.6490 H   0  0  0  0  0  0  0  0  0  0  0  0
   -3.9109   -2.6717    1.2250 C   0  0  0  0  0  0  0  0  0  0  0  0
   -4.6009   -2.0517    1.7950 H   0  0  0  0  0  0  0  0  0  0  0  0
   -4.2309   -2.7237    0.1860 H   0  0  0  0  0  0  0  0  0  0  0  0
   -2.5229   -2.0787    1.2980 C   0  0  0  0  0  0  0  0  0  0  0  0
   -1.5999   -2.7227    1.7810 O   0  0  0  0  0  0  0  0  0  0  0  0
   -2.3659   -0.8447    0.8120 N   0  0  0  0  0  0  0  0  0  0  0  0
   -3.1749   -0.3807    0.4220 H   0  0  0  0  0  0  0  0  0  0  0  0
   -1.0919   -0.1077    0.8170 C   0  0  1  0  0  0  0  0  0  0  0  0
   -0.4136   -0.6011    1.5155 H   0  0  0  0  0  0  0  0  0  0  0  0
   -0.4834   -0.1723   -0.5965 C   0  0  0  0  0  0  0  0  0  0  0  0
    0.5778   -0.4103   -0.5075 H   0  0  0  0  0  0  0  0  0  0  0  0
   -0.9659   -0.9744   -1.1585 H   0  0  0  0  0  0  0  0  0  0  0  0
   -0.6191    1.1445   -1.3761 C   0  0  0  0  0  0  0  0  0  0  0  0
    0.2540    1.7720   -1.1923 H   0  0  0  0  0  0  0  0  0  0  0  0
   -0.6822    0.9253   -2.4438 H   0  0  0  0  0  0  0  0  0  0  0  0
   -1.8822    1.8980   -0.9368 C   0  0  0  0  0  0  0  0  0  0  0  0
   -2.7533    1.2612   -1.1083 H   0  0  0  0  0  0  0  0  0  0  0  0
   -1.8100    2.1230    0.1291 H   0  0  0  0  0  0  0  0  0  0  0  0
   -2.0324    3.2010   -1.7320 C   0  0  0  0  0  0  0  0  0  0  0  0
   -1.1476    3.8206   -1.5532 H   0  0  0  0  0  0  0  0  0  0  0  0
   -2.0603    2.9564   -2.7981 H   0  0  0  0  0  0  0  0  0  0  0  0
   -3.2605    3.9392   -1.3433 N   0  3  0  0  0  0  0  0  0  0  0  0
   -3.2357    4.1777   -0.3598 H   0  0  0  0  0  0  0  0  0  0  0  0
   -3.3450    4.7955   -1.8768 H   0  0  0  0  0  0  0  0  0  0  0  0
   -4.0833    3.3732   -1.5152 H   0  0  0  0  0  0  0  0  0  0  0  0
   -1.3103    1.3348    1.2791 C   0  0  0  0  0  0  0  0  0  0  0  0
   -2.2333    1.9891    0.8084 O   0  0  0  0  0  0  0  0  0  0  0  0
   -0.4429    1.8293    2.1683 N   0  0  0  0  0  0  0  0  0  0  0  0
    0.2668    1.2118    2.5263 H   0  0  0  0  0  0  0  0  0  0  0  0
   -0.5118    3.1863    2.7135 C   0  0  0  0  0  0  0  0  0  0  0  0
   -1.4470    3.3159    3.2625 H   0  0  0  0  0  0  0  0  0  0  0  0
    0.3243    3.3682    3.3896 H   0  0  0  0  0  0  0  0  0  0  0  0
   -0.4850    3.9172    1.9023 H   0  0  0  0  0  0  0  0  0  0  0  0
  5  6  2  0  0  0  0
  5  7  1  0  0  0  0
  2  3  1  0  0  0  0
  2  4  1  0  0  0  0
  2  5  1  0  0  0  0
  1  2  1  0  0  0  0
 27 28  2  0  0  0  0
 27 29  1  0  0  0  0
 23 24  1  0  0  0  0
 23 25  1  0  0  0  0
 23 26  1  0  0  0  0
 20 21  1  0  0  0  0
 20 22  1  0  0  0  0
 20 23  1  0  0  0  0
 17 18  1  0  0  0  0
 17 19  1  0  0  0  0
 17 20  1  0  0  0  0
 14 15  1  0  0  0  0
 14 16  1  0  0  0  0
 14 17  1  0  0  0  0
 11 12  1  0  0  0  0
 11 13  1  0  0  0  0
 11 14  1  0  0  0  0
  9 10  1  0  0  0  0
  9 11  1  0  0  0  0
  9 27  1  0  0  0  0
  7  8  1  0  0  0  0
  7  9  1  0  0  0  0
 31 32  1  0  0  0  0
 31 33  1  0  0  0  0
 31 34  1  0  0  0  0
 29 30  1  0  0  0  0
 29 31  1  0  0  0  0
M  CHG  1  23   1
M  END
$$$$
default_name
  -OEChem-02102213163D

 34 33  0     1  0  0  0  0  0999 V2000
   -3.8899   -3.6747    1.6490 H   0  0  0  0  0  0  0  0  0  0  0  0
   -3.9109   -2.6717    1.2250 C   0  0  0  0  0  0  0  0  0  0  0  0
   -4.6009   -2.0517    1.7950 H   0  0  0  0  0  0  0  0  0  0  0  0
   -4.2309   -2.7237    0.1860 H   0  0  0  0  0  0  0  0  0  0  0  0
   -2.5229   -2.0787    1.2980 C   0  0  0  0  0  0  0  0  0  0  0  0
   -1.5999   -2.7227    1.7810 O   0  0  0  0  0  0  0  0  0  0  0  0
   -2.3659   -0.8447    0.8120 N   0  0  0  0  0  0  0  0  0  0  0  0
   -3.1749   -0.3807    0.4220 H   0  0  0  0  0  0  0  0  0  0  0  0
   -1.0919   -0.1077    0.8170 C   0  0  1  0  0  0  0  0  0  0  0  0
   -0.4136   -0.6011    1.5155 H   0  0  0  0  0  0  0  0  0  0  0  0
   -0.4834   -0.1723   -0.5965 C   0  0  0  0  0  0  0  0  0  0  0  0
    0.5778   -0.4103   -0.5075 H   0  0  0  0  0  0  0  0  0  0  0  0
   -0.9659   -0.9744   -1.1585 H   0  0  0  0  0  0  0  0  0  0  0  0
   -0.6191    1.1445   -1.3761 C   0  0  0  0  0  0  0  0  0  0  0  0
    0.3463    1.6509   -1.4130 H   0  0  0  0  0  0  0  0  0  0  0  0
   -0.9467    0.9271   -2.3946 H   0  0  0  0  0  0  0  0  0  0  0  0
   -1.6443    2.0639   -0.6981 C   0  0  0  0  0  0  0  0  0  0  0  0
   -2.6063    1.5482   -0.6493 H   0  0  0  0  0  0  0  0  0  0  0  0
   -1.3075    2.2857    0.3165 H   0  0  0  0  0  0  0  0  0  0  0  0
   -1.7993    3.3688   -1.4892 C   0  0  0  0  0  0  0  0  0  0  0  0
   -0.8247    3.8658   -1.5332 H   0  0  0  0  0  0  0  0  0  0  0  0
   -2.0959    3.1216   -2.5130 H   0  0  0  0  0  0  0  0  0  0  0  0
   -2.8041    4.2680   -0.8676 N   0  3  0  0  0  0  0  0  0  0  0  0
   -2.5297    4.5089    0.0766 H   0  0  0  0  0  0  0  0  0  0  0  0
   -2.8946    5.1235   -1.4013 H   0  0  0  0  0  0  0  0  0  0  0  0
   -3.7102    3.8158   -0.8325 H   0  0  0  0  0  0  0  0  0  0  0  0
   -1.3103    1.3348    1.2791 C   0  0  0  0  0  0  0  0  0  0  0  0
   -2.2333    1.9891    0.8084 O   0  0  0  0  0  0  0  0  0  0  0  0
   -0.4429    1.8293    2.1683 N   0  0  0  0  0  0  0  0  0  0  0  0
    0.2668    1.2118    2.5263 H   0  0  0  0  0  0  0  0  0  0  0  0
   -0.5118    3.1863    2.7135 C   0  0  0  0  0  0  0  0  0  0  0  0
   -1.4470    3.3159    3.2625 H   0  0  0  0  0  0  0  0  0  0  0  0
    0.3243    3.3682    3.3896 H   0  0  0  0  0  0  0  0  0  0  0  0
   -0.4850    3.9172    1.9023 H   0  0  0  0  0  0  0  0  0  0  0  0
  5  6  2  0  0  0  0
  5  7  1  0  0  0  0
  2  3  1  0  0  0  0
  2  4  1  0  0  0  0
  2  5  1  0  0  0  0
  1  2  1  0  0  0  0
 27 28  2  0  0  0  0
 27 29  1  0  0  0  0
 23 24  1  0  0  0  0
 23 25  1  0  0  0  0
 23 26  1  0  0  0  0
 20 21  1  0  0  0  0
 20 22  1  0  0  0  0
 20 23  1  0  0  0  0
 17 18  1  0  0  0  0
 17 19  1  0  0  0  0
 17 20  1  0  0  0  0
 14 15  1  0  0  0  0
 14 16  1  0  0  0  0
 14 17  1  0  0  0  0
 11 12  1  0  0  0  0
 11 13  1  0  0  0  0
 11 14  1  0  0  0  0
  9 10  1  0  0  0  0
  9 11  1  0  0  0  0
  9 27  1  0  0  0  0
  7  8  1  0  0  0  0
  7  9  1  0  0  0  0
 31 32  1  0  0  0  0
 31 33  1  0  0  0  0
 31 34  1  0  0  0  0
 29 30  1  0  0  0  0
 29 31  1  0  0  0  0
M  CHG  1  23   1
M  END
$$$$
default_name
  -OEChem-02102213163D

 34 33  0     1  0  0  0  0  0999 V2000
   -3.8899   -3.6747    1.6490 H   0  0  0  0  0  0  0  0  0  0  0  0
   -3.9109   -2.6717    1.2250 C   0  0  0  0  0  0  0  0  0  0  0  0
   -4.6009   -2.0517    1.7950 H   0  0  0  0  0  0  0  0  0  0  0  0
   -4.2309   -2.7237    0.1860 H   0  0  0  0  0  0  0  0  0  0  0  0
   -2.5229   -2.0787    1.2980 C   0  0  0  0  0  0  0  0  0  0  0  0
   -1.5999   -2.7227    1.7810 O   0  0  0  0  0  0  0  0  0  0  0  0
   -2.3659   -0.8447    0.8120 N   0  0  0  0  0  0  0  0  0  0  0  0
   -3.1749   -0.3807    0.4220 H   0  0  0  0  0  0  0  0  0  0  0  0
   -1.0919   -0.1077    0.8170 C   0  0  1  0  0  0  0  0  0  0  0  0
   -0.4136   -0.6011    1.5155 H   0  0  0  0  0  0  0  0  0  0  0  0
   -0.4834   -0.1723   -0.5965 C   0  0  0  0  0  0  0  0  0  0  0  0
    0.5778   -0.4103   -0.5075 H   0  0  0  0  0  0  0  0  0  0  0  0
   -0.9659   -0.9744   -1.1585 H   0  0  0  0  0  0  0  0  0  0  0  0
   -0.6191    1.1445   -1.3761 C   0  0  0  0  0  0  0  0  0  0  0  0
    0.3706    1.5167   -1.6438 H   0  0  0  0  0  0  0  0  0  0  0  0
   -1.1912    0.9647   -2.2885 H   0  0  0  0  0  0  0  0  0  0  0  0
   -1.3398    2.1984   -0.5241 C   0  0  0  0  0  0  0  0  0  0  0  0
   -2.3248    1.8165   -0.2451 H   0  0  0  0  0  0  0  0  0  0  0  0
   -0.7592    2.3812    0.3823 H   0  0  0  0  0  0  0  0  0  0  0  0
   -1.4982    3.5058   -1.3102 C   0  0  0  0  0  0  0  0  0  0  0  0
   -0.5024    3.8674   -1.5865 H   0  0  0  0  0  0  0  0  0  0  0  0
   -2.0453    3.2923   -2.2334 H   0  0  0  0  0  0  0  0  0  0  0  0
   -2.2144    4.5365   -0.5168 N   0  3  0  0  0  0  0  0  0  0  0  0
   -1.7074    4.7460    0.3340 H   0  0  0  0  0  0  0  0  0  0  0  0
   -2.3109    5.3921   -1.0493 H   0  0  0  0  0  0  0  0  0  0  0  0
   -3.1403    4.2100   -0.2660 H   0  0  0  0  0  0  0  0  0  0  0  0
   -1.3103    1.3348    1.2791 C   0  0  0  0  0  0  0  0  0  0  0  0
   -2.2333    1.9891    0.8084 O   0  0  0  0  0  0  0  0  0  0  0  0
   -0.4429    1.8293    2.1683 N   0  0  0  0  0  0  0  0  0  0  0  0
    0.2668    1.2118    2.5263 H   0  0  0  0  0  0  0  0  0  0  0  0
   -0.5118    3.1863    2.7135 C   0  0  0  0  0  0  0  0  0  0  0  0
   -1.4470    3.3159    3.2625 H   0  0  0  0  0  0  0  0  0  0  0  0
    0.3243    3.3682    3.3896 H   0  0  0  0  0  0  0  0  0  0  0  0
   -0.4850    3.9172    1.9023 H   0  0  0  0  0  0  0  0  0  0  0  0
  5  6  2  0  0  0  0
  5  7  1  0  0  0  0
  2  3  1  0  0  0  0
  2  4  1  0  0  0  0
  2  5  1  0  0  0  0
  1  2  1  0  0  0  0
 27 28  2  0  0  0  0
 27 29  1  0  0  0  0
 23 24  1  0  0  0  0
 23 25  1  0  0  0  0
 23 26  1  0  0  0  0
 20 21  1  0  0  0  0
 20 22  1  0  0  0  0
 20 23  1  0  0  0  0
 17 18  1  0  0  0  0
 17 19  1  0  0  0  0
 17 20  1  0  0  0  0
 14 15  1  0  0  0  0
 14 16  1  0  0  0  0
 14 17  1  0  0  0  0
 11 12  1  0  0  0  0
 11 13  1  0  0  0  0
 11 14  1  0  0  0  0
  9 10  1  0  0  0  0
  9 11  1  0  0  0  0
  9 27  1  0  0  0  0
  7  8  1  0  0  0  0
  7  9  1  0  0  0  0
 31 32  1  0  0  0  0
 31 33  1  0  0  0  0
 31 34  1  0  0  0  0
 29 30  1  0  0  0  0
 29 31  1  0  0  0  0
M  CHG  1  23   1
M  END
$$$$
default_name
  -OEChem-02102213163D

 34 33  0     1  0  0  0  0  0999 V2000
   -3.8899   -3.6747    1.6490 H   0  0  0  0  0  0  0  0  0  0  0  0
   -3.9109   -2.6717    1.2250 C   0  0  0  0  0  0  0  0  0  0  0  0
   -4.6009   -2.0517    1.7950 H   0  0  0  0  0  0  0  0  0  0  0  0
   -4.2309   -2.7237    0.1860 H   0  0  0  0  0  0  0  0  0  0  0  0
   -2.5229   -2.0787    1.2980 C   0  0  0  0  0  0  0  0  0  0  0  0
   -1.5999   -2.7227    1.7810 O   0  0  0  0  0  0  0  0  0  0  0  0
   -2.3659   -0.8447    0.8120 N   0  0  0  0  0  0  0  0  0  0  0  0
   -3.1749   -0.3807    0.4220 H   0  0  0  0  0  0  0  0  0  0  0  0
   -1.0919   -0.1077    0.8170 C   0  0  1  0  0  0  0  0  0  0  0  0
   -0.4136   -0.6011    1.5155 H   0  0  0  0  0  0  0  0  0  0  0  0
   -0.4834   -0.1723   -0.5965 C   0  0  0  0  0  0  0  0  0  0  0  0
    0.5778   -0.4103   -0.5075 H   0  0  0  0  0  0  0  0  0  0  0  0
   -0.9659   -0.9744   -1.1585 H   0  0  0  0  0  0  0  0  0  0  0  0
   -0.6191    1.1445   -1.3761 C   0  0  0  0  0  0  0  0  0  0  0  0
    0.3253    1.3786   -1.8692 H   0  0  0  0  0  0  0  0  0  0  0  0
   -1.3988    1.0356   -2.1326 H   0  0  0  0  0  0  0  0  0  0  0  0
   -0.9894    2.2922   -0.4266 C   0  0  0  0  0  0  0  0  0  0  0  0
   -1.9280    2.0480    0.0767 H   0  0  0  0  0  0  0  0  0  0  0  0
   -0.2024    2.4030    0.3221 H   0  0  0  0  0  0  0  0  0  0  0  0
   -1.1497    3.6028   -1.2072 C   0  0  0  0  0  0  0  0  0  0  0  0
   -0.2027    3.8255   -1.7096 H   0  0  0  0  0  0  0  0  0  0  0  0
   -1.9120    3.4570   -1.9785 H   0  0  0  0  0  0  0  0  0  0  0  0
   -1.5318    4.7264   -0.3150 N   0  3  0  0  0  0  0  0  0  0  0  0
   -0.8249    4.8730    0.3947 H   0  0  0  0  0  0  0  0  0  0  0  0
   -1.6338    5.5829   -0.8450 H   0  0  0  0  0  0  0  0  0  0  0  0
   -2.4124    4.5289    0.1458 H   0  0  0  0  0  0  0  0  0  0  0  0
   -1.3103    1.3348    1.2791 C   0  0  0  0  0  0  0  0  0  0  0  0
   -2.2333    1.9891    0.8084 O   0  0  0  0  0  0  0  0  0  0  0  0
   -0.4429    1.8293    2.1683 N   0  0  0  0  0  0  0  0  0  0  0  0
    0.2668    1.2118    2.5263 H   0  0  0  0  0  0  0  0  0  0  0  0
   -0.5118    3.1863    2.7135 C   0  0  0  0  0  0  0  0  0  0  0  0
   -1.4470    3.3159    3.2625 H   0  0  0  0  0  0  0  0  0  0  0  0
    0.3243    3.3682    3.3896 H   0  0  0  0  0  0  0  0  0  0  0  0
   -0.4850    3.9172    1.9023 H   0  0  0  0  0  0  0  0  0  0  0  0
  5  6  2  0  0  0  0
  5  7  1  0  0  0  0
  2  3  1  0  0  0  0
  2  4  1  0  0  0  0
  2  5  1  0  0  0  0
  1  2  1  0  0  0  0
 27 28  2  0  0  0  0
 27 29  1  0  0  0  0
 23 24  1  0  0  0  0
 23 25  1  0  0  0  0
 23 26  1  0  0  0  0
 20 21  1  0  0  0  0
 20 22  1  0  0  0  0
 20 23  1  0  0  0  0
 17 18  1  0  0  0  0
 17 19  1  0  0  0  0
 17 20  1  0  0  0  0
 14 15  1  0  0  0  0
 14 16  1  0  0  0  0
 14 17  1  0  0  0  0
 11 12  1  0  0  0  0
 11 13  1  0  0  0  0
 11 14  1  0  0  0  0
  9 10  1  0  0  0  0
  9 11  1  0  0  0  0
  9 27  1  0  0  0  0
  7  8  1  0  0  0  0
  7  9  1  0  0  0  0
 31 32  1  0  0  0  0
 31 33  1  0  0  0  0
 31 34  1  0  0  0  0
 29 30  1  0  0  0  0
 29 31  1  0  0  0  0
M  CHG  1  23   1
M  END
$$$$
default_name
  -OEChem-02102213163D

 34 33  0     1  0  0  0  0  0999 V2000
   -3.8899   -3.6747    1.6490 H   0  0  0  0  0  0  0  0  0  0  0  0
   -3.9109   -2.6717    1.2250 C   0  0  0  0  0  0  0  0  0  0  0  0
   -4.6009   -2.0517    1.7950 H   0  0  0  0  0  0  0  0  0  0  0  0
   -4.2309   -2.7237    0.1860 H   0  0  0  0  0  0  0  0  0  0  0  0
   -2.5229   -2.0787    1.2980 C   0  0  0  0  0  0  0  0  0  0  0  0
   -1.5999   -2.7227    1.7810 O   0  0  0  0  0  0  0  0  0  0  0  0
   -2.3659   -0.8447    0.8120 N   0  0  0  0  0  0  0  0  0  0  0  0
   -3.1749   -0.3807    0.4220 H   0  0  0  0  0  0  0  0  0  0  0  0
   -1.0919   -0.1077    0.8170 C   0  0  1  0  0  0  0  0  0  0  0  0
   -0.4136   -0.6011    1.5155 H   0  0  0  0  0  0  0  0  0  0  0  0
   -0.4834   -0.1723   -0.5965 C   0  0  0  0  0  0  0  0  0  0  0  0
    0.5778   -0.4103   -0.5075 H   0  0  0  0  0  0  0  0  0  0  0  0
   -0.9659   -0.9744   -1.1585 H   0  0  0  0  0  0  0  0  0  0  0  0
   -0.6191    1.1445   -1.3761 C   0  0  0  0  0  0  0  0  0  0  0  0
    0.2134    1.2461   -2.0736 H   0  0  0  0  0  0  0  0  0  0  0  0
   -1.5554    1.1349   -1.9376 H   0  0  0  0  0  0  0  0  0  0  0  0
   -0.6170    2.3391   -0.4123 C   0  0  0  0  0  0  0  0  0  0  0  0
   -1.4429    2.2268    0.2943 H   0  0  0  0  0  0  0  0  0  0  0  0
    0.3248    2.3495    0.1399 H   0  0  0  0  0  0  0  0  0  0  0  0
   -0.7775    3.6529   -1.1872 C   0  0  0  0  0  0  0  0  0  0  0  0
    0.0539    3.7428   -1.8939 H   0  0  0  0  0  0  0  0  0  0  0  0
   -1.7051    3.6044   -1.7656 H   0  0  0  0  0  0  0  0  0  0  0  0
   -0.8027    4.8247   -0.2758 N   0  3  0  0  0  0  0  0  0  0  0  0
    0.0577    4.8811    0.2547 H   0  0  0  0  0  0  0  0  0  0  0  0
   -0.9093    5.6829   -0.8022 H   0  0  0  0  0  0  0  0  0  0  0  0
   -1.5760    4.7507    0.3748 H   0  0  0  0  0  0  0  0  0  0  0  0
   -1.3103    1.3348    1.2791 C   0  0  0  0  0  0  0  0  0  0  0  0
   -2.2333    1.9891    0.8084 O   0  0  0  0  0  0  0  0  0  0  0  0
   -0.4429    1.8293    2.1683 N   0  0  0  0  0  0  0  0  0  0  0  0
    0.2668    1.2118    2.5263 H   0  0  0  0  0  0  0  0  0  0  0  0
   -0.5118    3.1863    2.7135 C   0  0  0  0  0  0  0  0  0  0  0  0
   -1.4470    3.3159    3.2625 H   0  0  0  0  0  0  0  0  0  0  0  0
    0.3243    3.3682    3.3896 H   0  0  0  0  0  0  0  0  0  0  0  0
   -0.4850    3.9172    1.9023 H   0  0  0  0  0  0  0  0  0  0  0  0
  5  6  2  0  0  0  0
  5  7  1  0  0  0  0
  2  3  1  0  0  0  0
  2  4  1  0  0  0  0
  2  5  1  0  0  0  0
  1  2  1  0  0  0  0
 27 28  2  0  0  0  0
 27 29  1  0  0  0  0
 23 24  1  0  0  0  0
 23 25  1  0  0  0  0
 23 26  1  0  0  0  0
 20 21  1  0  0  0  0
 20 22  1  0  0  0  0
 20 23  1  0  0  0  0
 17 18  1  0  0  0  0
 17 19  1  0  0  0  0
 17 20  1  0  0  0  0
 14 15  1  0  0  0  0
 14 16  1  0  0  0  0
 14 17  1  0  0  0  0
 11 12  1  0  0  0  0
 11 13  1  0  0  0  0
 11 14  1  0  0  0  0
  9 10  1  0  0  0  0
  9 11  1  0  0  0  0
  9 27  1  0  0  0  0
  7  8  1  0  0  0  0
  7  9  1  0  0  0  0
 31 32  1  0  0  0  0
 31 33  1  0  0  0  0
 31 34  1  0  0  0  0
 29 30  1  0  0  0  0
 29 31  1  0  0  0  0
M  CHG  1  23   1
M  END
$$$$
default_name
  -OEChem-02102213163D

 34 33  0     1  0  0  0  0  0999 V2000
   -3.8899   -3.6747    1.6490 H   0  0  0  0  0  0  0  0  0  0  0  0
   -3.9109   -2.6717    1.2250 C   0  0  0  0  0  0  0  0  0  0  0  0
   -4.6009   -2.0517    1.7950 H   0  0  0  0  0  0  0  0  0  0  0  0
   -4.2309   -2.7237    0.1860 H   0  0  0  0  0  0  0  0  0  0  0  0
   -2.5229   -2.0787    1.2980 C   0  0  0  0  0  0  0  0  0  0  0  0
   -1.5999   -2.7227    1.7810 O   0  0  0  0  0  0  0  0  0  0  0  0
   -2.3659   -0.8447    0.8120 N   0  0  0  0  0  0  0  0  0  0  0  0
   -3.1749   -0.3807    0.4220 H   0  0  0  0  0  0  0  0  0  0  0  0
   -1.0919   -0.1077    0.8170 C   0  0  1  0  0  0  0  0  0  0  0  0
   -0.4136   -0.6011    1.5155 H   0  0  0  0  0  0  0  0  0  0  0  0
   -0.4834   -0.1723   -0.5965 C   0  0  0  0  0  0  0  0  0  0  0  0
    0.5778   -0.4103   -0.5075 H   0  0  0  0  0  0  0  0  0  0  0  0
   -0.9659   -0.9744   -1.1585 H   0  0  0  0  0  0  0  0  0  0  0  0
   -0.6191    1.1445   -1.3761 C   0  0  0  0  0  0  0  0  0  0  0  0
    0.0426    1.1280   -2.2432 H   0  0  0  0  0  0  0  0  0  0  0  0
   -1.6504    1.2559   -1.7168 H   0  0  0  0  0  0  0  0  0  0  0  0
   -0.2480    2.3358   -0.4822 C   0  0  0  0  0  0  0  0  0  0  0  0
   -0.9025    2.3408    0.3927 H   0  0  0  0  0  0  0  0  0  0  0  0
    0.7867    2.2243   -0.1519 H   0  0  0  0  0  0  0  0  0  0  0  0
   -0.4069    3.6530   -1.2517 C   0  0  0  0  0  0  0  0  0  0  0  0
    0.2501    3.6250   -2.1271 H   0  0  0  0  0  0  0  0  0  0  0  0
   -1.4386    3.7244   -1.6092 H   0  0  0  0  0  0  0  0  0  0  0  0
   -0.0768    4.8249   -0.4019 N   0  3  0  0  0  0  0  0  0  0  0  0
    0.8802    4.7698   -0.0766 H   0  0  0  0  0  0  0  0  0  0  0  0
   -0.1869    5.6854   -0.9239 H   0  0  0  0  0  0  0  0  0  0  0  0
   -0.6882    4.8604    0.4054 H   0  0  0  0  0  0  0  0  0  0  0  0
   -1.3103    1.3348    1.2791 C   0  0  0  0  0  0  0  0  0  0  0  0
   -2.2333    1.9891    0.8084 O   0  0  0  0  0  0  0  0  0  0  0  0
   -0.4429    1.8293    2.1683 N   0  0  0  0  0  0  0  0  0  0  0  0
    0.2668    1.2118    2.5263 H   0  0  0  0  0  0  0  0  0  0  0  0
   -0.5118    3.1863    2.7135 C   0  0  0  0  0  0  0  0  0  0  0  0
   -1.4470    3.3159    3.2625 H   0  0  0  0  0  0  0  0  0  0  0  0
    0.3243    3.3682    3.3896 H   0  0  0  0  0  0  0  0  0  0  0  0
   -0.4850    3.9172    1.9023 H   0  0  0  0  0  0  0  0  0  0  0  0
  5  6  2  0  0  0  0
  5  7  1  0  0  0  0
  2  3  1  0  0  0  0
  2  4  1  0  0  0  0
  2  5  1  0  0  0  0
  1  2  1  0  0  0  0
 27 28  2  0  0  0  0
 27 29  1  0  0  0  0
 23 24  1  0  0  0  0
 23 25  1  0  0  0  0
 23 26  1  0  0  0  0
 20 21  1  0  0  0  0
 20 22  1  0  0  0  0
 20 23  1  0  0  0  0
 17 18  1  0  0  0  0
 17 19  1  0  0  0  0
 17 20  1  0  0  0  0
 14 15  1  0  0  0  0
 14 16  1  0  0  0  0
 14 17  1  0  0  0  0
 11 12  1  0  0  0  0
 11 13  1  0  0  0  0
 11 14  1  0  0  0  0
  9 10  1  0  0  0  0
  9 11  1  0  0  0  0
  9 27  1  0  0  0  0
  7  8  1  0  0  0  0
  7  9  1  0  0  0  0
 31 32  1  0  0  0  0
 31 33  1  0  0  0  0
 31 34  1  0  0  0  0
 29 30  1  0  0  0  0
 29 31  1  0  0  0  0
M  CHG  1  23   1
M  END
$$$$
default_name
  -OEChem-02102213163D

 34 33  0     1  0  0  0  0  0999 V2000
   -3.8899   -3.6747    1.6490 H   0  0  0  0  0  0  0  0  0  0  0  0
   -3.9109   -2.6717    1.2250 C   0  0  0  0  0  0  0  0  0  0  0  0
   -4.6009   -2.0517    1.7950 H   0  0  0  0  0  0  0  0  0  0  0  0
   -4.2309   -2.7237    0.1860 H   0  0  0  0  0  0  0  0  0  0  0  0
   -2.5229   -2.0787    1.2980 C   0  0  0  0  0  0  0  0  0  0  0  0
   -1.5999   -2.7227    1.7810 O   0  0  0  0  0  0  0  0  0  0  0  0
   -2.3659   -0.8447    0.8120 N   0  0  0  0  0  0  0  0  0  0  0  0
   -3.1749   -0.3807    0.4220 H   0  0  0  0  0  0  0  0  0  0  0  0
   -1.0919   -0.1077    0.8170 C   0  0  1  0  0  0  0  0  0  0  0  0
   -0.4136   -0.6011    1.5155 H   0  0  0  0  0  0  0  0  0  0  0  0
   -0.4834   -0.1723   -0.5965 C   0  0  0  0  0  0  0  0  0  0  0  0
    0.5778   -0.4103   -0.5075 H   0  0  0  0  0  0  0  0  0  0  0  0
   -0.9659   -0.9744   -1.1585 H   0  0  0  0  0  0  0  0  0  0  0  0
   -0.6191    1.1445   -1.3761 C   0  0  0  0  0  0  0  0  0  0  0  0
   -0.1756    1.0326   -2.3664 H   0  0  0  0  0  0  0  0  0  0  0  0
   -1.6773    1.3902   -1.4852 H   0  0  0  0  0  0  0  0  0  0  0  0
    0.0925    2.2825   -0.6314 C   0  0  0  0  0  0  0  0  0  0  0  0
   -0.3438    2.3822    0.3653 H   0  0  0  0  0  0  0  0  0  0  0  0
    1.1517    2.0362   -0.5333 H   0  0  0  0  0  0  0  0  0  0  0  0
   -0.0633    3.6029   -1.3962 C   0  0  0  0  0  0  0  0  0  0  0  0
    0.3724    3.4801   -2.3931 H   0  0  0  0  0  0  0  0  0  0  0  0
   -1.1308    3.8090   -1.5200 H   0  0  0  0  0  0  0  0  0  0  0  0
    0.5963    4.7269   -0.6848 N   0  3  0  0  0  0  0  0  0  0  0  0
    1.5866    4.5467   -0.5764 H   0  0  0  0  0  0  0  0  0  0  0  0
    0.4842    5.5901   -1.2017 H   0  0  0  0  0  0  0  0  0  0  0  0
    0.1905    4.8504    0.2355 H   0  0  0  0  0  0  0  0  0  0  0  0
   -1.3103    1.3348    1.2791 C   0  0  0  0  0  0  0  0  0  0  0  0
   -2.2333    1.9891    0.8084 O   0  0  0  0  0  0  0  0  0  0  0  0
   -0.4429    1.8293    2.1683 N   0  0  0  0  0  0  0  0  0  0  0  0
    0.2668    1.2118    2.5263 H   0  0  0  0  0  0  0  0  0  0  0  0
   -0.5118    3.1863    2.7135 C   0  0  0  0  0  0  0  0  0  0  0  0
   -1.4470    3.3159    3.2625 H   0  0  0  0  0  0  0  0  0  0  0  0
    0.3243    3.3682    3.3896 H   0  0  0  0  0  0  0  0  0  0  0  0
   -0.4850    3.9172    1.9023 H   0  0  0  0  0  0  0  0  0  0  0  0
  5  6  2  0  0  0  0
  5  7  1  0  0  0  0
  2  3  1  0  0  0  0
  2  4  1  0  0  0  0
  2  5  1  0  0  0  0
  1  2  1  0  0  0  0
 27 28  2  0  0  0  0
 27 29  1  0  0  0  0
 23 24  1  0  0  0  0
 23 25  1  0  0  0  0
 23 26  1  0  0  0  0
 20 21  1  0  0  0  0
 20 22  1  0  0  0  0
 20 23  1  0  0  0  0
 17 18  1  0  0  0  0
 17 19  1  0  0  0  0
 17 20  1  0  0  0  0
 14 15  1  0  0  0  0
 14 16  1  0  0  0  0
 14 17  1  0  0  0  0
 11 12  1  0  0  0  0
 11 13  1  0  0  0  0
 11 14  1  0  0  0  0
  9 10  1  0  0  0  0
  9 11  1  0  0  0  0
  9 27  1  0  0  0  0
  7  8  1  0  0  0  0
  7  9  1  0  0  0  0
 31 32  1  0  0  0  0
 31 33  1  0  0  0  0
 31 34  1  0  0  0  0
 29 30  1  0  0  0  0
 29 31  1  0  0  0  0
M  CHG  1  23   1
M  END
$$$$
default_name
  -OEChem-02102213163D

 34 33  0     1  0  0  0  0  0999 V2000
   -3.8899   -3.6747    1.6490 H   0  0  0  0  0  0  0  0  0  0  0  0
   -3.9109   -2.6717    1.2250 C   0  0  0  0  0  0  0  0  0  0  0  0
   -4.6009   -2.0517    1.7950 H   0  0  0  0  0  0  0  0  0  0  0  0
   -4.2309   -2.7237    0.1860 H   0  0  0  0  0  0  0  0  0  0  0  0
   -2.5229   -2.0787    1.2980 C   0  0  0  0  0  0  0  0  0  0  0  0
   -1.5999   -2.7227    1.7810 O   0  0  0  0  0  0  0  0  0  0  0  0
   -2.3659   -0.8447    0.8120 N   0  0  0  0  0  0  0  0  0  0  0  0
   -3.1749   -0.3807    0.4220 H   0  0  0  0  0  0  0  0  0  0  0  0
   -1.0919   -0.1077    0.8170 C   0  0  1  0  0  0  0  0  0  0  0  0
   -0.4136   -0.6011    1.5155 H   0  0  0  0  0  0  0  0  0  0  0  0
   -0.4834   -0.1723   -0.5965 C   0  0  0  0  0  0  0  0  0  0  0  0
    0.5778   -0.4103   -0.5075 H   0  0  0  0  0  0  0  0  0  0  0  0
   -0.9659   -0.9744   -1.1585 H   0  0  0  0  0  0  0  0  0  0  0  0
   -0.6191    1.1445   -1.3761 C   0  0  0  0  0  0  0  0  0  0  0  0
   -0.4262    0.9662   -2.4349 H   0  0  0  0  0  0  0  0  0  0  0  0
   -1.6342    1.5288   -1.2586 H   0  0  0  0  0  0  0  0  0  0  0  0
    0.3814    2.1829   -0.8500 C   0  0  0  0  0  0  0  0  0  0  0  0
    0.1952    2.3481    0.2139 H   0  0  0  0  0  0  0  0  0  0  0  0
    1.3949    1.7977   -0.9783 H   0  0  0  0  0  0  0  0  0  0  0  0
    0.2300    3.5061   -1.6108 C   0  0  0  0  0  0  0  0  0  0  0  0
    0.4124    3.3180   -2.6738 H   0  0  0  0  0  0  0  0  0  0  0  0
   -0.8025    3.8523   -1.5041 H   0  0  0  0  0  0  0  0  0  0  0  0
    1.1710    4.5373   -1.1051 N   0  3  0  0  0  0  0  0  0  0  0  0
    2.1287    4.2269   -1.2109 H   0  0  0  0  0  0  0  0  0  0  0  0
    1.0583    5.4035   -1.6168 H   0  0  0  0  0  0  0  0  0  0  0  0
    1.0003    4.7214   -0.1234 H   0  0  0  0  0  0  0  0  0  0  0  0
   -1.3103    1.3348    1.2791 C   0  0  0  0  0  0  0  0  0  0  0  0
   -2.2333    1.9891    0.8084 O   0  0  0  0  0  0  0  0  0  0  0  0
   -0.4429    1.8293    2.1683 N   0  0  0  0  0  0  0  0  0  0  0  0
    0.2668    1.2118    2.5263 H   0  0  0  0  0  0  0  0  0  0  0  0
   -0.5118    3.1863    2.7135 C   0  0  0  0  0  0  0  0  0  0  0  0
   -1.4470    3.3159    3.2625 H   0  0  0  0  0  0  0  0  0  0  0  0
    0.3243    3.3682    3.3896 H   0  0  0  0  0  0  0  0  0  0  0  0
   -0.4850    3.9172    1.9023 H   0  0  0  0  0  0  0  0  0  0  0  0
  5  6  2  0  0  0  0
  5  7  1  0  0  0  0
  2  3  1  0  0  0  0
  2  4  1  0  0  0  0
  2  5  1  0  0  0  0
  1  2  1  0  0  0  0
 27 28  2  0  0  0  0
 27 29  1  0  0  0  0
 23 24  1  0  0  0  0
 23 25  1  0  0  0  0
 23 26  1  0  0  0  0
 20 21  1  0  0  0  0
 20 22  1  0  0  0  0
 20 23  1  0  0  0  0
 17 18  1  0  0  0  0
 17 19  1  0  0  0  0
 17 20  1  0  0  0  0
 14 15  1  0  0  0  0
 14 16  1  0  0  0  0
 14 17  1  0  0  0  0
 11 12  1  0  0  0  0
 11 13  1  0  0  0  0
 11 14  1  0  0  0  0
  9 10  1  0  0  0  0
  9 11  1  0  0  0  0
  9 27  1  0  0  0  0
  7  8  1  0  0  0  0
  7  9  1  0  0  0  0
 31 32  1  0  0  0  0
 31 33  1  0  0  0  0
 31 34  1  0  0  0  0
 29 30  1  0  0  0  0
 29 31  1  0  0  0  0
M  CHG  1  23   1
M  END
$$$$
default_name
  -OEChem-02102213163D

 34 33  0     1  0  0  0  0  0999 V2000
   -3.8899   -3.6747    1.6490 H   0  0  0  0  0  0  0  0  0  0  0  0
   -3.9109   -2.6717    1.2250 C   0  0  0  0  0  0  0  0  0  0  0  0
   -4.6009   -2.0517    1.7950 H   0  0  0  0  0  0  0  0  0  0  0  0
   -4.2309   -2.7237    0.1860 H   0  0  0  0  0  0  0  0  0  0  0  0
   -2.5229   -2.0787    1.2980 C   0  0  0  0  0  0  0  0  0  0  0  0
   -1.5999   -2.7227    1.7810 O   0  0  0  0  0  0  0  0  0  0  0  0
   -2.3659   -0.8447    0.8120 N   0  0  0  0  0  0  0  0  0  0  0  0
   -3.1749   -0.3807    0.4220 H   0  0  0  0  0  0  0  0  0  0  0  0
   -1.0919   -0.1077    0.8170 C   0  0  1  0  0  0  0  0  0  0  0  0
   -0.4136   -0.6011    1.5155 H   0  0  0  0  0  0  0  0  0  0  0  0
   -0.4834   -0.1723   -0.5965 C   0  0  0  0  0  0  0  0  0  0  0  0
    0.5778   -0.4103   -0.5075 H   0  0  0  0  0  0  0  0  0  0  0  0
   -0.9659   -0.9744   -1.1585 H   0  0  0  0  0  0  0  0  0  0  0  0
   -0.6191    1.1445   -1.3761 C   0  0  0  0  0  0  0  0  0  0  0  0
   -0.6922    0.9335   -2.4439 H   0  0  0  0  0  0  0  0  0  0  0  0
   -1.5242    1.6622   -1.0524 H   0  0  0  0  0  0  0  0  0  0  0  0
    0.5988    2.0437   -1.1229 C   0  0  0  0  0  0  0  0  0  0  0  0
    0.6778    2.2410   -0.0511 H   0  0  0  0  0  0  0  0  0  0  0  0
    1.4998    1.5253   -1.4567 H   0  0  0  0  0  0  0  0  0  0  0  0
    0.4529    3.3691   -1.8809 C   0  0  0  0  0  0  0  0  0  0  0  0
    0.3676    3.1497   -2.9502 H   0  0  0  0  0  0  0  0  0  0  0  0
   -0.4762    3.8513   -1.5625 H   0  0  0  0  0  0  0  0  0  0  0  0
    1.6078    4.2690   -1.6343 N   0  3  0  0  0  0  0  0  0  0  0  0
    2.4697    3.8324   -1.9366 H   0  0  0  0  0  0  0  0  0  0  0  0
    1.4962    5.1384   -2.1408 H   0  0  0  0  0  0  0  0  0  0  0  0
    1.6859    4.4823   -0.6467 H   0  0  0  0  0  0  0  0  0  0  0  0
   -1.3103    1.3348    1.2791 C   0  0  0  0  0  0  0  0  0  0  0  0
   -2.2333    1.9891    0.8084 O   0  0  0  0  0  0  0  0  0  0  0  0
   -0.4429    1.8293    2.1683 N   0  0  0  0  0  0  0  0  0  0  0  0
    0.2668    1.2118    2.5263 H   0  0  0  0  0  0  0  0  0  0  0  0
   -0.5118    3.1863    2.7135 C   0  0  0  0  0  0  0  0  0  0  0  0
   -1.4470    3.3159    3.2625 H   0  0  0  0  0  0  0  0  0  0  0  0
    0.3243    3.3682    3.3896 H   0  0  0  0  0  0  0  0  0  0  0  0
   -0.4850    3.9172    1.9023 H   0  0  0  0  0  0  0  0  0  0  0  0
  5  6  2  0  0  0  0
  5  7  1  0  0  0  0
  2  3  1  0  0  0  0
  2  4  1  0  0  0  0
  2  5  1  0  0  0  0
  1  2  1  0  0  0  0
 27 28  2  0  0  0  0
 27 29  1  0  0  0  0
 23 24  1  0  0  0  0
 23 25  1  0  0  0  0
 23 26  1  0  0  0  0
 20 21  1  0  0  0  0
 20 22  1  0  0  0  0
 20 23  1  0  0  0  0
 17 18  1  0  0  0  0
 17 19  1  0  0  0  0
 17 20  1  0  0  0  0
 14 15  1  0  0  0  0
 14 16  1  0  0  0  0
 14 17  1  0  0  0  0
 11 12  1  0  0  0  0
 11 13  1  0  0  0  0
 11 14  1  0  0  0  0
  9 10  1  0  0  0  0
  9 11  1  0  0  0  0
  9 27  1  0  0  0  0
  7  8  1  0  0  0  0
  7  9  1  0  0  0  0
 31 32  1  0  0  0  0
 31 33  1  0  0  0  0
 31 34  1  0  0  0  0
 29 30  1  0  0  0  0
 29 31  1  0  0  0  0
M  CHG  1  23   1
M  END
$$$$
default_name
  -OEChem-02102213163D

 34 33  0     1  0  0  0  0  0999 V2000
   -3.8899   -3.6747    1.6490 H   0  0  0  0  0  0  0  0  0  0  0  0
   -3.9109   -2.6717    1.2250 C   0  0  0  0  0  0  0  0  0  0  0  0
   -4.6009   -2.0517    1.7950 H   0  0  0  0  0  0  0  0  0  0  0  0
   -4.2309   -2.7237    0.1860 H   0  0  0  0  0  0  0  0  0  0  0  0
   -2.5229   -2.0787    1.2980 C   0  0  0  0  0  0  0  0  0  0  0  0
   -1.5999   -2.7227    1.7810 O   0  0  0  0  0  0  0  0  0  0  0  0
   -2.3659   -0.8447    0.8120 N   0  0  0  0  0  0  0  0  0  0  0  0
   -3.1749   -0.3807    0.4220 H   0  0  0  0  0  0  0  0  0  0  0  0
   -1.0919   -0.1077    0.8170 C   0  0  1  0  0  0  0  0  0  0  0  0
   -0.4136   -0.6011    1.5155 H   0  0  0  0  0  0  0  0  0  0  0  0
   -0.4834   -0.1723   -0.5965 C   0  0  0  0  0  0  0  0  0  0  0  0
    0.5778   -0.4103   -0.5075 H   0  0  0  0  0  0  0  0  0  0  0  0
   -0.9659   -0.9744   -1.1585 H   0  0  0  0  0  0  0  0  0  0  0  0
   -0.6191    1.1445   -1.3761 C   0  0  0  0  0  0  0  0  0  0  0  0
   -0.9554    0.9366   -2.3928 H   0  0  0  0  0  0  0  0  0  0  0  0
   -1.3546    1.7814   -0.8807 H   0  0  0  0  0  0  0  0  0  0  0  0
    0.7299    1.8745   -1.4315 C   0  0  0  0  0  0  0  0  0  0  0  0
    1.0711    2.0681   -0.4117 H   0  0  0  0  0  0  0  0  0  0  0  0
    1.4592    1.2374   -1.9359 H   0  0  0  0  0  0  0  0  0  0  0  0
    0.5904    3.2014   -2.1882 C   0  0  0  0  0  0  0  0  0  0  0  0
    0.2408    2.9868   -3.2033 H   0  0  0  0  0  0  0  0  0  0  0  0
   -0.1742    3.8062   -1.6913 H   0  0  0  0  0  0  0  0  0  0  0  0
    1.8772    3.9404   -2.2361 N   0  3  0  0  0  0  0  0  0  0  0  0
    2.5861    3.3899   -2.7043 H   0  0  0  0  0  0  0  0  0  0  0  0
    1.7682    4.8129   -2.7381 H   0  0  0  0  0  0  0  0  0  0  0  0
    2.2007    4.1493   -1.2988 H   0  0  0  0  0  0  0  0  0  0  0  0
   -1.3103    1.3348    1.2791 C   0  0  0  0  0  0  0  0  0  0  0  0
   -2.2333    1.9891    0.8084 O   0  0  0  0  0  0  0  0  0  0  0  0
   -0.4429    1.8293    2.1683 N   0  0  0  0  0  0  0  0  0  0  0  0
    0.2668    1.2118    2.5263 H   0  0  0  0  0  0  0  0  0  0  0  0
   -0.5118    3.1863    2.7135 C   0  0  0  0  0  0  0  0  0  0  0  0
   -1.4470    3.3159    3.2625 H   0  0  0  0  0  0  0  0  0  0  0  0
    0.3243    3.3682    3.3896 H   0  0  0  0  0  0  0  0  0  0  0  0
   -0.4850    3.9172    1.9023 H   0  0  0  0  0  0  0  0  0  0  0  0
  5  6  2  0  0  0  0
  5  7  1  0  0  0  0
  2  3  1  0  0  0  0
  2  4  1  0  0  0  0
  2  5  1  0  0  0  0
  1  2  1  0  0  0  0
 27 28  2  0  0  0  0
 27 29  1  0  0  0  0
 23 24  1  0  0  0  0
 23 25  1  0  0  0  0
 23 26  1  0  0  0  0
 20 21  1  0  0  0  0
 20 22  1  0  0  0  0
 20 23  1  0  0  0  0
 17 18  1  0  0  0  0
 17 19  1  0  0  0  0
 17 20  1  0  0  0  0
 14 15  1  0  0  0  0
 14 16  1  0  0  0  0
 14 17  1  0  0  0  0
 11 12  1  0  0  0  0
 11 13  1  0  0  0  0
 11 14  1  0  0  0  0
  9 10  1  0  0  0  0
  9 11  1  0  0  0  0
  9 27  1  0  0  0  0
  7  8  1  0  0  0  0
  7  9  1  0  0  0  0
 31 32  1  0  0  0  0
 31 33  1  0  0  0  0
 31 34  1  0  0  0  0
 29 30  1  0  0  0  0
 29 31  1  0  0  0  0
M  CHG  1  23   1
M  END
$$$$
default_name
  -OEChem-02102213163D

 34 33  0     1  0  0  0  0  0999 V2000
   -3.8899   -3.6747    1.6490 H   0  0  0  0  0  0  0  0  0  0  0  0
   -3.9109   -2.6717    1.2250 C   0  0  0  0  0  0  0  0  0  0  0  0
   -4.6009   -2.0517    1.7950 H   0  0  0  0  0  0  0  0  0  0  0  0
   -4.2309   -2.7237    0.1860 H   0  0  0  0  0  0  0  0  0  0  0  0
   -2.5229   -2.0787    1.2980 C   0  0  0  0  0  0  0  0  0  0  0  0
   -1.5999   -2.7227    1.7810 O   0  0  0  0  0  0  0  0  0  0  0  0
   -2.3659   -0.8447    0.8120 N   0  0  0  0  0  0  0  0  0  0  0  0
   -3.1749   -0.3807    0.4220 H   0  0  0  0  0  0  0  0  0  0  0  0
   -1.0919   -0.1077    0.8170 C   0  0  1  0  0  0  0  0  0  0  0  0
   -0.4136   -0.6011    1.5155 H   0  0  0  0  0  0  0  0  0  0  0  0
   -0.4834   -0.1723   -0.5965 C   0  0  0  0  0  0  0  0  0  0  0  0
    0.5778   -0.4103   -0.5075 H   0  0  0  0  0  0  0  0  0  0  0  0
   -0.9659   -0.9744   -1.1585 H   0  0  0  0  0  0  0  0  0  0  0  0
   -0.6191    1.1445   -1.3761 C   0  0  0  0  0  0  0  0  0  0  0  0
   -1.1979    0.9753   -2.2852 H   0  0  0  0  0  0  0  0  0  0  0  0
   -1.1370    1.8781   -0.7552 H   0  0  0  0  0  0  0  0  0  0  0  0
    0.7660    1.6868   -1.7548 C   0  0  0  0  0  0  0  0  0  0  0  0
    1.3483    1.8411   -0.8433 H   0  0  0  0  0  0  0  0  0  0  0  0
    1.2758    0.9537   -2.3831 H   0  0  0  0  0  0  0  0  0  0  0  0
    0.6329    3.0142   -2.5117 C   0  0  0  0  0  0  0  0  0  0  0  0
    0.0408    2.8402   -3.4160 H   0  0  0  0  0  0  0  0  0  0  0  0
    0.0831    3.7200   -1.8817 H   0  0  0  0  0  0  0  0  0  0  0  0
    1.9607    3.5739   -2.8697 N   0  3  0  0  0  0  0  0  0  0  0  0
    2.4702    2.9296   -3.4615 H   0  0  0  0  0  0  0  0  0  0  0  0
    1.8556    4.4490   -3.3678 H   0  0  0  0  0  0  0  0  0  0  0  0
    2.5096    3.7451   -2.0353 H   0  0  0  0  0  0  0  0  0  0  0  0
   -1.3103    1.3348    1.2791 C   0  0  0  0  0  0  0  0  0  0  0  0
   -2.2333    1.9891    0.8084 O   0  0  0  0  0  0  0  0  0  0  0  0
   -0.4429    1.8293    2.1683 N   0  0  0  0  0  0  0  0  0  0  0  0
    0.2668    1.2118    2.5263 H   0  0  0  0  0  0  0  0  0  0  0  0
   -0.5118    3.1863    2.7135 C   0  0  0  0  0  0  0  0  0  0  0  0
   -1.4470    3.3159    3.2625 H   0  0  0  0  0  0  0  0  0  0  0  0
    0.3243    3.3682    3.3896 H   0  0  0  0  0  0  0  0  0  0  0  0
   -0.4850    3.9172    1.9023 H   0  0  0  0  0  0  0  0  0  0  0  0
  5  6  2  0  0  0  0
  5  7  1  0  0  0  0
  2  3  1  0  0  0  0
  2  4  1  0  0  0  0
  2  5  1  0  0  0  0
  1  2  1  0  0  0  0
 27 28  2  0  0  0  0
 27 29  1  0  0  0  0
 23 24  1  0  0  0  0
 23 25  1  0  0  0  0
 23 26  1  0  0  0  0
 20 21  1  0  0  0  0
 20 22  1  0  0  0  0
 20 23  1  0  0  0  0
 17 18  1  0  0  0  0
 17 19  1  0  0  0  0
 17 20  1  0  0  0  0
 14 15  1  0  0  0  0
 14 16  1  0  0  0  0
 14 17  1  0  0  0  0
 11 12  1  0  0  0  0
 11 13  1  0  0  0  0
 11 14  1  0  0  0  0
  9 10  1  0  0  0  0
  9 11  1  0  0  0  0
  9 27  1  0  0  0  0
  7  8  1  0  0  0  0
  7  9  1  0  0  0  0
 31 32  1  0  0  0  0
 31 33  1  0  0  0  0
 31 34  1  0  0  0  0
 29 30  1  0  0  0  0
 29 31  1  0  0  0  0
M  CHG  1  23   1
M  END
$$$$
default_name
  -OEChem-02102213163D

 34 33  0     1  0  0  0  0  0999 V2000
   -3.8899   -3.6747    1.6490 H   0  0  0  0  0  0  0  0  0  0  0  0
   -3.9109   -2.6717    1.2250 C   0  0  0  0  0  0  0  0  0  0  0  0
   -4.6009   -2.0517    1.7950 H   0  0  0  0  0  0  0  0  0  0  0  0
   -4.2309   -2.7237    0.1860 H   0  0  0  0  0  0  0  0  0  0  0  0
   -2.5229   -2.0787    1.2980 C   0  0  0  0  0  0  0  0  0  0  0  0
   -1.5999   -2.7227    1.7810 O   0  0  0  0  0  0  0  0  0  0  0  0
   -2.3659   -0.8447    0.8120 N   0  0  0  0  0  0  0  0  0  0  0  0
   -3.1749   -0.3807    0.4220 H   0  0  0  0  0  0  0  0  0  0  0  0
   -1.0919   -0.1077    0.8170 C   0  0  1  0  0  0  0  0  0  0  0  0
   -0.4136   -0.6011    1.5155 H   0  0  0  0  0  0  0  0  0  0  0  0
   -0.4834   -0.1723   -0.5965 C   0  0  0  0  0  0  0  0  0  0  0  0
    0.5778   -0.4103   -0.5075 H   0  0  0  0  0  0  0  0  0  0  0  0
   -0.9659   -0.9744   -1.1585 H   0  0  0  0  0  0  0  0  0  0  0  0
   -0.6191    1.1445   -1.3761 C   0  0  0  0  0  0  0  0  0  0  0  0
   -1.4032    1.0470   -2.1283 H   0  0  0  0  0  0  0  0  0  0  0  0
   -0.8864    1.9458   -0.6845 H   0  0  0  0  0  0  0  0  0  0  0  0
    0.7044    1.4934   -2.0708 C   0  0  0  0  0  0  0  0  0  0  0  0
    1.4905    1.5756   -1.3165 H   0  0  0  0  0  0  0  0  0  0  0  0
    0.9623    0.6936   -2.7679 H   0  0  0  0  0  0  0  0  0  0  0  0
    0.5777    2.8205   -2.8293 C   0  0  0  0  0  0  0  0  0  0  0  0
   -0.2188    2.7201   -3.5737 H   0  0  0  0  0  0  0  0  0  0  0  0
    0.2780    3.5986   -2.1207 H   0  0  0  0  0  0  0  0  0  0  0  0
    1.8527    3.1944   -3.4919 N   0  3  0  0  0  0  0  0  0  0  0  0
    2.1298    2.4829   -4.1566 H   0  0  0  0  0  0  0  0  0  0  0  0
    1.7525    4.0717   -3.9872 H   0  0  0  0  0  0  0  0  0  0  0  0
    2.5914    3.2972   -2.8059 H   0  0  0  0  0  0  0  0  0  0  0  0
   -1.3103    1.3348    1.2791 C   0  0  0  0  0  0  0  0  0  0  0  0
   -2.2333    1.9891    0.8084 O   0  0  0  0  0  0  0  0  0  0  0  0
   -0.4429    1.8293    2.1683 N   0  0  0  0  0  0  0  0  0  0  0  0
    0.2668    1.2118    2.5263 H   0  0  0  0  0  0  0  0  0  0  0  0
   -0.5118    3.1863    2.7135 C   0  0  0  0  0  0  0  0  0  0  0  0
   -1.4470    3.3159    3.2625 H   0  0  0  0  0  0  0  0  0  0  0  0
    0.3243    3.3682    3.3896 H   0  0  0  0  0  0  0  0  0  0  0  0
   -0.4850    3.9172    1.9023 H   0  0  0  0  0  0  0  0  0  0  0  0
  5  6  2  0  0  0  0
  5  7  1  0  0  0  0
  2  3  1  0  0  0  0
  2  4  1  0  0  0  0
  2  5  1  0  0  0  0
  1  2  1  0  0  0  0
 27 28  2  0  0  0  0
 27 29  1  0  0  0  0
 23 24  1  0  0  0  0
 23 25  1  0  0  0  0
 23 26  1  0  0  0  0
 20 21  1  0  0  0  0
 20 22  1  0  0  0  0
 20 23  1  0  0  0  0
 17 18  1  0  0  0  0
 17 19  1  0  0  0  0
 17 20  1  0  0  0  0
 14 15  1  0  0  0  0
 14 16  1  0  0  0  0
 14 17  1  0  0  0  0
 11 12  1  0  0  0  0
 11 13  1  0  0  0  0
 11 14  1  0  0  0  0
  9 10  1  0  0  0  0
  9 11  1  0  0  0  0
  9 27  1  0  0  0  0
  7  8  1  0  0  0  0
  7  9  1  0  0  0  0
 31 32  1  0  0  0  0
 31 33  1  0  0  0  0
 31 34  1  0  0  0  0
 29 30  1  0  0  0  0
 29 31  1  0  0  0  0
M  CHG  1  23   1
M  END
$$$$
default_name
  -OEChem-02102213163D

 34 33  0     1  0  0  0  0  0999 V2000
   -3.8899   -3.6747    1.6490 H   0  0  0  0  0  0  0  0  0  0  0  0
   -3.9109   -2.6717    1.2250 C   0  0  0  0  0  0  0  0  0  0  0  0
   -4.6009   -2.0517    1.7950 H   0  0  0  0  0  0  0  0  0  0  0  0
   -4.2309   -2.7237    0.1860 H   0  0  0  0  0  0  0  0  0  0  0  0
   -2.5229   -2.0787    1.2980 C   0  0  0  0  0  0  0  0  0  0  0  0
   -1.5999   -2.7227    1.7810 O   0  0  0  0  0  0  0  0  0  0  0  0
   -2.3659   -0.8447    0.8120 N   0  0  0  0  0  0  0  0  0  0  0  0
   -3.1749   -0.3807    0.4220 H   0  0  0  0  0  0  0  0  0  0  0  0
   -1.0919   -0.1077    0.8170 C   0  0  1  0  0  0  0  0  0  0  0  0
   -0.4136   -0.6011    1.5155 H   0  0  0  0  0  0  0  0  0  0  0  0
   -0.4834   -0.1723   -0.5965 C   0  0  0  0  0  0  0  0  0  0  0  0
    0.5778   -0.4103   -0.5075 H   0  0  0  0  0  0  0  0  0  0  0  0
   -0.9659   -0.9744   -1.1585 H   0  0  0  0  0  0  0  0  0  0  0  0
   -0.6191    1.1445   -1.3761 C   0  0  0  0  0  0  0  0  0  0  0  0
   -1.5572    1.1468   -1.9329 H   0  0  0  0  0  0  0  0  0  0  0  0
   -0.6197    1.9799   -0.6733 H   0  0  0  0  0  0  0  0  0  0  0  0
    0.5494    1.3074   -2.3580 C   0  0  0  0  0  0  0  0  0  0  0  0
    1.4881    1.2896   -1.7990 H   0  0  0  0  0  0  0  0  0  0  0  0
    0.5399    0.4746   -3.0641 H   0  0  0  0  0  0  0  0  0  0  0  0
    0.4285    2.6334   -3.1194 C   0  0  0  0  0  0  0  0  0  0  0  0
   -0.5203    2.6345   -3.6657 H   0  0  0  0  0  0  0  0  0  0  0  0
    0.3974    3.4502   -2.3921 H   0  0  0  0  0  0  0  0  0  0  0  0
    1.5605    2.8278   -4.0602 N   0  3  0  0  0  0  0  0  0  0  0  0
    1.5882    2.0803   -4.7424 H   0  0  0  0  0  0  0  0  0  0  0  0
    1.4660    3.7065   -4.5540 H   0  0  0  0  0  0  0  0  0  0  0  0
    2.4407    2.8363   -3.5582 H   0  0  0  0  0  0  0  0  0  0  0  0
   -1.3103    1.3348    1.2791 C   0  0  0  0  0  0  0  0  0  0  0  0
   -2.2333    1.9891    0.8084 O   0  0  0  0  0  0  0  0  0  0  0  0
   -0.4429    1.8293    2.1683 N   0  0  0  0  0  0  0  0  0  0  0  0
    0.2668    1.2118    2.5263 H   0  0  0  0  0  0  0  0  0  0  0  0
   -0.5118    3.1863    2.7135 C   0  0  0  0  0  0  0  0  0  0  0  0
   -1.4470    3.3159    3.2625 H   0  0  0  0  0  0  0  0  0  0  0  0
    0.3243    3.3682    3.3896 H   0  0  0  0  0  0  0  0  0  0  0  0
   -0.4850    3.9172    1.9023 H   0  0  0  0  0  0  0  0  0  0  0  0
  5  6  2  0  0  0  0
  5  7  1  0  0  0  0
  2  3  1  0  0  0  0
  2  4  1  0  0  0  0
  2  5  1  0  0  0  0
  1  2  1  0  0  0  0
 27 28  2  0  0  0  0
 27 29  1  0  0  0  0
 23 24  1  0  0  0  0
 23 25  1  0  0  0  0
 23 26  1  0  0  0  0
 20 21  1  0  0  0  0
 20 22  1  0  0  0  0
 20 23  1  0  0  0  0
 17 18  1  0  0  0  0
 17 19  1  0  0  0  0
 17 20  1  0  0  0  0
 14 15  1  0  0  0  0
 14 16  1  0  0  0  0
 14 17  1  0  0  0  0
 11 12  1  0  0  0  0
 11 13  1  0  0  0  0
 11 14  1  0  0  0  0
  9 10  1  0  0  0  0
  9 11  1  0  0  0  0
  9 27  1  0  0  0  0
  7  8  1  0  0  0  0
  7  9  1  0  0  0  0
 31 32  1  0  0  0  0
 31 33  1  0  0  0  0
 31 34  1  0  0  0  0
 29 30  1  0  0  0  0
 29 31  1  0  0  0  0
M  CHG  1  23   1
M  END
$$$$
default_name
  -OEChem-02102213163D

 34 33  0     1  0  0  0  0  0999 V2000
   -3.8899   -3.6747    1.6490 H   0  0  0  0  0  0  0  0  0  0  0  0
   -3.9109   -2.6717    1.2250 C   0  0  0  0  0  0  0  0  0  0  0  0
   -4.6009   -2.0517    1.7950 H   0  0  0  0  0  0  0  0  0  0  0  0
   -4.2309   -2.7237    0.1860 H   0  0  0  0  0  0  0  0  0  0  0  0
   -2.5229   -2.0787    1.2980 C   0  0  0  0  0  0  0  0  0  0  0  0
   -1.5999   -2.7227    1.7810 O   0  0  0  0  0  0  0  0  0  0  0  0
   -2.3659   -0.8447    0.8120 N   0  0  0  0  0  0  0  0  0  0  0  0
   -3.1749   -0.3807    0.4220 H   0  0  0  0  0  0  0  0  0  0  0  0
   -1.0919   -0.1077    0.8170 C   0  0  1  0  0  0  0  0  0  0  0  0
   -0.4136   -0.6011    1.5155 H   0  0  0  0  0  0  0  0  0  0  0  0
   -0.4834   -0.1723   -0.5965 C   0  0  0  0  0  0  0  0  0  0  0  0
    0.5778   -0.4103   -0.5075 H   0  0  0  0  0  0  0  0  0  0  0  0
   -0.9659   -0.9744   -1.1585 H   0  0  0  0  0  0  0  0  0  0  0  0
   -0.6191    1.1445   -1.3761 C   0  0  0  0  0  0  0  0  0  0  0  0
   -1.6495    1.2679   -1.7122 H   0  0  0  0  0  0  0  0  0  0  0  0
   -0.3551    1.9781   -0.7225 H   0  0  0  0  0  0  0  0  0  0  0  0
    0.3115    1.1415   -2.5967 C   0  0  0  0  0  0  0  0  0  0  0  0
    1.3410    1.0027   -2.2580 H   0  0  0  0  0  0  0  0  0  0  0  0
    0.0374    0.3119   -3.2515 H   0  0  0  0  0  0  0  0  0  0  0  0
    0.1954    2.4655   -3.3622 C   0  0  0  0  0  0  0  0  0  0  0  0
   -0.8432    2.5894   -3.6857 H   0  0  0  0  0  0  0  0  0  0  0  0
    0.4330    3.2851   -2.6772 H   0  0  0  0  0  0  0  0  0  0  0  0
    1.1040    2.4990   -4.5360 N   0  3  0  0  0  0  0  0  0  0  0  0
    0.8821    1.7491   -5.1788 H   0  0  0  0  0  0  0  0  0  0  0  0
    1.0156    3.3785   -5.0296 H   0  0  0  0  0  0  0  0  0  0  0  0
    2.0677    2.3936   -4.2409 H   0  0  0  0  0  0  0  0  0  0  0  0
   -1.3103    1.3348    1.2791 C   0  0  0  0  0  0  0  0  0  0  0  0
   -2.2333    1.9891    0.8084 O   0  0  0  0  0  0  0  0  0  0  0  0
   -0.4429    1.8293    2.1683 N   0  0  0  0  0  0  0  0  0  0  0  0
    0.2668    1.2118    2.5263 H   0  0  0  0  0  0  0  0  0  0  0  0
   -0.5118    3.1863    2.7135 C   0  0  0  0  0  0  0  0  0  0  0  0
   -1.4470    3.3159    3.2625 H   0  0  0  0  0  0  0  0  0  0  0  0
    0.3243    3.3682    3.3896 H   0  0  0  0  0  0  0  0  0  0  0  0
   -0.4850    3.9172    1.9023 H   0  0  0  0  0  0  0  0  0  0  0  0
  5  6  2  0  0  0  0
  5  7  1  0  0  0  0
  2  3  1  0  0  0  0
  2  4  1  0  0  0  0
  2  5  1  0  0  0  0
  1  2  1  0  0  0  0
 27 28  2  0  0  0  0
 27 29  1  0  0  0  0
 23 24  1  0  0  0  0
 23 25  1  0  0  0  0
 23 26  1  0  0  0  0
 20 21  1  0  0  0  0
 20 22  1  0  0  0  0
 20 23  1  0  0  0  0
 17 18  1  0  0  0  0
 17 19  1  0  0  0  0
 17 20  1  0  0  0  0
 14 15  1  0  0  0  0
 14 16  1  0  0  0  0
 14 17  1  0  0  0  0
 11 12  1  0  0  0  0
 11 13  1  0  0  0  0
 11 14  1  0  0  0  0
  9 10  1  0  0  0  0
  9 11  1  0  0  0  0
  9 27  1  0  0  0  0
  7  8  1  0  0  0  0
  7  9  1  0  0  0  0
 31 32  1  0  0  0  0
 31 33  1  0  0  0  0
 31 34  1  0  0  0  0
 29 30  1  0  0  0  0
 29 31  1  0  0  0  0
M  CHG  1  23   1
M  END
$$$$
default_name
  -OEChem-02102213163D

 34 33  0     1  0  0  0  0  0999 V2000
   -3.8899   -3.6747    1.6490 H   0  0  0  0  0  0  0  0  0  0  0  0
   -3.9109   -2.6717    1.2250 C   0  0  0  0  0  0  0  0  0  0  0  0
   -4.6009   -2.0517    1.7950 H   0  0  0  0  0  0  0  0  0  0  0  0
   -4.2309   -2.7237    0.1860 H   0  0  0  0  0  0  0  0  0  0  0  0
   -2.5229   -2.0787    1.2980 C   0  0  0  0  0  0  0  0  0  0  0  0
   -1.5999   -2.7227    1.7810 O   0  0  0  0  0  0  0  0  0  0  0  0
   -2.3659   -0.8447    0.8120 N   0  0  0  0  0  0  0  0  0  0  0  0
   -3.1749   -0.3807    0.4220 H   0  0  0  0  0  0  0  0  0  0  0  0
   -1.0919   -0.1077    0.8170 C   0  0  1  0  0  0  0  0  0  0  0  0
   -0.4136   -0.6011    1.5155 H   0  0  0  0  0  0  0  0  0  0  0  0
   -0.4834   -0.1723   -0.5965 C   0  0  0  0  0  0  0  0  0  0  0  0
    0.4888   -0.6639   -0.5342 H   0  0  0  0  0  0  0  0  0  0  0  0
   -1.1290   -0.7755   -1.2378 H   0  0  0  0  0  0  0  0  0  0  0  0
   -0.2851    1.2108   -1.2354 C   0  0  0  0  0  0  0  0  0  0  0  0
   -1.2461    1.7213   -1.3117 H   0  0  0  0  0  0  0  0  0  0  0  0
    0.3846    1.8033   -0.6091 H   0  0  0  0  0  0  0  0  0  0  0  0
    0.3229    1.0697   -2.6377 C   0  0  0  0  0  0  0  0  0  0  0  0
    1.2780    0.5447   -2.5595 H   0  0  0  0  0  0  0  0  0  0  0  0
   -0.3548    0.4844   -3.2624 H   0  0  0  0  0  0  0  0  0  0  0  0
    0.5444    2.4508   -3.2669 C   0  0  0  0  0  0  0  0  0  0  0  0
   -0.4214    2.9627   -3.3292 H   0  0  0  0  0  0  0  0  0  0  0  0
    1.1911    3.0347   -2.6050 H   0  0  0  0  0  0  0  0  0  0  0  0
    1.1546    2.3444   -4.6163 N   0  3  0  0  0  0  0  0  0  0  0  0
    0.5556    1.8139   -5.2364 H   0  0  0  0  0  0  0  0  0  0  0  0
    1.2944    3.2635   -5.0172 H   0  0  0  0  0  0  0  0  0  0  0  0
    2.0532    1.8790   -4.5628 H   0  0  0  0  0  0  0  0  0  0  0  0
   -1.3103    1.3348    1.2791 C   0  0  0  0  0  0  0  0  0  0  0  0
   -2.2333    1.9891    0.8084 O   0  0  0  0  0  0  0  0  0  0  0  0
   -0.4429    1.8293    2.1683 N   0  0  0  0  0  0  0  0  0  0  0  0
    0.2668    1.2118    2.5263 H   0  0  0  0  0  0  0  0  0  0  0  0
   -0.5118    3.1863    2.7135 C   0  0  0  0  0  0  0  0  0  0  0  0
   -1.4470    3.3159    3.2625 H   0  0  0  0  0  0  0  0  0  0  0  0
    0.3243    3.3682    3.3896 H   0  0  0  0  0  0  0  0  0  0  0  0
   -0.4850    3.9172    1.9023 H   0  0  0  0  0  0  0  0  0  0  0  0
  5  6  2  0  0  0  0
  5  7  1  0  0  0  0
  2  3  1  0  0  0  0
  2  4  1  0  0  0  0
  2  5  1  0  0  0  0
  1  2  1  0  0  0  0
 27 28  2  0  0  0  0
 27 29  1  0  0  0  0
 23 24  1  0  0  0  0
 23 25  1  0  0  0  0
 23 26  1  0  0  0  0
 20 21  1  0  0  0  0
 20 22  1  0  0  0  0
 20 23  1  0  0  0  0
 17 18  1  0  0  0  0
 17 19  1  0  0  0  0
 17 20  1  0  0  0  0
 14 15  1  0  0  0  0
 14 16  1  0  0  0  0
 14 17  1  0  0  0  0
 11 12  1  0  0  0  0
 11 13  1  0  0  0  0
 11 14  1  0  0  0  0
  9 10  1  0  0  0  0
  9 11  1  0  0  0  0
  9 27  1  0  0  0  0
  7  8  1  0  0  0  0
  7  9  1  0  0  0  0
 31 32  1  0  0  0  0
 31 33  1  0  0  0  0
 31 34  1  0  0  0  0
 29 30  1  0  0  0  0
 29 31  1  0  0  0  0
M  CHG  1  23   1
M  END
$$$$
default_name
  -OEChem-02102213163D

 34 33  0     1  0  0  0  0  0999 V2000
   -3.8899   -3.6747    1.6490 H   0  0  0  0  0  0  0  0  0  0  0  0
   -3.9109   -2.6717    1.2250 C   0  0  0  0  0  0  0  0  0  0  0  0
   -4.6009   -2.0517    1.7950 H   0  0  0  0  0  0  0  0  0  0  0  0
   -4.2309   -2.7237    0.1860 H   0  0  0  0  0  0  0  0  0  0  0  0
   -2.5229   -2.0787    1.2980 C   0  0  0  0  0  0  0  0  0  0  0  0
   -1.5999   -2.7227    1.7810 O   0  0  0  0  0  0  0  0  0  0  0  0
   -2.3659   -0.8447    0.8120 N   0  0  0  0  0  0  0  0  0  0  0  0
   -3.1749   -0.3807    0.4220 H   0  0  0  0  0  0  0  0  0  0  0  0
   -1.0919   -0.1077    0.8170 C   0  0  1  0  0  0  0  0  0  0  0  0
   -0.4136   -0.6011    1.5155 H   0  0  0  0  0  0  0  0  0  0  0  0
   -0.4834   -0.1723   -0.5965 C   0  0  0  0  0  0  0  0  0  0  0  0
    0.4888   -0.6639   -0.5342 H   0  0  0  0  0  0  0  0  0  0  0  0
   -1.1290   -0.7755   -1.2378 H   0  0  0  0  0  0  0  0  0  0  0  0
   -0.2851    1.2108   -1.2354 C   0  0  0  0  0  0  0  0  0  0  0  0
   -1.1745    1.8212   -1.0734 H   0  0  0  0  0  0  0  0  0  0  0  0
    0.5731    1.7012   -0.7718 H   0  0  0  0  0  0  0  0  0  0  0  0
   -0.0374    1.0723   -2.7438 C   0  0  0  0  0  0  0  0  0  0  0  0
    0.8452    0.4481   -2.9030 H   0  0  0  0  0  0  0  0  0  0  0  0
   -0.9021    0.5899   -3.2039 H   0  0  0  0  0  0  0  0  0  0  0  0
    0.1853    2.4506   -3.3788 C   0  0  0  0  0  0  0  0  0  0  0  0
   -0.7054    3.0622   -3.2020 H   0  0  0  0  0  0  0  0  0  0  0  0
    1.0285    2.9331   -2.8754 H   0  0  0  0  0  0  0  0  0  0  0  0
    0.4513    2.3439   -4.8357 N   0  3  0  0  0  0  0  0  0  0  0  0
   -0.3302    1.9075   -5.3087 H   0  0  0  0  0  0  0  0  0  0  0  0
    0.5963    3.2610   -5.2392 H   0  0  0  0  0  0  0  0  0  0  0  0
    1.2801    1.7858   -5.0044 H   0  0  0  0  0  0  0  0  0  0  0  0
   -1.3103    1.3348    1.2791 C   0  0  0  0  0  0  0  0  0  0  0  0
   -2.2333    1.9891    0.8084 O   0  0  0  0  0  0  0  0  0  0  0  0
   -0.4429    1.8293    2.1683 N   0  0  0  0  0  0  0  0  0  0  0  0
    0.2668    1.2118    2.5263 H   0  0  0  0  0  0  0  0  0  0  0  0
   -0.5118    3.1863    2.7135 C   0  0  0  0  0  0  0  0  0  0  0  0
   -1.4470    3.3159    3.2625 H   0  0  0  0  0  0  0  0  0  0  0  0
    0.3243    3.3682    3.3896 H   0  0  0  0  0  0  0  0  0  0  0  0
   -0.4850    3.9172    1.9023 H   0  0  0  0  0  0  0  0  0  0  0  0
  5  6  2  0  0  0  0
  5  7  1  0  0  0  0
  2  3  1  0  0  0  0
  2  4  1  0  0  0  0
  2  5  1  0  0  0  0
  1  2  1  0  0  0  0
 27 28  2  0  0  0  0
 27 29  1  0  0  0  0
 23 24  1  0  0  0  0
 23 25  1  0  0  0  0
 23 26  1  0  0  0  0
 20 21  1  0  0  0  0
 20 22  1  0  0  0  0
 20 23  1  0  0  0  0
 17 18  1  0  0  0  0
 17 19  1  0  0  0  0
 17 20  1  0  0  0  0
 14 15  1  0  0  0  0
 14 16  1  0  0  0  0
 14 17  1  0  0  0  0
 11 12  1  0  0  0  0
 11 13  1  0  0  0  0
 11 14  1  0  0  0  0
  9 10  1  0  0  0  0
  9 11  1  0  0  0  0
  9 27  1  0  0  0  0
  7  8  1  0  0  0  0
  7  9  1  0  0  0  0
 31 32  1  0  0  0  0
 31 33  1  0  0  0  0
 31 34  1  0  0  0  0
 29 30  1  0  0  0  0
 29 31  1  0  0  0  0
M  CHG  1  23   1
M  END
$$$$
default_name
  -OEChem-02102213163D

 34 33  0     1  0  0  0  0  0999 V2000
   -3.8899   -3.6747    1.6490 H   0  0  0  0  0  0  0  0  0  0  0  0
   -3.9109   -2.6717    1.2250 C   0  0  0  0  0  0  0  0  0  0  0  0
   -4.6009   -2.0517    1.7950 H   0  0  0  0  0  0  0  0  0  0  0  0
   -4.2309   -2.7237    0.1860 H   0  0  0  0  0  0  0  0  0  0  0  0
   -2.5229   -2.0787    1.2980 C   0  0  0  0  0  0  0  0  0  0  0  0
   -1.5999   -2.7227    1.7810 O   0  0  0  0  0  0  0  0  0  0  0  0
   -2.3659   -0.8447    0.8120 N   0  0  0  0  0  0  0  0  0  0  0  0
   -3.1749   -0.3807    0.4220 H   0  0  0  0  0  0  0  0  0  0  0  0
   -1.0919   -0.1077    0.8170 C   0  0  1  0  0  0  0  0  0  0  0  0
   -0.4136   -0.6011    1.5155 H   0  0  0  0  0  0  0  0  0  0  0  0
   -0.4834   -0.1723   -0.5965 C   0  0  0  0  0  0  0  0  0  0  0  0
    0.4888   -0.6639   -0.5342 H   0  0  0  0  0  0  0  0  0  0  0  0
   -1.1290   -0.7755   -1.2378 H   0  0  0  0  0  0  0  0  0  0  0  0
   -0.2851    1.2108   -1.2354 C   0  0  0  0  0  0  0  0  0  0  0  0
   -1.0392    1.9020   -0.8565 H   0  0  0  0  0  0  0  0  0  0  0  0
    0.7062    1.5876   -0.9762 H   0  0  0  0  0  0  0  0  0  0  0  0
   -0.4099    1.1171   -2.7623 C   0  0  0  0  0  0  0  0  0  0  0  0
    0.3367    0.4128   -3.1372 H   0  0  0  0  0  0  0  0  0  0  0  0
   -1.4058    0.7487   -3.0163 H   0  0  0  0  0  0  0  0  0  0  0  0
   -0.1876    2.4927   -3.4033 C   0  0  0  0  0  0  0  0  0  0  0  0
   -0.9394    3.1846   -3.0097 H   0  0  0  0  0  0  0  0  0  0  0  0
    0.7976    2.8615   -3.1021 H   0  0  0  0  0  0  0  0  0  0  0  0
   -0.2792    2.4264   -4.8838 N   0  3  0  0  0  0  0  0  0  0  0  0
   -1.1925    2.0957   -5.1689 H   0  0  0  0  0  0  0  0  0  0  0  0
   -0.1300    3.3412   -5.2910 H   0  0  0  0  0  0  0  0  0  0  0  0
    0.4206    1.7938   -5.2538 H   0  0  0  0  0  0  0  0  0  0  0  0
   -1.3103    1.3348    1.2791 C   0  0  0  0  0  0  0  0  0  0  0  0
   -2.2333    1.9891    0.8084 O   0  0  0  0  0  0  0  0  0  0  0  0
   -0.4429    1.8293    2.1683 N   0  0  0  0  0  0  0  0  0  0  0  0
    0.2668    1.2118    2.5263 H   0  0  0  0  0  0  0  0  0  0  0  0
   -0.5118    3.1863    2.7135 C   0  0  0  0  0  0  0  0  0  0  0  0
   -1.4470    3.3159    3.2625 H   0  0  0  0  0  0  0  0  0  0  0  0
    0.3243    3.3682    3.3896 H   0  0  0  0  0  0  0  0  0  0  0  0
   -0.4850    3.9172    1.9023 H   0  0  0  0  0  0  0  0  0  0  0  0
  5  6  2  0  0  0  0
  5  7  1  0  0  0  0
  2  3  1  0  0  0  0
  2  4  1  0  0  0  0
  2  5  1  0  0  0  0
  1  2  1  0  0  0  0
 27 28  2  0  0  0  0
 27 29  1  0  0  0  0
 23 24  1  0  0  0  0
 23 25  1  0  0  0  0
 23 26  1  0  0  0  0
 20 21  1  0  0  0  0
 20 22  1  0  0  0  0
 20 23  1  0  0  0  0
 17 18  1  0  0  0  0
 17 19  1  0  0  0  0
 17 20  1  0  0  0  0
 14 15  1  0  0  0  0
 14 16  1  0  0  0  0
 14 17  1  0  0  0  0
 11 12  1  0  0  0  0
 11 13  1  0  0  0  0
 11 14  1  0  0  0  0
  9 10  1  0  0  0  0
  9 11  1  0  0  0  0
  9 27  1  0  0  0  0
  7  8  1  0  0  0  0
  7  9  1  0  0  0  0
 31 32  1  0  0  0  0
 31 33  1  0  0  0  0
 31 34  1  0  0  0  0
 29 30  1  0  0  0  0
 29 31  1  0  0  0  0
M  CHG  1  23   1
M  END
$$$$
default_name
  -OEChem-02102213163D

 34 33  0     1  0  0  0  0  0999 V2000
   -3.8899   -3.6747    1.6490 H   0  0  0  0  0  0  0  0  0  0  0  0
   -3.9109   -2.6717    1.2250 C   0  0  0  0  0  0  0  0  0  0  0  0
   -4.6009   -2.0517    1.7950 H   0  0  0  0  0  0  0  0  0  0  0  0
   -4.2309   -2.7237    0.1860 H   0  0  0  0  0  0  0  0  0  0  0  0
   -2.5229   -2.0787    1.2980 C   0  0  0  0  0  0  0  0  0  0  0  0
   -1.5999   -2.7227    1.7810 O   0  0  0  0  0  0  0  0  0  0  0  0
   -2.3659   -0.8447    0.8120 N   0  0  0  0  0  0  0  0  0  0  0  0
   -3.1749   -0.3807    0.4220 H   0  0  0  0  0  0  0  0  0  0  0  0
   -1.0919   -0.1077    0.8170 C   0  0  1  0  0  0  0  0  0  0  0  0
   -0.4136   -0.6011    1.5155 H   0  0  0  0  0  0  0  0  0  0  0  0
   -0.4834   -0.1723   -0.5965 C   0  0  0  0  0  0  0  0  0  0  0  0
    0.4888   -0.6639   -0.5342 H   0  0  0  0  0  0  0  0  0  0  0  0
   -1.1290   -0.7755   -1.2378 H   0  0  0  0  0  0  0  0  0  0  0  0
   -0.2851    1.2108   -1.2354 C   0  0  0  0  0  0  0  0  0  0  0  0
   -0.8492    1.9582   -0.6758 H   0  0  0  0  0  0  0  0  0  0  0  0
    0.7749    1.4705   -1.2086 H   0  0  0  0  0  0  0  0  0  0  0  0
   -0.7692    1.2011   -2.6919 C   0  0  0  0  0  0  0  0  0  0  0  0
   -0.2128    0.4413   -3.2460 H   0  0  0  0  0  0  0  0  0  0  0  0
   -1.8315    0.9500   -2.7125 H   0  0  0  0  0  0  0  0  0  0  0  0
   -0.5490    2.5744   -3.3387 C   0  0  0  0  0  0  0  0  0  0  0  0
   -1.1074    3.3215   -2.7653 H   0  0  0  0  0  0  0  0  0  0  0  0
    0.5139    2.8247   -3.2697 H   0  0  0  0  0  0  0  0  0  0  0  0
   -0.9872    2.5863   -4.7572 N   0  3  0  0  0  0  0  0  0  0  0  0
   -1.9727    2.3656   -4.8267 H   0  0  0  0  0  0  0  0  0  0  0  0
   -0.8351    3.4985   -5.1691 H   0  0  0  0  0  0  0  0  0  0  0  0
   -0.4670    1.9023   -5.2943 H   0  0  0  0  0  0  0  0  0  0  0  0
   -1.3103    1.3348    1.2791 C   0  0  0  0  0  0  0  0  0  0  0  0
   -2.2333    1.9891    0.8084 O   0  0  0  0  0  0  0  0  0  0  0  0
   -0.4429    1.8293    2.1683 N   0  0  0  0  0  0  0  0  0  0  0  0
    0.2668    1.2118    2.5263 H   0  0  0  0  0  0  0  0  0  0  0  0
   -0.5118    3.1863    2.7135 C   0  0  0  0  0  0  0  0  0  0  0  0
   -1.4470    3.3159    3.2625 H   0  0  0  0  0  0  0  0  0  0  0  0
    0.3243    3.3682    3.3896 H   0  0  0  0  0  0  0  0  0  0  0  0
   -0.4850    3.9172    1.9023 H   0  0  0  0  0  0  0  0  0  0  0  0
  5  6  2  0  0  0  0
  5  7  1  0  0  0  0
  2  3  1  0  0  0  0
  2  4  1  0  0  0  0
  2  5  1  0  0  0  0
  1  2  1  0  0  0  0
 27 28  2  0  0  0  0
 27 29  1  0  0  0  0
 23 24  1  0  0  0  0
 23 25  1  0  0  0  0
 23 26  1  0  0  0  0
 20 21  1  0  0  0  0
 20 22  1  0  0  0  0
 20 23  1  0  0  0  0
 17 18  1  0  0  0  0
 17 19  1  0  0  0  0
 17 20  1  0  0  0  0
 14 15  1  0  0  0  0
 14 16  1  0  0  0  0
 14 17  1  0  0  0  0
 11 12  1  0  0  0  0
 11 13  1  0  0  0  0
 11 14  1  0  0  0  0
  9 10  1  0  0  0  0
  9 11  1  0  0  0  0
  9 27  1  0  0  0  0
  7  8  1  0  0  0  0
  7  9  1  0  0  0  0
 31 32  1  0  0  0  0
 31 33  1  0  0  0  0
 31 34  1  0  0  0  0
 29 30  1  0  0  0  0
 29 31  1  0  0  0  0
M  CHG  1  23   1
M  END
$$$$
default_name
  -OEChem-02102213163D

 34 33  0     1  0  0  0  0  0999 V2000
   -3.8899   -3.6747    1.6490 H   0  0  0  0  0  0  0  0  0  0  0  0
   -3.9109   -2.6717    1.2250 C   0  0  0  0  0  0  0  0  0  0  0  0
   -4.6009   -2.0517    1.7950 H   0  0  0  0  0  0  0  0  0  0  0  0
   -4.2309   -2.7237    0.1860 H   0  0  0  0  0  0  0  0  0  0  0  0
   -2.5229   -2.0787    1.2980 C   0  0  0  0  0  0  0  0  0  0  0  0
   -1.5999   -2.7227    1.7810 O   0  0  0  0  0  0  0  0  0  0  0  0
   -2.3659   -0.8447    0.8120 N   0  0  0  0  0  0  0  0  0  0  0  0
   -3.1749   -0.3807    0.4220 H   0  0  0  0  0  0  0  0  0  0  0  0
   -1.0919   -0.1077    0.8170 C   0  0  1  0  0  0  0  0  0  0  0  0
   -0.4136   -0.6011    1.5155 H   0  0  0  0  0  0  0  0  0  0  0  0
   -0.4834   -0.1723   -0.5965 C   0  0  0  0  0  0  0  0  0  0  0  0
    0.4888   -0.6639   -0.5342 H   0  0  0  0  0  0  0  0  0  0  0  0
   -1.1290   -0.7755   -1.2378 H   0  0  0  0  0  0  0  0  0  0  0  0
   -0.2851    1.2108   -1.2354 C   0  0  0  0  0  0  0  0  0  0  0  0
   -0.6176    1.9860   -0.5437 H   0  0  0  0  0  0  0  0  0  0  0  0
    0.7746    1.3577   -1.4529 H   0  0  0  0  0  0  0  0  0  0  0  0
   -1.0907    1.3186   -2.5374 C   0  0  0  0  0  0  0  0  0  0  0  0
   -0.7659    0.5316   -3.2222 H   0  0  0  0  0  0  0  0  0  0  0  0
   -2.1503    1.1802   -2.3131 H   0  0  0  0  0  0  0  0  0  0  0  0
   -0.8742    2.6900   -3.1893 C   0  0  0  0  0  0  0  0  0  0  0  0
   -1.1980    3.4637   -2.4855 H   0  0  0  0  0  0  0  0  0  0  0  0
    0.1970    2.8254   -3.3667 H   0  0  0  0  0  0  0  0  0  0  0  0
   -1.6243    2.8127   -4.4647 N   0  3  0  0  0  0  0  0  0  0  0  0
   -2.6175    2.6988   -4.3054 H   0  0  0  0  0  0  0  0  0  0  0  0
   -1.4707    3.7223   -4.8819 H   0  0  0  0  0  0  0  0  0  0  0  0
   -1.3220    2.1040   -5.1229 H   0  0  0  0  0  0  0  0  0  0  0  0
   -1.3103    1.3348    1.2791 C   0  0  0  0  0  0  0  0  0  0  0  0
   -2.2333    1.9891    0.8084 O   0  0  0  0  0  0  0  0  0  0  0  0
   -0.4429    1.8293    2.1683 N   0  0  0  0  0  0  0  0  0  0  0  0
    0.2668    1.2118    2.5263 H   0  0  0  0  0  0  0  0  0  0  0  0
   -0.5118    3.1863    2.7135 C   0  0  0  0  0  0  0  0  0  0  0  0
   -1.4470    3.3159    3.2625 H   0  0  0  0  0  0  0  0  0  0  0  0
    0.3243    3.3682    3.3896 H   0  0  0  0  0  0  0  0  0  0  0  0
   -0.4850    3.9172    1.9023 H   0  0  0  0  0  0  0  0  0  0  0  0
  5  6  2  0  0  0  0
  5  7  1  0  0  0  0
  2  3  1  0  0  0  0
  2  4  1  0  0  0  0
  2  5  1  0  0  0  0
  1  2  1  0  0  0  0
 27 28  2  0  0  0  0
 27 29  1  0  0  0  0
 23 24  1  0  0  0  0
 23 25  1  0  0  0  0
 23 26  1  0  0  0  0
 20 21  1  0  0  0  0
 20 22  1  0  0  0  0
 20 23  1  0  0  0  0
 17 18  1  0  0  0  0
 17 19  1  0  0  0  0
 17 20  1  0  0  0  0
 14 15  1  0  0  0  0
 14 16  1  0  0  0  0
 14 17  1  0  0  0  0
 11 12  1  0  0  0  0
 11 13  1  0  0  0  0
 11 14  1  0  0  0  0
  9 10  1  0  0  0  0
  9 11  1  0  0  0  0
  9 27  1  0  0  0  0
  7  8  1  0  0  0  0
  7  9  1  0  0  0  0
 31 32  1  0  0  0  0
 31 33  1  0  0  0  0
 31 34  1  0  0  0  0
 29 30  1  0  0  0  0
 29 31  1  0  0  0  0
M  CHG  1  23   1
M  END
$$$$
default_name
  -OEChem-02102213163D

 34 33  0     1  0  0  0  0  0999 V2000
   -3.8899   -3.6747    1.6490 H   0  0  0  0  0  0  0  0  0  0  0  0
   -3.9109   -2.6717    1.2250 C   0  0  0  0  0  0  0  0  0  0  0  0
   -4.6009   -2.0517    1.7950 H   0  0  0  0  0  0  0  0  0  0  0  0
   -4.2309   -2.7237    0.1860 H   0  0  0  0  0  0  0  0  0  0  0  0
   -2.5229   -2.0787    1.2980 C   0  0  0  0  0  0  0  0  0  0  0  0
   -1.5999   -2.7227    1.7810 O   0  0  0  0  0  0  0  0  0  0  0  0
   -2.3659   -0.8447    0.8120 N   0  0  0  0  0  0  0  0  0  0  0  0
   -3.1749   -0.3807    0.4220 H   0  0  0  0  0  0  0  0  0  0  0  0
   -1.0919   -0.1077    0.8170 C   0  0  1  0  0  0  0  0  0  0  0  0
   -0.4136   -0.6011    1.5155 H   0  0  0  0  0  0  0  0  0  0  0  0
   -0.4834   -0.1723   -0.5965 C   0  0  0  0  0  0  0  0  0  0  0  0
    0.4888   -0.6639   -0.5342 H   0  0  0  0  0  0  0  0  0  0  0  0
   -1.1290   -0.7755   -1.2378 H   0  0  0  0  0  0  0  0  0  0  0  0
   -0.2851    1.2108   -1.2354 C   0  0  0  0  0  0  0  0  0  0  0  0
   -0.3600    1.9835   -0.4691 H   0  0  0  0  0  0  0  0  0  0  0  0
    0.7052    1.2569   -1.6926 H   0  0  0  0  0  0  0  0  0  0  0  0
   -1.3527    1.4615   -2.3093 C   0  0  0  0  0  0  0  0  0  0  0  0
   -1.2849    0.6775   -3.0673 H   0  0  0  0  0  0  0  0  0  0  0  0
   -2.3403    1.4235   -1.8454 H   0  0  0  0  0  0  0  0  0  0  0  0
   -1.1411    2.8317   -2.9653 C   0  0  0  0  0  0  0  0  0  0  0  0
   -1.2050    3.6015   -2.1894 H   0  0  0  0  0  0  0  0  0  0  0  0
   -0.1317    2.8633   -3.3865 H   0  0  0  0  0  0  0  0  0  0  0  0
   -2.1472    3.0902   -4.0262 N   0  3  0  0  0  0  0  0  0  0  0  0
   -3.0830    3.0727   -3.6404 H   0  0  0  0  0  0  0  0  0  0  0  0
   -1.9937    3.9973   -4.4489 H   0  0  0  0  0  0  0  0  0  0  0  0
   -2.0863    2.3852   -4.7514 H   0  0  0  0  0  0  0  0  0  0  0  0
   -1.3103    1.3348    1.2791 C   0  0  0  0  0  0  0  0  0  0  0  0
   -2.2333    1.9891    0.8084 O   0  0  0  0  0  0  0  0  0  0  0  0
   -0.4429    1.8293    2.1683 N   0  0  0  0  0  0  0  0  0  0  0  0
    0.2668    1.2118    2.5263 H   0  0  0  0  0  0  0  0  0  0  0  0
   -0.5118    3.1863    2.7135 C   0  0  0  0  0  0  0  0  0  0  0  0
   -1.4470    3.3159    3.2625 H   0  0  0  0  0  0  0  0  0  0  0  0
    0.3243    3.3682    3.3896 H   0  0  0  0  0  0  0  0  0  0  0  0
   -0.4850    3.9172    1.9023 H   0  0  0  0  0  0  0  0  0  0  0  0
  5  6  2  0  0  0  0
  5  7  1  0  0  0  0
  2  3  1  0  0  0  0
  2  4  1  0  0  0  0
  2  5  1  0  0  0  0
  1  2  1  0  0  0  0
 27 28  2  0  0  0  0
 27 29  1  0  0  0  0
 23 24  1  0  0  0  0
 23 25  1  0  0  0  0
 23 26  1  0  0  0  0
 20 21  1  0  0  0  0
 20 22  1  0  0  0  0
 20 23  1  0  0  0  0
 17 18  1  0  0  0  0
 17 19  1  0  0  0  0
 17 20  1  0  0  0  0
 14 15  1  0  0  0  0
 14 16  1  0  0  0  0
 14 17  1  0  0  0  0
 11 12  1  0  0  0  0
 11 13  1  0  0  0  0
 11 14  1  0  0  0  0
  9 10  1  0  0  0  0
  9 11  1  0  0  0  0
  9 27  1  0  0  0  0
  7  8  1  0  0  0  0
  7  9  1  0  0  0  0
 31 32  1  0  0  0  0
 31 33  1  0  0  0  0
 31 34  1  0  0  0  0
 29 30  1  0  0  0  0
 29 31  1  0  0  0  0
M  CHG  1  23   1
M  END
$$$$
default_name
  -OEChem-02102213163D

 34 33  0     1  0  0  0  0  0999 V2000
   -3.8899   -3.6747    1.6490 H   0  0  0  0  0  0  0  0  0  0  0  0
   -3.9109   -2.6717    1.2250 C   0  0  0  0  0  0  0  0  0  0  0  0
   -4.6009   -2.0517    1.7950 H   0  0  0  0  0  0  0  0  0  0  0  0
   -4.2309   -2.7237    0.1860 H   0  0  0  0  0  0  0  0  0  0  0  0
   -2.5229   -2.0787    1.2980 C   0  0  0  0  0  0  0  0  0  0  0  0
   -1.5999   -2.7227    1.7810 O   0  0  0  0  0  0  0  0  0  0  0  0
   -2.3659   -0.8447    0.8120 N   0  0  0  0  0  0  0  0  0  0  0  0
   -3.1749   -0.3807    0.4220 H   0  0  0  0  0  0  0  0  0  0  0  0
   -1.0919   -0.1077    0.8170 C   0  0  1  0  0  0  0  0  0  0  0  0
   -0.4136   -0.6011    1.5155 H   0  0  0  0  0  0  0  0  0  0  0  0
   -0.4834   -0.1723   -0.5965 C   0  0  0  0  0  0  0  0  0  0  0  0
    0.4888   -0.6639   -0.5342 H   0  0  0  0  0  0  0  0  0  0  0  0
   -1.1290   -0.7755   -1.2378 H   0  0  0  0  0  0  0  0  0  0  0  0
   -0.2851    1.2108   -1.2354 C   0  0  0  0  0  0  0  0  0  0  0  0
   -0.0941    1.9510   -0.4572 H   0  0  0  0  0  0  0  0  0  0  0  0
    0.5715    1.1750   -1.9113 H   0  0  0  0  0  0  0  0  0  0  0  0
   -1.5372    1.6201   -2.0232 C   0  0  0  0  0  0  0  0  0  0  0  0
   -1.7344    0.8691   -2.7919 H   0  0  0  0  0  0  0  0  0  0  0  0
   -2.3888    1.6633   -1.3412 H   0  0  0  0  0  0  0  0  0  0  0  0
   -1.3315    2.9898   -2.6821 C   0  0  0  0  0  0  0  0  0  0  0  0
   -1.1280    3.7255   -1.8972 H   0  0  0  0  0  0  0  0  0  0  0  0
   -0.4497    2.9360   -3.3278 H   0  0  0  0  0  0  0  0  0  0  0  0
   -2.5203    3.3999   -3.4714 N   0  3  0  0  0  0  0  0  0  0  0  0
   -3.3375    3.4617   -2.8772 H   0  0  0  0  0  0  0  0  0  0  0  0
   -2.3684    4.3047   -3.8996 H   0  0  0  0  0  0  0  0  0  0  0  0
   -2.7077    2.7266   -4.2051 H   0  0  0  0  0  0  0  0  0  0  0  0
   -1.3103    1.3348    1.2791 C   0  0  0  0  0  0  0  0  0  0  0  0
   -2.2333    1.9891    0.8084 O   0  0  0  0  0  0  0  0  0  0  0  0
   -0.4429    1.8293    2.1683 N   0  0  0  0  0  0  0  0  0  0  0  0
    0.2668    1.2118    2.5263 H   0  0  0  0  0  0  0  0  0  0  0  0
   -0.5118    3.1863    2.7135 C   0  0  0  0  0  0  0  0  0  0  0  0
   -1.4470    3.3159    3.2625 H   0  0  0  0  0  0  0  0  0  0  0  0
    0.3243    3.3682    3.3896 H   0  0  0  0  0  0  0  0  0  0  0  0
   -0.4850    3.9172    1.9023 H   0  0  0  0  0  0  0  0  0  0  0  0
  5  6  2  0  0  0  0
  5  7  1  0  0  0  0
  2  3  1  0  0  0  0
  2  4  1  0  0  0  0
  2  5  1  0  0  0  0
  1  2  1  0  0  0  0
 27 28  2  0  0  0  0
 27 29  1  0  0  0  0
 23 24  1  0  0  0  0
 23 25  1  0  0  0  0
 23 26  1  0  0  0  0
 20 21  1  0  0  0  0
 20 22  1  0  0  0  0
 20 23  1  0  0  0  0
 17 18  1  0  0  0  0
 17 19  1  0  0  0  0
 17 20  1  0  0  0  0
 14 15  1  0  0  0  0
 14 16  1  0  0  0  0
 14 17  1  0  0  0  0
 11 12  1  0  0  0  0
 11 13  1  0  0  0  0
 11 14  1  0  0  0  0
  9 10  1  0  0  0  0
  9 11  1  0  0  0  0
  9 27  1  0  0  0  0
  7  8  1  0  0  0  0
  7  9  1  0  0  0  0
 31 32  1  0  0  0  0
 31 33  1  0  0  0  0
 31 34  1  0  0  0  0
 29 30  1  0  0  0  0
 29 31  1  0  0  0  0
M  CHG  1  23   1
M  END
$$$$
default_name
  -OEChem-02102213163D

 34 33  0     1  0  0  0  0  0999 V2000
   -3.8899   -3.6747    1.6490 H   0  0  0  0  0  0  0  0  0  0  0  0
   -3.9109   -2.6717    1.2250 C   0  0  0  0  0  0  0  0  0  0  0  0
   -4.6009   -2.0517    1.7950 H   0  0  0  0  0  0  0  0  0  0  0  0
   -4.2309   -2.7237    0.1860 H   0  0  0  0  0  0  0  0  0  0  0  0
   -2.5229   -2.0787    1.2980 C   0  0  0  0  0  0  0  0  0  0  0  0
   -1.5999   -2.7227    1.7810 O   0  0  0  0  0  0  0  0  0  0  0  0
   -2.3659   -0.8447    0.8120 N   0  0  0  0  0  0  0  0  0  0  0  0
   -3.1749   -0.3807    0.4220 H   0  0  0  0  0  0  0  0  0  0  0  0
   -1.0919   -0.1077    0.8170 C   0  0  1  0  0  0  0  0  0  0  0  0
   -0.4136   -0.6011    1.5155 H   0  0  0  0  0  0  0  0  0  0  0  0
   -0.4834   -0.1723   -0.5965 C   0  0  0  0  0  0  0  0  0  0  0  0
    0.4888   -0.6639   -0.5342 H   0  0  0  0  0  0  0  0  0  0  0  0
   -1.1290   -0.7755   -1.2378 H   0  0  0  0  0  0  0  0  0  0  0  0
   -0.2851    1.2108   -1.2354 C   0  0  0  0  0  0  0  0  0  0  0  0
    0.1619    1.8905   -0.5087 H   0  0  0  0  0  0  0  0  0  0  0  0
    0.3825    1.1177   -2.0941 H   0  0  0  0  0  0  0  0  0  0  0  0
   -1.6317    1.7836   -1.6985 C   0  0  0  0  0  0  0  0  0  0  0  0
   -2.0838    1.0934   -2.4148 H   0  0  0  0  0  0  0  0  0  0  0  0
   -2.2922    1.8834   -0.8348 H   0  0  0  0  0  0  0  0  0  0  0  0
   -1.4324    3.1535   -2.3589 C   0  0  0  0  0  0  0  0  0  0  0  0
   -0.9721    3.8271   -1.6287 H   0  0  0  0  0  0  0  0  0  0  0  0
   -0.7354    3.0385   -3.1946 H   0  0  0  0  0  0  0  0  0  0  0  0
   -2.7180    3.7207   -2.8384 N   0  3  0  0  0  0  0  0  0  0  0  0
   -3.3636    3.8394   -2.0677 H   0  0  0  0  0  0  0  0  0  0  0  0
   -2.5693    4.6236   -3.2714 H   0  0  0  0  0  0  0  0  0  0  0  0
   -3.1439    3.1050   -3.5213 H   0  0  0  0  0  0  0  0  0  0  0  0
   -1.3103    1.3348    1.2791 C   0  0  0  0  0  0  0  0  0  0  0  0
   -2.2333    1.9891    0.8084 O   0  0  0  0  0  0  0  0  0  0  0  0
   -0.4429    1.8293    2.1683 N   0  0  0  0  0  0  0  0  0  0  0  0
    0.2668    1.2118    2.5263 H   0  0  0  0  0  0  0  0  0  0  0  0
   -0.5118    3.1863    2.7135 C   0  0  0  0  0  0  0  0  0  0  0  0
   -1.4470    3.3159    3.2625 H   0  0  0  0  0  0  0  0  0  0  0  0
    0.3243    3.3682    3.3896 H   0  0  0  0  0  0  0  0  0  0  0  0
   -0.4850    3.9172    1.9023 H   0  0  0  0  0  0  0  0  0  0  0  0
  5  6  2  0  0  0  0
  5  7  1  0  0  0  0
  2  3  1  0  0  0  0
  2  4  1  0  0  0  0
  2  5  1  0  0  0  0
  1  2  1  0  0  0  0
 27 28  2  0  0  0  0
 27 29  1  0  0  0  0
 23 24  1  0  0  0  0
 23 25  1  0  0  0  0
 23 26  1  0  0  0  0
 20 21  1  0  0  0  0
 20 22  1  0  0  0  0
 20 23  1  0  0  0  0
 17 18  1  0  0  0  0
 17 19  1  0  0  0  0
 17 20  1  0  0  0  0
 14 15  1  0  0  0  0
 14 16  1  0  0  0  0
 14 17  1  0  0  0  0
 11 12  1  0  0  0  0
 11 13  1  0  0  0  0
 11 14  1  0  0  0  0
  9 10  1  0  0  0  0
  9 11  1  0  0  0  0
  9 27  1  0  0  0  0
  7  8  1  0  0  0  0
  7  9  1  0  0  0  0
 31 32  1  0  0  0  0
 31 33  1  0  0  0  0
 31 34  1  0  0  0  0
 29 30  1  0  0  0  0
 29 31  1  0  0  0  0
M  CHG  1  23   1
M  END
$$$$
default_name
  -OEChem-02102213163D

 34 33  0     1  0  0  0  0  0999 V2000
   -3.8899   -3.6747    1.6490 H   0  0  0  0  0  0  0  0  0  0  0  0
   -3.9109   -2.6717    1.2250 C   0  0  0  0  0  0  0  0  0  0  0  0
   -4.6009   -2.0517    1.7950 H   0  0  0  0  0  0  0  0  0  0  0  0
   -4.2309   -2.7237    0.1860 H   0  0  0  0  0  0  0  0  0  0  0  0
   -2.5229   -2.0787    1.2980 C   0  0  0  0  0  0  0  0  0  0  0  0
   -1.5999   -2.7227    1.7810 O   0  0  0  0  0  0  0  0  0  0  0  0
   -2.3659   -0.8447    0.8120 N   0  0  0  0  0  0  0  0  0  0  0  0
   -3.1749   -0.3807    0.4220 H   0  0  0  0  0  0  0  0  0  0  0  0
   -1.0919   -0.1077    0.8170 C   0  0  1  0  0  0  0  0  0  0  0  0
   -0.4136   -0.6011    1.5155 H   0  0  0  0  0  0  0  0  0  0  0  0
   -0.4834   -0.1723   -0.5965 C   0  0  0  0  0  0  0  0  0  0  0  0
    0.4888   -0.6639   -0.5342 H   0  0  0  0  0  0  0  0  0  0  0  0
   -1.1290   -0.7755   -1.2378 H   0  0  0  0  0  0  0  0  0  0  0  0
   -0.2851    1.2108   -1.2354 C   0  0  0  0  0  0  0  0  0  0  0  0
    0.3908    1.8062   -0.6201 H   0  0  0  0  0  0  0  0  0  0  0  0
    0.1512    1.0887   -2.2286 H   0  0  0  0  0  0  0  0  0  0  0  0
   -1.6298    1.9409   -1.3574 C   0  0  0  0  0  0  0  0  0  0  0  0
   -2.3093    1.3351   -1.9616 H   0  0  0  0  0  0  0  0  0  0  0  0
   -2.0573    2.0686   -0.3609 H   0  0  0  0  0  0  0  0  0  0  0  0
   -1.4369    3.3118   -2.0178 C   0  0  0  0  0  0  0  0  0  0  0  0
   -0.7481    3.8996   -1.4023 H   0  0  0  0  0  0  0  0  0  0  0  0
   -0.9693    3.1638   -2.9959 H   0  0  0  0  0  0  0  0  0  0  0  0
   -2.7270    4.0307   -2.1701 N   0  3  0  0  0  0  0  0  0  0  0  0
   -3.1596    4.1799   -1.2671 H   0  0  0  0  0  0  0  0  0  0  0  0
   -2.5826    4.9324   -2.6072 H   0  0  0  0  0  0  0  0  0  0  0  0
   -3.3652    3.4946   -2.7464 H   0  0  0  0  0  0  0  0  0  0  0  0
   -1.3103    1.3348    1.2791 C   0  0  0  0  0  0  0  0  0  0  0  0
   -2.2333    1.9891    0.8084 O   0  0  0  0  0  0  0  0  0  0  0  0
   -0.4429    1.8293    2.1683 N   0  0  0  0  0  0  0  0  0  0  0  0
    0.2668    1.2118    2.5263 H   0  0  0  0  0  0  0  0  0  0  0  0
   -0.5118    3.1863    2.7135 C   0  0  0  0  0  0  0  0  0  0  0  0
   -1.4470    3.3159    3.2625 H   0  0  0  0  0  0  0  0  0  0  0  0
    0.3243    3.3682    3.3896 H   0  0  0  0  0  0  0  0  0  0  0  0
   -0.4850    3.9172    1.9023 H   0  0  0  0  0  0  0  0  0  0  0  0
  5  6  2  0  0  0  0
  5  7  1  0  0  0  0
  2  3  1  0  0  0  0
  2  4  1  0  0  0  0
  2  5  1  0  0  0  0
  1  2  1  0  0  0  0
 27 28  2  0  0  0  0
 27 29  1  0  0  0  0
 23 24  1  0  0  0  0
 23 25  1  0  0  0  0
 23 26  1  0  0  0  0
 20 21  1  0  0  0  0
 20 22  1  0  0  0  0
 20 23  1  0  0  0  0
 17 18  1  0  0  0  0
 17 19  1  0  0  0  0
 17 20  1  0  0  0  0
 14 15  1  0  0  0  0
 14 16  1  0  0  0  0
 14 17  1  0  0  0  0
 11 12  1  0  0  0  0
 11 13  1  0  0  0  0
 11 14  1  0  0  0  0
  9 10  1  0  0  0  0
  9 11  1  0  0  0  0
  9 27  1  0  0  0  0
  7  8  1  0  0  0  0
  7  9  1  0  0  0  0
 31 32  1  0  0  0  0
 31 33  1  0  0  0  0
 31 34  1  0  0  0  0
 29 30  1  0  0  0  0
 29 31  1  0  0  0  0
M  CHG  1  23   1
M  END
$$$$
default_name
  -OEChem-02102213163D

 34 33  0     1  0  0  0  0  0999 V2000
   -3.8899   -3.6747    1.6490 H   0  0  0  0  0  0  0  0  0  0  0  0
   -3.9109   -2.6717    1.2250 C   0  0  0  0  0  0  0  0  0  0  0  0
   -4.6009   -2.0517    1.7950 H   0  0  0  0  0  0  0  0  0  0  0  0
   -4.2309   -2.7237    0.1860 H   0  0  0  0  0  0  0  0  0  0  0  0
   -2.5229   -2.0787    1.2980 C   0  0  0  0  0  0  0  0  0  0  0  0
   -1.5999   -2.7227    1.7810 O   0  0  0  0  0  0  0  0  0  0  0  0
   -2.3659   -0.8447    0.8120 N   0  0  0  0  0  0  0  0  0  0  0  0
   -3.1749   -0.3807    0.4220 H   0  0  0  0  0  0  0  0  0  0  0  0
   -1.0919   -0.1077    0.8170 C   0  0  1  0  0  0  0  0  0  0  0  0
   -0.4136   -0.6011    1.5155 H   0  0  0  0  0  0  0  0  0  0  0  0
   -0.4834   -0.1723   -0.5965 C   0  0  0  0  0  0  0  0  0  0  0  0
    0.4888   -0.6639   -0.5342 H   0  0  0  0  0  0  0  0  0  0  0  0
   -1.1290   -0.7755   -1.2378 H   0  0  0  0  0  0  0  0  0  0  0  0
   -0.2851    1.2108   -1.2354 C   0  0  0  0  0  0  0  0  0  0  0  0
    0.5768    1.7039   -0.7839 H   0  0  0  0  0  0  0  0  0  0  0  0
   -0.1066    1.0901   -2.3056 H   0  0  0  0  0  0  0  0  0  0  0  0
   -1.5314    2.0812   -1.0231 C   0  0  0  0  0  0  0  0  0  0  0  0
   -2.3955    1.5776   -1.4632 H   0  0  0  0  0  0  0  0  0  0  0  0
   -1.7001    2.2065    0.0483 H   0  0  0  0  0  0  0  0  0  0  0  0
   -1.3447    3.4537   -1.6819 C   0  0  0  0  0  0  0  0  0  0  0  0
   -0.4711    3.9379   -1.2334 H   0  0  0  0  0  0  0  0  0  0  0  0
   -1.1354    3.3034   -2.7453 H   0  0  0  0  0  0  0  0  0  0  0  0
   -2.5466    4.3088   -1.5121 N   0  3  0  0  0  0  0  0  0  0  0  0
   -2.7393    4.4602   -0.5299 H   0  0  0  0  0  0  0  0  0  0  0  0
   -2.4075    5.2098   -1.9522 H   0  0  0  0  0  0  0  0  0  0  0  0
   -3.3565    3.8689   -1.9334 H   0  0  0  0  0  0  0  0  0  0  0  0
   -1.3103    1.3348    1.2791 C   0  0  0  0  0  0  0  0  0  0  0  0
   -2.2333    1.9891    0.8084 O   0  0  0  0  0  0  0  0  0  0  0  0
   -0.4429    1.8293    2.1683 N   0  0  0  0  0  0  0  0  0  0  0  0
    0.2668    1.2118    2.5263 H   0  0  0  0  0  0  0  0  0  0  0  0
   -0.5118    3.1863    2.7135 C   0  0  0  0  0  0  0  0  0  0  0  0
   -1.4470    3.3159    3.2625 H   0  0  0  0  0  0  0  0  0  0  0  0
    0.3243    3.3682    3.3896 H   0  0  0  0  0  0  0  0  0  0  0  0
   -0.4850    3.9172    1.9023 H   0  0  0  0  0  0  0  0  0  0  0  0
  5  6  2  0  0  0  0
  5  7  1  0  0  0  0
  2  3  1  0  0  0  0
  2  4  1  0  0  0  0
  2  5  1  0  0  0  0
  1  2  1  0  0  0  0
 27 28  2  0  0  0  0
 27 29  1  0  0  0  0
 23 24  1  0  0  0  0
 23 25  1  0  0  0  0
 23 26  1  0  0  0  0
 20 21  1  0  0  0  0
 20 22  1  0  0  0  0
 20 23  1  0  0  0  0
 17 18  1  0  0  0  0
 17 19  1  0  0  0  0
 17 20  1  0  0  0  0
 14 15  1  0  0  0  0
 14 16  1  0  0  0  0
 14 17  1  0  0  0  0
 11 12  1  0  0  0  0
 11 13  1  0  0  0  0
 11 14  1  0  0  0  0
  9 10  1  0  0  0  0
  9 11  1  0  0  0  0
  9 27  1  0  0  0  0
  7  8  1  0  0  0  0
  7  9  1  0  0  0  0
 31 32  1  0  0  0  0
 31 33  1  0  0  0  0
 31 34  1  0  0  0  0
 29 30  1  0  0  0  0
 29 31  1  0  0  0  0
M  CHG  1  23   1
M  END
$$$$
default_name
  -OEChem-02102213163D

 34 33  0     1  0  0  0  0  0999 V2000
   -3.8899   -3.6747    1.6490 H   0  0  0  0  0  0  0  0  0  0  0  0
   -3.9109   -2.6717    1.2250 C   0  0  0  0  0  0  0  0  0  0  0  0
   -4.6009   -2.0517    1.7950 H   0  0  0  0  0  0  0  0  0  0  0  0
   -4.2309   -2.7237    0.1860 H   0  0  0  0  0  0  0  0  0  0  0  0
   -2.5229   -2.0787    1.2980 C   0  0  0  0  0  0  0  0  0  0  0  0
   -1.5999   -2.7227    1.7810 O   0  0  0  0  0  0  0  0  0  0  0  0
   -2.3659   -0.8447    0.8120 N   0  0  0  0  0  0  0  0  0  0  0  0
   -3.1749   -0.3807    0.4220 H   0  0  0  0  0  0  0  0  0  0  0  0
   -1.0919   -0.1077    0.8170 C   0  0  1  0  0  0  0  0  0  0  0  0
   -0.4136   -0.6011    1.5155 H   0  0  0  0  0  0  0  0  0  0  0  0
   -0.4834   -0.1723   -0.5965 C   0  0  0  0  0  0  0  0  0  0  0  0
    0.4888   -0.6639   -0.5342 H   0  0  0  0  0  0  0  0  0  0  0  0
   -1.1290   -0.7755   -1.2378 H   0  0  0  0  0  0  0  0  0  0  0  0
   -0.2851    1.2108   -1.2354 C   0  0  0  0  0  0  0  0  0  0  0  0
    0.7073    1.5905   -0.9888 H   0  0  0  0  0  0  0  0  0  0  0  0
   -0.3735    1.1217   -2.3199 H   0  0  0  0  0  0  0  0  0  0  0  0
   -1.3435    2.1950   -0.7185 C   0  0  0  0  0  0  0  0  0  0  0  0
   -2.3365    1.8046   -0.9537 H   0  0  0  0  0  0  0  0  0  0  0  0
   -1.2448    2.2875    0.3649 H   0  0  0  0  0  0  0  0  0  0  0  0
   -1.1622    3.5697   -1.3742 C   0  0  0  0  0  0  0  0  0  0  0  0
   -0.1601    3.9395   -1.1335 H   0  0  0  0  0  0  0  0  0  0  0  0
   -1.2225    3.4477   -2.4599 H   0  0  0  0  0  0  0  0  0  0  0  0
   -2.1891    4.5360   -0.9093 N   0  3  0  0  0  0  0  0  0  0  0  0
   -2.1314    4.6611    0.0936 H   0  0  0  0  0  0  0  0  0  0  0  0
   -2.0559    5.4371   -1.3511 H   0  0  0  0  0  0  0  0  0  0  0  0
   -3.1183    4.2024   -1.1376 H   0  0  0  0  0  0  0  0  0  0  0  0
   -1.3103    1.3348    1.2791 C   0  0  0  0  0  0  0  0  0  0  0  0
   -2.2333    1.9891    0.8084 O   0  0  0  0  0  0  0  0  0  0  0  0
   -0.4429    1.8293    2.1683 N   0  0  0  0  0  0  0  0  0  0  0  0
    0.2668    1.2118    2.5263 H   0  0  0  0  0  0  0  0  0  0  0  0
   -0.5118    3.1863    2.7135 C   0  0  0  0  0  0  0  0  0  0  0  0
   -1.4470    3.3159    3.2625 H   0  0  0  0  0  0  0  0  0  0  0  0
    0.3243    3.3682    3.3896 H   0  0  0  0  0  0  0  0  0  0  0  0
   -0.4850    3.9172    1.9023 H   0  0  0  0  0  0  0  0  0  0  0  0
  5  6  2  0  0  0  0
  5  7  1  0  0  0  0
  2  3  1  0  0  0  0
  2  4  1  0  0  0  0
  2  5  1  0  0  0  0
  1  2  1  0  0  0  0
 27 28  2  0  0  0  0
 27 29  1  0  0  0  0
 23 24  1  0  0  0  0
 23 25  1  0  0  0  0
 23 26  1  0  0  0  0
 20 21  1  0  0  0  0
 20 22  1  0  0  0  0
 20 23  1  0  0  0  0
 17 18  1  0  0  0  0
 17 19  1  0  0  0  0
 17 20  1  0  0  0  0
 14 15  1  0  0  0  0
 14 16  1  0  0  0  0
 14 17  1  0  0  0  0
 11 12  1  0  0  0  0
 11 13  1  0  0  0  0
 11 14  1  0  0  0  0
  9 10  1  0  0  0  0
  9 11  1  0  0  0  0
  9 27  1  0  0  0  0
  7  8  1  0  0  0  0
  7  9  1  0  0  0  0
 31 32  1  0  0  0  0
 31 33  1  0  0  0  0
 31 34  1  0  0  0  0
 29 30  1  0  0  0  0
 29 31  1  0  0  0  0
M  CHG  1  23   1
M  END
$$$$
default_name
  -OEChem-02102213163D

 34 33  0     1  0  0  0  0  0999 V2000
   -3.8899   -3.6747    1.6490 H   0  0  0  0  0  0  0  0  0  0  0  0
   -3.9109   -2.6717    1.2250 C   0  0  0  0  0  0  0  0  0  0  0  0
   -4.6009   -2.0517    1.7950 H   0  0  0  0  0  0  0  0  0  0  0  0
   -4.2309   -2.7237    0.1860 H   0  0  0  0  0  0  0  0  0  0  0  0
   -2.5229   -2.0787    1.2980 C   0  0  0  0  0  0  0  0  0  0  0  0
   -1.5999   -2.7227    1.7810 O   0  0  0  0  0  0  0  0  0  0  0  0
   -2.3659   -0.8447    0.8120 N   0  0  0  0  0  0  0  0  0  0  0  0
   -3.1749   -0.3807    0.4220 H   0  0  0  0  0  0  0  0  0  0  0  0
   -1.0919   -0.1077    0.8170 C   0  0  1  0  0  0  0  0  0  0  0  0
   -0.4136   -0.6011    1.5155 H   0  0  0  0  0  0  0  0  0  0  0  0
   -0.4834   -0.1723   -0.5965 C   0  0  0  0  0  0  0  0  0  0  0  0
    0.4888   -0.6639   -0.5342 H   0  0  0  0  0  0  0  0  0  0  0  0
   -1.1290   -0.7755   -1.2378 H   0  0  0  0  0  0  0  0  0  0  0  0
   -0.2851    1.2108   -1.2354 C   0  0  0  0  0  0  0  0  0  0  0  0
    0.7734    1.4738   -1.2210 H   0  0  0  0  0  0  0  0  0  0  0  0
   -0.6312    1.1815   -2.2704 H   0  0  0  0  0  0  0  0  0  0  0  0
   -1.0787    2.2745   -0.4642 C   0  0  0  0  0  0  0  0  0  0  0  0
   -2.1364    2.0004   -0.4676 H   0  0  0  0  0  0  0  0  0  0  0  0
   -0.7226    2.3061    0.5674 H   0  0  0  0  0  0  0  0  0  0  0  0
   -0.9016    3.6518   -1.1156 C   0  0  0  0  0  0  0  0  0  0  0  0
    0.1637    3.9042   -1.1094 H   0  0  0  0  0  0  0  0  0  0  0  0
   -1.2245    3.5869   -2.1591 H   0  0  0  0  0  0  0  0  0  0  0  0
   -1.6789    4.6968   -0.4028 N   0  3  0  0  0  0  0  0  0  0  0  0
   -1.3773    4.7689    0.5609 H   0  0  0  0  0  0  0  0  0  0  0  0
   -1.5517    5.5987   -0.8448 H   0  0  0  0  0  0  0  0  0  0  0  0
   -2.6670    4.4722   -0.4133 H   0  0  0  0  0  0  0  0  0  0  0  0
   -1.3103    1.3348    1.2791 C   0  0  0  0  0  0  0  0  0  0  0  0
   -2.2333    1.9891    0.8084 O   0  0  0  0  0  0  0  0  0  0  0  0
   -0.4429    1.8293    2.1683 N   0  0  0  0  0  0  0  0  0  0  0  0
    0.2668    1.2118    2.5263 H   0  0  0  0  0  0  0  0  0  0  0  0
   -0.5118    3.1863    2.7135 C   0  0  0  0  0  0  0  0  0  0  0  0
   -1.4470    3.3159    3.2625 H   0  0  0  0  0  0  0  0  0  0  0  0
    0.3243    3.3682    3.3896 H   0  0  0  0  0  0  0  0  0  0  0  0
   -0.4850    3.9172    1.9023 H   0  0  0  0  0  0  0  0  0  0  0  0
  5  6  2  0  0  0  0
  5  7  1  0  0  0  0
  2  3  1  0  0  0  0
  2  4  1  0  0  0  0
  2  5  1  0  0  0  0
  1  2  1  0  0  0  0
 27 28  2  0  0  0  0
 27 29  1  0  0  0  0
 23 24  1  0  0  0  0
 23 25  1  0  0  0  0
 23 26  1  0  0  0  0
 20 21  1  0  0  0  0
 20 22  1  0  0  0  0
 20 23  1  0  0  0  0
 17 18  1  0  0  0  0
 17 19  1  0  0  0  0
 17 20  1  0  0  0  0
 14 15  1  0  0  0  0
 14 16  1  0  0  0  0
 14 17  1  0  0  0  0
 11 12  1  0  0  0  0
 11 13  1  0  0  0  0
 11 14  1  0  0  0  0
  9 10  1  0  0  0  0
  9 11  1  0  0  0  0
  9 27  1  0  0  0  0
  7  8  1  0  0  0  0
  7  9  1  0  0  0  0
 31 32  1  0  0  0  0
 31 33  1  0  0  0  0
 31 34  1  0  0  0  0
 29 30  1  0  0  0  0
 29 31  1  0  0  0  0
M  CHG  1  23   1
M  END
$$$$
default_name
  -OEChem-02102213163D

 34 33  0     1  0  0  0  0  0999 V2000
   -3.8899   -3.6747    1.6490 H   0  0  0  0  0  0  0  0  0  0  0  0
   -3.9109   -2.6717    1.2250 C   0  0  0  0  0  0  0  0  0  0  0  0
   -4.6009   -2.0517    1.7950 H   0  0  0  0  0  0  0  0  0  0  0  0
   -4.2309   -2.7237    0.1860 H   0  0  0  0  0  0  0  0  0  0  0  0
   -2.5229   -2.0787    1.2980 C   0  0  0  0  0  0  0  0  0  0  0  0
   -1.5999   -2.7227    1.7810 O   0  0  0  0  0  0  0  0  0  0  0  0
   -2.3659   -0.8447    0.8120 N   0  0  0  0  0  0  0  0  0  0  0  0
   -3.1749   -0.3807    0.4220 H   0  0  0  0  0  0  0  0  0  0  0  0
   -1.0919   -0.1077    0.8170 C   0  0  1  0  0  0  0  0  0  0  0  0
   -0.4136   -0.6011    1.5155 H   0  0  0  0  0  0  0  0  0  0  0  0
   -0.4834   -0.1723   -0.5965 C   0  0  0  0  0  0  0  0  0  0  0  0
    0.4888   -0.6639   -0.5342 H   0  0  0  0  0  0  0  0  0  0  0  0
   -1.1290   -0.7755   -1.2378 H   0  0  0  0  0  0  0  0  0  0  0  0
   -0.2851    1.2108   -1.2354 C   0  0  0  0  0  0  0  0  0  0  0  0
    0.7706    1.3617   -1.4645 H   0  0  0  0  0  0  0  0  0  0  0  0
   -0.8621    1.2654   -2.1606 H   0  0  0  0  0  0  0  0  0  0  0  0
   -0.7552    2.3143   -0.2776 C   0  0  0  0  0  0  0  0  0  0  0  0
   -1.8088    2.1518   -0.0382 H   0  0  0  0  0  0  0  0  0  0  0  0
   -0.1689    2.2612    0.6420 H   0  0  0  0  0  0  0  0  0  0  0  0
   -0.5809    3.6944   -0.9238 C   0  0  0  0  0  0  0  0  0  0  0  0
    0.4783    3.8345   -1.1627 H   0  0  0  0  0  0  0  0  0  0  0  0
   -1.1415    3.7116   -1.8634 H   0  0  0  0  0  0  0  0  0  0  0  0
   -1.0508    4.7804   -0.0270 N   0  3  0  0  0  0  0  0  0  0  0  0
   -0.5284    4.7762    0.8402 H   0  0  0  0  0  0  0  0  0  0  0  0
   -0.9294    5.6836   -0.4678 H   0  0  0  0  0  0  0  0  0  0  0  0
   -2.0332    4.6602    0.1901 H   0  0  0  0  0  0  0  0  0  0  0  0
   -1.3103    1.3348    1.2791 C   0  0  0  0  0  0  0  0  0  0  0  0
   -2.2333    1.9891    0.8084 O   0  0  0  0  0  0  0  0  0  0  0  0
   -0.4429    1.8293    2.1683 N   0  0  0  0  0  0  0  0  0  0  0  0
    0.2668    1.2118    2.5263 H   0  0  0  0  0  0  0  0  0  0  0  0
   -0.5118    3.1863    2.7135 C   0  0  0  0  0  0  0  0  0  0  0  0
   -1.4470    3.3159    3.2625 H   0  0  0  0  0  0  0  0  0  0  0  0
    0.3243    3.3682    3.3896 H   0  0  0  0  0  0  0  0  0  0  0  0
   -0.4850    3.9172    1.9023 H   0  0  0  0  0  0  0  0  0  0  0  0
  5  6  2  0  0  0  0
  5  7  1  0  0  0  0
  2  3  1  0  0  0  0
  2  4  1  0  0  0  0
  2  5  1  0  0  0  0
  1  2  1  0  0  0  0
 27 28  2  0  0  0  0
 27 29  1  0  0  0  0
 23 24  1  0  0  0  0
 23 25  1  0  0  0  0
 23 26  1  0  0  0  0
 20 21  1  0  0  0  0
 20 22  1  0  0  0  0
 20 23  1  0  0  0  0
 17 18  1  0  0  0  0
 17 19  1  0  0  0  0
 17 20  1  0  0  0  0
 14 15  1  0  0  0  0
 14 16  1  0  0  0  0
 14 17  1  0  0  0  0
 11 12  1  0  0  0  0
 11 13  1  0  0  0  0
 11 14  1  0  0  0  0
  9 10  1  0  0  0  0
  9 11  1  0  0  0  0
  9 27  1  0  0  0  0
  7  8  1  0  0  0  0
  7  9  1  0  0  0  0
 31 32  1  0  0  0  0
 31 33  1  0  0  0  0
 31 34  1  0  0  0  0
 29 30  1  0  0  0  0
 29 31  1  0  0  0  0
M  CHG  1  23   1
M  END
$$$$
default_name
  -OEChem-02102213163D

 34 33  0     1  0  0  0  0  0999 V2000
   -3.8899   -3.6747    1.6490 H   0  0  0  0  0  0  0  0  0  0  0  0
   -3.9109   -2.6717    1.2250 C   0  0  0  0  0  0  0  0  0  0  0  0
   -4.6009   -2.0517    1.7950 H   0  0  0  0  0  0  0  0  0  0  0  0
   -4.2309   -2.7237    0.1860 H   0  0  0  0  0  0  0  0  0  0  0  0
   -2.5229   -2.0787    1.2980 C   0  0  0  0  0  0  0  0  0  0  0  0
   -1.5999   -2.7227    1.7810 O   0  0  0  0  0  0  0  0  0  0  0  0
   -2.3659   -0.8447    0.8120 N   0  0  0  0  0  0  0  0  0  0  0  0
   -3.1749   -0.3807    0.4220 H   0  0  0  0  0  0  0  0  0  0  0  0
   -1.0919   -0.1077    0.8170 C   0  0  1  0  0  0  0  0  0  0  0  0
   -0.4136   -0.6011    1.5155 H   0  0  0  0  0  0  0  0  0  0  0  0
   -0.4834   -0.1723   -0.5965 C   0  0  0  0  0  0  0  0  0  0  0  0
    0.4888   -0.6639   -0.5342 H   0  0  0  0  0  0  0  0  0  0  0  0
   -1.1290   -0.7755   -1.2378 H   0  0  0  0  0  0  0  0  0  0  0  0
   -0.2851    1.2108   -1.2354 C   0  0  0  0  0  0  0  0  0  0  0  0
    0.6991    1.2619   -1.7029 H   0  0  0  0  0  0  0  0  0  0  0  0
   -1.0506    1.3675   -1.9979 H   0  0  0  0  0  0  0  0  0  0  0  0
   -0.3949    2.3117   -0.1715 C   0  0  0  0  0  0  0  0  0  0  0  0
   -1.3760    2.2484    0.3053 H   0  0  0  0  0  0  0  0  0  0  0  0
    0.3784    2.1558    0.5835 H   0  0  0  0  0  0  0  0  0  0  0  0
   -0.2219    3.6946   -0.8119 C   0  0  0  0  0  0  0  0  0  0  0  0
    0.7623    3.7350   -1.2899 H   0  0  0  0  0  0  0  0  0  0  0  0
   -0.9789    3.8132   -1.5930 H   0  0  0  0  0  0  0  0  0  0  0  0
   -0.3474    4.7809    0.1924 N   0  3  0  0  0  0  0  0  0  0  0  0
    0.3574    4.6826    0.9124 H   0  0  0  0  0  0  0  0  0  0  0  0
   -0.2312    5.6861   -0.2458 H   0  0  0  0  0  0  0  0  0  0  0  0
   -1.2602    4.7533    0.6317 H   0  0  0  0  0  0  0  0  0  0  0  0
   -1.3103    1.3348    1.2791 C   0  0  0  0  0  0  0  0  0  0  0  0
   -2.2333    1.9891    0.8084 O   0  0  0  0  0  0  0  0  0  0  0  0
   -0.4429    1.8293    2.1683 N   0  0  0  0  0  0  0  0  0  0  0  0
    0.2668    1.2118    2.5263 H   0  0  0  0  0  0  0  0  0  0  0  0
   -0.5118    3.1863    2.7135 C   0  0  0  0  0  0  0  0  0  0  0  0
   -1.4470    3.3159    3.2625 H   0  0  0  0  0  0  0  0  0  0  0  0
    0.3243    3.3682    3.3896 H   0  0  0  0  0  0  0  0  0  0  0  0
   -0.4850    3.9172    1.9023 H   0  0  0  0  0  0  0  0  0  0  0  0
  5  6  2  0  0  0  0
  5  7  1  0  0  0  0
  2  3  1  0  0  0  0
  2  4  1  0  0  0  0
  2  5  1  0  0  0  0
  1  2  1  0  0  0  0
 27 28  2  0  0  0  0
 27 29  1  0  0  0  0
 23 24  1  0  0  0  0
 23 25  1  0  0  0  0
 23 26  1  0  0  0  0
 20 21  1  0  0  0  0
 20 22  1  0  0  0  0
 20 23  1  0  0  0  0
 17 18  1  0  0  0  0
 17 19  1  0  0  0  0
 17 20  1  0  0  0  0
 14 15  1  0  0  0  0
 14 16  1  0  0  0  0
 14 17  1  0  0  0  0
 11 12  1  0  0  0  0
 11 13  1  0  0  0  0
 11 14  1  0  0  0  0
  9 10  1  0  0  0  0
  9 11  1  0  0  0  0
  9 27  1  0  0  0  0
  7  8  1  0  0  0  0
  7  9  1  0  0  0  0
 31 32  1  0  0  0  0
 31 33  1  0  0  0  0
 31 34  1  0  0  0  0
 29 30  1  0  0  0  0
 29 31  1  0  0  0  0
M  CHG  1  23   1
M  END
$$$$
default_name
  -OEChem-02102213163D

 34 33  0     1  0  0  0  0  0999 V2000
   -3.8899   -3.6747    1.6490 H   0  0  0  0  0  0  0  0  0  0  0  0
   -3.9109   -2.6717    1.2250 C   0  0  0  0  0  0  0  0  0  0  0  0
   -4.6009   -2.0517    1.7950 H   0  0  0  0  0  0  0  0  0  0  0  0
   -4.2309   -2.7237    0.1860 H   0  0  0  0  0  0  0  0  0  0  0  0
   -2.5229   -2.0787    1.2980 C   0  0  0  0  0  0  0  0  0  0  0  0
   -1.5999   -2.7227    1.7810 O   0  0  0  0  0  0  0  0  0  0  0  0
   -2.3659   -0.8447    0.8120 N   0  0  0  0  0  0  0  0  0  0  0  0
   -3.1749   -0.3807    0.4220 H   0  0  0  0  0  0  0  0  0  0  0  0
   -1.0919   -0.1077    0.8170 C   0  0  1  0  0  0  0  0  0  0  0  0
   -0.4136   -0.6011    1.5155 H   0  0  0  0  0  0  0  0  0  0  0  0
   -0.4834   -0.1723   -0.5965 C   0  0  0  0  0  0  0  0  0  0  0  0
    0.4888   -0.6639   -0.5342 H   0  0  0  0  0  0  0  0  0  0  0  0
   -1.1290   -0.7755   -1.2378 H   0  0  0  0  0  0  0  0  0  0  0  0
   -0.2851    1.2108   -1.2354 C   0  0  0  0  0  0  0  0  0  0  0  0
    0.5637    1.1811   -1.9198 H   0  0  0  0  0  0  0  0  0  0  0  0
   -1.1837    1.4811   -1.7934 H   0  0  0  0  0  0  0  0  0  0  0  0
   -0.0224    2.2669   -0.1529 C   0  0  0  0  0  0  0  0  0  0  0  0
   -0.8675    2.2837    0.5394 H   0  0  0  0  0  0  0  0  0  0  0  0
    0.8820    1.9969    0.3959 H   0  0  0  0  0  0  0  0  0  0  0  0
    0.1511    3.6525   -0.7874 C   0  0  0  0  0  0  0  0  0  0  0  0
    0.9963    3.6127   -1.4822 H   0  0  0  0  0  0  0  0  0  0  0  0
   -0.7479    3.8848   -1.3663 H   0  0  0  0  0  0  0  0  0  0  0  0
    0.3831    4.6984    0.2405 N   0  3  0  0  0  0  0  0  0  0  0  0
    1.2198    4.4944    0.7727 H   0  0  0  0  0  0  0  0  0  0  0  0
    0.4951    5.6059   -0.1940 H   0  0  0  0  0  0  0  0  0  0  0  0
   -0.4007    4.7453    0.8811 H   0  0  0  0  0  0  0  0  0  0  0  0
   -1.3103    1.3348    1.2791 C   0  0  0  0  0  0  0  0  0  0  0  0
   -2.2333    1.9891    0.8084 O   0  0  0  0  0  0  0  0  0  0  0  0
   -0.4429    1.8293    2.1683 N   0  0  0  0  0  0  0  0  0  0  0  0
    0.2668    1.2118    2.5263 H   0  0  0  0  0  0  0  0  0  0  0  0
   -0.5118    3.1863    2.7135 C   0  0  0  0  0  0  0  0  0  0  0  0
   -1.4470    3.3159    3.2625 H   0  0  0  0  0  0  0  0  0  0  0  0
    0.3243    3.3682    3.3896 H   0  0  0  0  0  0  0  0  0  0  0  0
   -0.4850    3.9172    1.9023 H   0  0  0  0  0  0  0  0  0  0  0  0
  5  6  2  0  0  0  0
  5  7  1  0  0  0  0
  2  3  1  0  0  0  0
  2  4  1  0  0  0  0
  2  5  1  0  0  0  0
  1  2  1  0  0  0  0
 27 28  2  0  0  0  0
 27 29  1  0  0  0  0
 23 24  1  0  0  0  0
 23 25  1  0  0  0  0
 23 26  1  0  0  0  0
 20 21  1  0  0  0  0
 20 22  1  0  0  0  0
 20 23  1  0  0  0  0
 17 18  1  0  0  0  0
 17 19  1  0  0  0  0
 17 20  1  0  0  0  0
 14 15  1  0  0  0  0
 14 16  1  0  0  0  0
 14 17  1  0  0  0  0
 11 12  1  0  0  0  0
 11 13  1  0  0  0  0
 11 14  1  0  0  0  0
  9 10  1  0  0  0  0
  9 11  1  0  0  0  0
  9 27  1  0  0  0  0
  7  8  1  0  0  0  0
  7  9  1  0  0  0  0
 31 32  1  0  0  0  0
 31 33  1  0  0  0  0
 31 34  1  0  0  0  0
 29 30  1  0  0  0  0
 29 31  1  0  0  0  0
M  CHG  1  23   1
M  END
$$$$
default_name
  -OEChem-02102213163D

 34 33  0     1  0  0  0  0  0999 V2000
   -3.8899   -3.6747    1.6490 H   0  0  0  0  0  0  0  0  0  0  0  0
   -3.9109   -2.6717    1.2250 C   0  0  0  0  0  0  0  0  0  0  0  0
   -4.6009   -2.0517    1.7950 H   0  0  0  0  0  0  0  0  0  0  0  0
   -4.2309   -2.7237    0.1860 H   0  0  0  0  0  0  0  0  0  0  0  0
   -2.5229   -2.0787    1.2980 C   0  0  0  0  0  0  0  0  0  0  0  0
   -1.5999   -2.7227    1.7810 O   0  0  0  0  0  0  0  0  0  0  0  0
   -2.3659   -0.8447    0.8120 N   0  0  0  0  0  0  0  0  0  0  0  0
   -3.1749   -0.3807    0.4220 H   0  0  0  0  0  0  0  0  0  0  0  0
   -1.0919   -0.1077    0.8170 C   0  0  1  0  0  0  0  0  0  0  0  0
   -0.4136   -0.6011    1.5155 H   0  0  0  0  0  0  0  0  0  0  0  0
   -0.4834   -0.1723   -0.5965 C   0  0  0  0  0  0  0  0  0  0  0  0
    0.4888   -0.6639   -0.5342 H   0  0  0  0  0  0  0  0  0  0  0  0
   -1.1290   -0.7755   -1.2378 H   0  0  0  0  0  0  0  0  0  0  0  0
   -0.2851    1.2108   -1.2354 C   0  0  0  0  0  0  0  0  0  0  0  0
    0.3738    1.1248   -2.1004 H   0  0  0  0  0  0  0  0  0  0  0  0
   -1.2524    1.5982   -1.5611 H   0  0  0  0  0  0  0  0  0  0  0  0
    0.3369    2.1829   -0.2233 C   0  0  0  0  0  0  0  0  0  0  0  0
   -0.3180    2.2552    0.6483 H   0  0  0  0  0  0  0  0  0  0  0  0
    1.3077    1.7956    0.0921 H   0  0  0  0  0  0  0  0  0  0  0  0
    0.5125    3.5708   -0.8521 C   0  0  0  0  0  0  0  0  0  0  0  0
    1.1643    3.4757   -1.7266 H   0  0  0  0  0  0  0  0  0  0  0  0
   -0.4643    3.9216   -1.1987 H   0  0  0  0  0  0  0  0  0  0  0  0
    1.0910    4.5385    0.1140 N   0  3  0  0  0  0  0  0  0  0  0  0
    1.9999    4.2246    0.4305 H   0  0  0  0  0  0  0  0  0  0  0  0
    1.2001    5.4486   -0.3158 H   0  0  0  0  0  0  0  0  0  0  0  0
    0.4869    4.6368    0.9216 H   0  0  0  0  0  0  0  0  0  0  0  0
   -1.3103    1.3348    1.2791 C   0  0  0  0  0  0  0  0  0  0  0  0
   -2.2333    1.9891    0.8084 O   0  0  0  0  0  0  0  0  0  0  0  0
   -0.4429    1.8293    2.1683 N   0  0  0  0  0  0  0  0  0  0  0  0
    0.2668    1.2118    2.5263 H   0  0  0  0  0  0  0  0  0  0  0  0
   -0.5118    3.1863    2.7135 C   0  0  0  0  0  0  0  0  0  0  0  0
   -1.4470    3.3159    3.2625 H   0  0  0  0  0  0  0  0  0  0  0  0
    0.3243    3.3682    3.3896 H   0  0  0  0  0  0  0  0  0  0  0  0
   -0.4850    3.9172    1.9023 H   0  0  0  0  0  0  0  0  0  0  0  0
  5  6  2  0  0  0  0
  5  7  1  0  0  0  0
  2  3  1  0  0  0  0
  2  4  1  0  0  0  0
  2  5  1  0  0  0  0
  1  2  1  0  0  0  0
 27 28  2  0  0  0  0
 27 29  1  0  0  0  0
 23 24  1  0  0  0  0
 23 25  1  0  0  0  0
 23 26  1  0  0  0  0
 20 21  1  0  0  0  0
 20 22  1  0  0  0  0
 20 23  1  0  0  0  0
 17 18  1  0  0  0  0
 17 19  1  0  0  0  0
 17 20  1  0  0  0  0
 14 15  1  0  0  0  0
 14 16  1  0  0  0  0
 14 17  1  0  0  0  0
 11 12  1  0  0  0  0
 11 13  1  0  0  0  0
 11 14  1  0  0  0  0
  9 10  1  0  0  0  0
  9 11  1  0  0  0  0
  9 27  1  0  0  0  0
  7  8  1  0  0  0  0
  7  9  1  0  0  0  0
 31 32  1  0  0  0  0
 31 33  1  0  0  0  0
 31 34  1  0  0  0  0
 29 30  1  0  0  0  0
 29 31  1  0  0  0  0
M  CHG  1  23   1
M  END
$$$$
default_name
  -OEChem-02102213163D

 34 33  0     1  0  0  0  0  0999 V2000
   -3.8899   -3.6747    1.6490 H   0  0  0  0  0  0  0  0  0  0  0  0
   -3.9109   -2.6717    1.2250 C   0  0  0  0  0  0  0  0  0  0  0  0
   -4.6009   -2.0517    1.7950 H   0  0  0  0  0  0  0  0  0  0  0  0
   -4.2309   -2.7237    0.1860 H   0  0  0  0  0  0  0  0  0  0  0  0
   -2.5229   -2.0787    1.2980 C   0  0  0  0  0  0  0  0  0  0  0  0
   -1.5999   -2.7227    1.7810 O   0  0  0  0  0  0  0  0  0  0  0  0
   -2.3659   -0.8447    0.8120 N   0  0  0  0  0  0  0  0  0  0  0  0
   -3.1749   -0.3807    0.4220 H   0  0  0  0  0  0  0  0  0  0  0  0
   -1.0919   -0.1077    0.8170 C   0  0  1  0  0  0  0  0  0  0  0  0
   -0.4136   -0.6011    1.5155 H   0  0  0  0  0  0  0  0  0  0  0  0
   -0.4834   -0.1723   -0.5965 C   0  0  0  0  0  0  0  0  0  0  0  0
    0.4888   -0.6639   -0.5342 H   0  0  0  0  0  0  0  0  0  0  0  0
   -1.1290   -0.7755   -1.2378 H   0  0  0  0  0  0  0  0  0  0  0  0
   -0.2851    1.2108   -1.2354 C   0  0  0  0  0  0  0  0  0  0  0  0
    0.1421    1.0970   -2.2326 H   0  0  0  0  0  0  0  0  0  0  0  0
   -1.2521    1.7110   -1.3168 H   0  0  0  0  0  0  0  0  0  0  0  0
    0.6585    2.0654   -0.3779 C   0  0  0  0  0  0  0  0  0  0  0  0
    0.2351    2.1650    0.6245 H   0  0  0  0  0  0  0  0  0  0  0  0
    1.6265    1.5654   -0.3073 H   0  0  0  0  0  0  0  0  0  0  0  0
    0.8377    3.4552   -1.0015 C   0  0  0  0  0  0  0  0  0  0  0  0
    1.2549    3.3335   -2.0064 H   0  0  0  0  0  0  0  0  0  0  0  0
   -0.1474    3.9209   -1.1017 H   0  0  0  0  0  0  0  0  0  0  0  0
    1.7282    4.3121   -0.1785 N   0  3  0  0  0  0  0  0  0  0  0  0
    2.6448    3.8913   -0.0909 H   0  0  0  0  0  0  0  0  0  0  0  0
    1.8358    5.2248   -0.6031 H   0  0  0  0  0  0  0  0  0  0  0  0
    1.3419    4.4351    0.7502 H   0  0  0  0  0  0  0  0  0  0  0  0
   -1.3103    1.3348    1.2791 C   0  0  0  0  0  0  0  0  0  0  0  0
   -2.2333    1.9891    0.8084 O   0  0  0  0  0  0  0  0  0  0  0  0
   -0.4429    1.8293    2.1683 N   0  0  0  0  0  0  0  0  0  0  0  0
    0.2668    1.2118    2.5263 H   0  0  0  0  0  0  0  0  0  0  0  0
   -0.5118    3.1863    2.7135 C   0  0  0  0  0  0  0  0  0  0  0  0
   -1.4470    3.3159    3.2625 H   0  0  0  0  0  0  0  0  0  0  0  0
    0.3243    3.3682    3.3896 H   0  0  0  0  0  0  0  0  0  0  0  0
   -0.4850    3.9172    1.9023 H   0  0  0  0  0  0  0  0  0  0  0  0
  5  6  2  0  0  0  0
  5  7  1  0  0  0  0
  2  3  1  0  0  0  0
  2  4  1  0  0  0  0
  2  5  1  0  0  0  0
  1  2  1  0  0  0  0
 27 28  2  0  0  0  0
 27 29  1  0  0  0  0
 23 24  1  0  0  0  0
 23 25  1  0  0  0  0
 23 26  1  0  0  0  0
 20 21  1  0  0  0  0
 20 22  1  0  0  0  0
 20 23  1  0  0  0  0
 17 18  1  0  0  0  0
 17 19  1  0  0  0  0
 17 20  1  0  0  0  0
 14 15  1  0  0  0  0
 14 16  1  0  0  0  0
 14 17  1  0  0  0  0
 11 12  1  0  0  0  0
 11 13  1  0  0  0  0
 11 14  1  0  0  0  0
  9 10  1  0  0  0  0
  9 11  1  0  0  0  0
  9 27  1  0  0  0  0
  7  8  1  0  0  0  0
  7  9  1  0  0  0  0
 31 32  1  0  0  0  0
 31 33  1  0  0  0  0
 31 34  1  0  0  0  0
 29 30  1  0  0  0  0
 29 31  1  0  0  0  0
M  CHG  1  23   1
M  END
$$$$
default_name
  -OEChem-02102213163D

 34 33  0     1  0  0  0  0  0999 V2000
   -3.8899   -3.6747    1.6490 H   0  0  0  0  0  0  0  0  0  0  0  0
   -3.9109   -2.6717    1.2250 C   0  0  0  0  0  0  0  0  0  0  0  0
   -4.6009   -2.0517    1.7950 H   0  0  0  0  0  0  0  0  0  0  0  0
   -4.2309   -2.7237    0.1860 H   0  0  0  0  0  0  0  0  0  0  0  0
   -2.5229   -2.0787    1.2980 C   0  0  0  0  0  0  0  0  0  0  0  0
   -1.5999   -2.7227    1.7810 O   0  0  0  0  0  0  0  0  0  0  0  0
   -2.3659   -0.8447    0.8120 N   0  0  0  0  0  0  0  0  0  0  0  0
   -3.1749   -0.3807    0.4220 H   0  0  0  0  0  0  0  0  0  0  0  0
   -1.0919   -0.1077    0.8170 C   0  0  1  0  0  0  0  0  0  0  0  0
   -0.4136   -0.6011    1.5155 H   0  0  0  0  0  0  0  0  0  0  0  0
   -0.4834   -0.1723   -0.5965 C   0  0  0  0  0  0  0  0  0  0  0  0
    0.4888   -0.6639   -0.5342 H   0  0  0  0  0  0  0  0  0  0  0  0
   -1.1290   -0.7755   -1.2378 H   0  0  0  0  0  0  0  0  0  0  0  0
   -0.2851    1.2108   -1.2354 C   0  0  0  0  0  0  0  0  0  0  0  0
   -0.1154    1.0995   -2.3071 H   0  0  0  0  0  0  0  0  0  0  0  0
   -1.1827    1.8118   -1.0771 H   0  0  0  0  0  0  0  0  0  0  0  0
    0.9204    1.9225   -0.6060 C   0  0  0  0  0  0  0  0  0  0  0  0
    0.7541    2.0190    0.4696 H   0  0  0  0  0  0  0  0  0  0  0  0
    1.8165    1.3221   -0.7750 H   0  0  0  0  0  0  0  0  0  0  0  0
    1.1046    3.3135   -1.2254 C   0  0  0  0  0  0  0  0  0  0  0  0
    1.2619    3.1957   -2.3025 H   0  0  0  0  0  0  0  0  0  0  0  0
    0.1813    3.8830   -1.0819 H   0  0  0  0  0  0  0  0  0  0  0  0
    2.2511    4.0346   -0.6171 N   0  3  0  0  0  0  0  0  0  0  0  0
    3.1103    3.5174   -0.7558 H   0  0  0  0  0  0  0  0  0  0  0  0
    2.3588    4.9499   -1.0361 H   0  0  0  0  0  0  0  0  0  0  0  0
    2.1062    4.1540    0.3787 H   0  0  0  0  0  0  0  0  0  0  0  0
   -1.3103    1.3348    1.2791 C   0  0  0  0  0  0  0  0  0  0  0  0
   -2.2333    1.9891    0.8084 O   0  0  0  0  0  0  0  0  0  0  0  0
   -0.4429    1.8293    2.1683 N   0  0  0  0  0  0  0  0  0  0  0  0
    0.2668    1.2118    2.5263 H   0  0  0  0  0  0  0  0  0  0  0  0
   -0.5118    3.1863    2.7135 C   0  0  0  0  0  0  0  0  0  0  0  0
   -1.4470    3.3159    3.2625 H   0  0  0  0  0  0  0  0  0  0  0  0
    0.3243    3.3682    3.3896 H   0  0  0  0  0  0  0  0  0  0  0  0
   -0.4850    3.9172    1.9023 H   0  0  0  0  0  0  0  0  0  0  0  0
  5  6  2  0  0  0  0
  5  7  1  0  0  0  0
  2  3  1  0  0  0  0
  2  4  1  0  0  0  0
  2  5  1  0  0  0  0
  1  2  1  0  0  0  0
 27 28  2  0  0  0  0
 27 29  1  0  0  0  0
 23 24  1  0  0  0  0
 23 25  1  0  0  0  0
 23 26  1  0  0  0  0
 20 21  1  0  0  0  0
 20 22  1  0  0  0  0
 20 23  1  0  0  0  0
 17 18  1  0  0  0  0
 17 19  1  0  0  0  0
 17 20  1  0  0  0  0
 14 15  1  0  0  0  0
 14 16  1  0  0  0  0
 14 17  1  0  0  0  0
 11 12  1  0  0  0  0
 11 13  1  0  0  0  0
 11 14  1  0  0  0  0
  9 10  1  0  0  0  0
  9 11  1  0  0  0  0
  9 27  1  0  0  0  0
  7  8  1  0  0  0  0
  7  9  1  0  0  0  0
 31 32  1  0  0  0  0
 31 33  1  0  0  0  0
 31 34  1  0  0  0  0
 29 30  1  0  0  0  0
 29 31  1  0  0  0  0
M  CHG  1  23   1
M  END
$$$$
default_name
  -OEChem-02102213163D

 34 33  0     1  0  0  0  0  0999 V2000
   -3.8899   -3.6747    1.6490 H   0  0  0  0  0  0  0  0  0  0  0  0
   -3.9109   -2.6717    1.2250 C   0  0  0  0  0  0  0  0  0  0  0  0
   -4.6009   -2.0517    1.7950 H   0  0  0  0  0  0  0  0  0  0  0  0
   -4.2309   -2.7237    0.1860 H   0  0  0  0  0  0  0  0  0  0  0  0
   -2.5229   -2.0787    1.2980 C   0  0  0  0  0  0  0  0  0  0  0  0
   -1.5999   -2.7227    1.7810 O   0  0  0  0  0  0  0  0  0  0  0  0
   -2.3659   -0.8447    0.8120 N   0  0  0  0  0  0  0  0  0  0  0  0
   -3.1749   -0.3807    0.4220 H   0  0  0  0  0  0  0  0  0  0  0  0
   -1.0919   -0.1077    0.8170 C   0  0  1  0  0  0  0  0  0  0  0  0
   -0.4136   -0.6011    1.5155 H   0  0  0  0  0  0  0  0  0  0  0  0
   -0.4834   -0.1723   -0.5965 C   0  0  0  0  0  0  0  0  0  0  0  0
    0.4888   -0.6639   -0.5342 H   0  0  0  0  0  0  0  0  0  0  0  0
   -1.1290   -0.7755   -1.2378 H   0  0  0  0  0  0  0  0  0  0  0  0
   -0.2851    1.2108   -1.2354 C   0  0  0  0  0  0  0  0  0  0  0  0
   -0.3813    1.1321   -2.3191 H   0  0  0  0  0  0  0  0  0  0  0  0
   -1.0489    1.8937   -0.8584 H   0  0  0  0  0  0  0  0  0  0  0  0
    1.1050    1.7639   -0.8921 C   0  0  0  0  0  0  0  0  0  0  0  0
    1.2036    1.8274    0.1942 H   0  0  0  0  0  0  0  0  0  0  0  0
    1.8650    1.0823   -1.2792 H   0  0  0  0  0  0  0  0  0  0  0  0
    1.2949    3.1554   -1.5086 C   0  0  0  0  0  0  0  0  0  0  0  0
    1.1849    3.0718   -2.5947 H   0  0  0  0  0  0  0  0  0  0  0  0
    0.4994    3.8103   -1.1406 H   0  0  0  0  0  0  0  0  0  0  0  0
    2.6241    3.7249   -1.1718 N   0  3  0  0  0  0  0  0  0  0  0  0
    3.3647    3.1284   -1.5191 H   0  0  0  0  0  0  0  0  0  0  0  0
    2.7335    4.6424   -1.5854 H   0  0  0  0  0  0  0  0  0  0  0  0
    2.7276    3.8126   -0.1676 H   0  0  0  0  0  0  0  0  0  0  0  0
   -1.3103    1.3348    1.2791 C   0  0  0  0  0  0  0  0  0  0  0  0
   -2.2333    1.9891    0.8084 O   0  0  0  0  0  0  0  0  0  0  0  0
   -0.4429    1.8293    2.1683 N   0  0  0  0  0  0  0  0  0  0  0  0
    0.2668    1.2118    2.5263 H   0  0  0  0  0  0  0  0  0  0  0  0
   -0.5118    3.1863    2.7135 C   0  0  0  0  0  0  0  0  0  0  0  0
   -1.4470    3.3159    3.2625 H   0  0  0  0  0  0  0  0  0  0  0  0
    0.3243    3.3682    3.3896 H   0  0  0  0  0  0  0  0  0  0  0  0
   -0.4850    3.9172    1.9023 H   0  0  0  0  0  0  0  0  0  0  0  0
  5  6  2  0  0  0  0
  5  7  1  0  0  0  0
  2  3  1  0  0  0  0
  2  4  1  0  0  0  0
  2  5  1  0  0  0  0
  1  2  1  0  0  0  0
 27 28  2  0  0  0  0
 27 29  1  0  0  0  0
 23 24  1  0  0  0  0
 23 25  1  0  0  0  0
 23 26  1  0  0  0  0
 20 21  1  0  0  0  0
 20 22  1  0  0  0  0
 20 23  1  0  0  0  0
 17 18  1  0  0  0  0
 17 19  1  0  0  0  0
 17 20  1  0  0  0  0
 14 15  1  0  0  0  0
 14 16  1  0  0  0  0
 14 17  1  0  0  0  0
 11 12  1  0  0  0  0
 11 13  1  0  0  0  0
 11 14  1  0  0  0  0
  9 10  1  0  0  0  0
  9 11  1  0  0  0  0
  9 27  1  0  0  0  0
  7  8  1  0  0  0  0
  7  9  1  0  0  0  0
 31 32  1  0  0  0  0
 31 33  1  0  0  0  0
 31 34  1  0  0  0  0
 29 30  1  0  0  0  0
 29 31  1  0  0  0  0
M  CHG  1  23   1
M  END
$$$$
default_name
  -OEChem-02102213163D

 34 33  0     1  0  0  0  0  0999 V2000
   -3.8899   -3.6747    1.6490 H   0  0  0  0  0  0  0  0  0  0  0  0
   -3.9109   -2.6717    1.2250 C   0  0  0  0  0  0  0  0  0  0  0  0
   -4.6009   -2.0517    1.7950 H   0  0  0  0  0  0  0  0  0  0  0  0
   -4.2309   -2.7237    0.1860 H   0  0  0  0  0  0  0  0  0  0  0  0
   -2.5229   -2.0787    1.2980 C   0  0  0  0  0  0  0  0  0  0  0  0
   -1.5999   -2.7227    1.7810 O   0  0  0  0  0  0  0  0  0  0  0  0
   -2.3659   -0.8447    0.8120 N   0  0  0  0  0  0  0  0  0  0  0  0
   -3.1749   -0.3807    0.4220 H   0  0  0  0  0  0  0  0  0  0  0  0
   -1.0919   -0.1077    0.8170 C   0  0  1  0  0  0  0  0  0  0  0  0
   -0.4136   -0.6011    1.5155 H   0  0  0  0  0  0  0  0  0  0  0  0
   -0.4834   -0.1723   -0.5965 C   0  0  0  0  0  0  0  0  0  0  0  0
    0.4888   -0.6639   -0.5342 H   0  0  0  0  0  0  0  0  0  0  0  0
   -1.1290   -0.7755   -1.2378 H   0  0  0  0  0  0  0  0  0  0  0  0
   -0.2851    1.2108   -1.2354 C   0  0  0  0  0  0  0  0  0  0  0  0
   -0.6374    1.1926   -2.2676 H   0  0  0  0  0  0  0  0  0  0  0  0
   -0.8600    1.9510   -0.6755 H   0  0  0  0  0  0  0  0  0  0  0  0
    1.1994    1.6004   -1.2168 C   0  0  0  0  0  0  0  0  0  0  0  0
    1.5530    1.6031   -0.1829 H   0  0  0  0  0  0  0  0  0  0  0  0
    1.7684    0.8622   -1.7856 H   0  0  0  0  0  0  0  0  0  0  0  0
    1.3958    2.9917   -1.8318 C   0  0  0  0  0  0  0  0  0  0  0  0
    1.0290    2.9701   -2.8632 H   0  0  0  0  0  0  0  0  0  0  0  0
    0.7850    3.7078   -1.2738 H   0  0  0  0  0  0  0  0  0  0  0  0
    2.8219    3.4041   -1.8049 N   0  3  0  0  0  0  0  0  0  0  0  0
    3.3909    2.7508   -2.3286 H   0  0  0  0  0  0  0  0  0  0  0  0
    2.9343    4.3235   -2.2136 H   0  0  0  0  0  0  0  0  0  0  0  0
    3.1638    3.4342   -0.8514 H   0  0  0  0  0  0  0  0  0  0  0  0
   -1.3103    1.3348    1.2791 C   0  0  0  0  0  0  0  0  0  0  0  0
   -2.2333    1.9891    0.8084 O   0  0  0  0  0  0  0  0  0  0  0  0
   -0.4429    1.8293    2.1683 N   0  0  0  0  0  0  0  0  0  0  0  0
    0.2668    1.2118    2.5263 H   0  0  0  0  0  0  0  0  0  0  0  0
   -0.5118    3.1863    2.7135 C   0  0  0  0  0  0  0  0  0  0  0  0
   -1.4470    3.3159    3.2625 H   0  0  0  0  0  0  0  0  0  0  0  0
    0.3243    3.3682    3.3896 H   0  0  0  0  0  0  0  0  0  0  0  0
   -0.4850    3.9172    1.9023 H   0  0  0  0  0  0  0  0  0  0  0  0
  5  6  2  0  0  0  0
  5  7  1  0  0  0  0
  2  3  1  0  0  0  0
  2  4  1  0  0  0  0
  2  5  1  0  0  0  0
  1  2  1  0  0  0  0
 27 28  2  0  0  0  0
 27 29  1  0  0  0  0
 23 24  1  0  0  0  0
 23 25  1  0  0  0  0
 23 26  1  0  0  0  0
 20 21  1  0  0  0  0
 20 22  1  0  0  0  0
 20 23  1  0  0  0  0
 17 18  1  0  0  0  0
 17 19  1  0  0  0  0
 17 20  1  0  0  0  0
 14 15  1  0  0  0  0
 14 16  1  0  0  0  0
 14 17  1  0  0  0  0
 11 12  1  0  0  0  0
 11 13  1  0  0  0  0
 11 14  1  0  0  0  0
  9 10  1  0  0  0  0
  9 11  1  0  0  0  0
  9 27  1  0  0  0  0
  7  8  1  0  0  0  0
  7  9  1  0  0  0  0
 31 32  1  0  0  0  0
 31 33  1  0  0  0  0
 31 34  1  0  0  0  0
 29 30  1  0  0  0  0
 29 31  1  0  0  0  0
M  CHG  1  23   1
M  END
$$$$
default_name
  -OEChem-02102213163D

 34 33  0     1  0  0  0  0  0999 V2000
   -3.8899   -3.6747    1.6490 H   0  0  0  0  0  0  0  0  0  0  0  0
   -3.9109   -2.6717    1.2250 C   0  0  0  0  0  0  0  0  0  0  0  0
   -4.6009   -2.0517    1.7950 H   0  0  0  0  0  0  0  0  0  0  0  0
   -4.2309   -2.7237    0.1860 H   0  0  0  0  0  0  0  0  0  0  0  0
   -2.5229   -2.0787    1.2980 C   0  0  0  0  0  0  0  0  0  0  0  0
   -1.5999   -2.7227    1.7810 O   0  0  0  0  0  0  0  0  0  0  0  0
   -2.3659   -0.8447    0.8120 N   0  0  0  0  0  0  0  0  0  0  0  0
   -3.1749   -0.3807    0.4220 H   0  0  0  0  0  0  0  0  0  0  0  0
   -1.0919   -0.1077    0.8170 C   0  0  1  0  0  0  0  0  0  0  0  0
   -0.4136   -0.6011    1.5155 H   0  0  0  0  0  0  0  0  0  0  0  0
   -0.4834   -0.1723   -0.5965 C   0  0  0  0  0  0  0  0  0  0  0  0
    0.4888   -0.6639   -0.5342 H   0  0  0  0  0  0  0  0  0  0  0  0
   -1.1290   -0.7755   -1.2378 H   0  0  0  0  0  0  0  0  0  0  0  0
   -0.2851    1.2108   -1.2354 C   0  0  0  0  0  0  0  0  0  0  0  0
   -0.8662    1.2768   -2.1561 H   0  0  0  0  0  0  0  0  0  0  0  0
   -0.6287    1.9800   -0.5410 H   0  0  0  0  0  0  0  0  0  0  0  0
    1.1975    1.4431   -1.5579 C   0  0  0  0  0  0  0  0  0  0  0  0
    1.7785    1.3614   -0.6361 H   0  0  0  0  0  0  0  0  0  0  0  0
    1.5335    0.6770   -2.2595 H   0  0  0  0  0  0  0  0  0  0  0  0
    1.4003    2.8334   -2.1730 C   0  0  0  0  0  0  0  0  0  0  0  0
    0.8050    2.8976   -3.0896 H   0  0  0  0  0  0  0  0  0  0  0  0
    1.0189    3.5825   -1.4725 H   0  0  0  0  0  0  0  0  0  0  0  0
    2.8309    3.0941   -2.4732 N   0  3  0  0  0  0  0  0  0  0  0  0
    3.1868    2.4102   -3.1292 H   0  0  0  0  0  0  0  0  0  0  0  0
    2.9477    4.0148   -2.8778 H   0  0  0  0  0  0  0  0  0  0  0  0
    3.3851    3.0445   -1.6263 H   0  0  0  0  0  0  0  0  0  0  0  0
   -1.3103    1.3348    1.2791 C   0  0  0  0  0  0  0  0  0  0  0  0
   -2.2333    1.9891    0.8084 O   0  0  0  0  0  0  0  0  0  0  0  0
   -0.4429    1.8293    2.1683 N   0  0  0  0  0  0  0  0  0  0  0  0
    0.2668    1.2118    2.5263 H   0  0  0  0  0  0  0  0  0  0  0  0
   -0.5118    3.1863    2.7135 C   0  0  0  0  0  0  0  0  0  0  0  0
   -1.4470    3.3159    3.2625 H   0  0  0  0  0  0  0  0  0  0  0  0
    0.3243    3.3682    3.3896 H   0  0  0  0  0  0  0  0  0  0  0  0
   -0.4850    3.9172    1.9023 H   0  0  0  0  0  0  0  0  0  0  0  0
  5  6  2  0  0  0  0
  5  7  1  0  0  0  0
  2  3  1  0  0  0  0
  2  4  1  0  0  0  0
  2  5  1  0  0  0  0
  1  2  1  0  0  0  0
 27 28  2  0  0  0  0
 27 29  1  0  0  0  0
 23 24  1  0  0  0  0
 23 25  1  0  0  0  0
 23 26  1  0  0  0  0
 20 21  1  0  0  0  0
 20 22  1  0  0  0  0
 20 23  1  0  0  0  0
 17 18  1  0  0  0  0
 17 19  1  0  0  0  0
 17 20  1  0  0  0  0
 14 15  1  0  0  0  0
 14 16  1  0  0  0  0
 14 17  1  0  0  0  0
 11 12  1  0  0  0  0
 11 13  1  0  0  0  0
 11 14  1  0  0  0  0
  9 10  1  0  0  0  0
  9 11  1  0  0  0  0
  9 27  1  0  0  0  0
  7  8  1  0  0  0  0
  7  9  1  0  0  0  0
 31 32  1  0  0  0  0
 31 33  1  0  0  0  0
 31 34  1  0  0  0  0
 29 30  1  0  0  0  0
 29 31  1  0  0  0  0
M  CHG  1  23   1
M  END
$$$$
default_name
  -OEChem-02102213163D

 34 33  0     1  0  0  0  0  0999 V2000
   -3.8899   -3.6747    1.6490 H   0  0  0  0  0  0  0  0  0  0  0  0
   -3.9109   -2.6717    1.2250 C   0  0  0  0  0  0  0  0  0  0  0  0
   -4.6009   -2.0517    1.7950 H   0  0  0  0  0  0  0  0  0  0  0  0
   -4.2309   -2.7237    0.1860 H   0  0  0  0  0  0  0  0  0  0  0  0
   -2.5229   -2.0787    1.2980 C   0  0  0  0  0  0  0  0  0  0  0  0
   -1.5999   -2.7227    1.7810 O   0  0  0  0  0  0  0  0  0  0  0  0
   -2.3659   -0.8447    0.8120 N   0  0  0  0  0  0  0  0  0  0  0  0
   -3.1749   -0.3807    0.4220 H   0  0  0  0  0  0  0  0  0  0  0  0
   -1.0919   -0.1077    0.8170 C   0  0  1  0  0  0  0  0  0  0  0  0
   -0.4136   -0.6011    1.5155 H   0  0  0  0  0  0  0  0  0  0  0  0
   -0.4834   -0.1723   -0.5965 C   0  0  0  0  0  0  0  0  0  0  0  0
    0.4888   -0.6639   -0.5342 H   0  0  0  0  0  0  0  0  0  0  0  0
   -1.1290   -0.7755   -1.2378 H   0  0  0  0  0  0  0  0  0  0  0  0
   -0.2851    1.2108   -1.2354 C   0  0  0  0  0  0  0  0  0  0  0  0
   -1.0522    1.3791   -1.9924 H   0  0  0  0  0  0  0  0  0  0  0  0
   -0.3709    1.9786   -0.4640 H   0  0  0  0  0  0  0  0  0  0  0  0
    1.0991    1.3028   -1.8922 C   0  0  0  0  0  0  0  0  0  0  0  0
    1.8647    1.1189   -1.1345 H   0  0  0  0  0  0  0  0  0  0  0  0
    1.1763    0.5392   -2.6687 H   0  0  0  0  0  0  0  0  0  0  0  0
    1.3082    2.6915   -2.5089 C   0  0  0  0  0  0  0  0  0  0  0  0
    0.5280    2.8593   -3.2585 H   0  0  0  0  0  0  0  0  0  0  0  0
    1.1850    3.4429   -1.7231 H   0  0  0  0  0  0  0  0  0  0  0  0
    2.6505    2.8160   -3.1311 N   0  3  0  0  0  0  0  0  0  0  0  0
    2.7665    2.1299   -3.8664 H   0  0  0  0  0  0  0  0  0  0  0  0
    2.7726    3.7373   -3.5327 H   0  0  0  0  0  0  0  0  0  0  0  0
    3.3764    2.6702   -2.4393 H   0  0  0  0  0  0  0  0  0  0  0  0
   -1.3103    1.3348    1.2791 C   0  0  0  0  0  0  0  0  0  0  0  0
   -2.2333    1.9891    0.8084 O   0  0  0  0  0  0  0  0  0  0  0  0
   -0.4429    1.8293    2.1683 N   0  0  0  0  0  0  0  0  0  0  0  0
    0.2668    1.2118    2.5263 H   0  0  0  0  0  0  0  0  0  0  0  0
   -0.5118    3.1863    2.7135 C   0  0  0  0  0  0  0  0  0  0  0  0
   -1.4470    3.3159    3.2625 H   0  0  0  0  0  0  0  0  0  0  0  0
    0.3243    3.3682    3.3896 H   0  0  0  0  0  0  0  0  0  0  0  0
   -0.4850    3.9172    1.9023 H   0  0  0  0  0  0  0  0  0  0  0  0
  5  6  2  0  0  0  0
  5  7  1  0  0  0  0
  2  3  1  0  0  0  0
  2  4  1  0  0  0  0
  2  5  1  0  0  0  0
  1  2  1  0  0  0  0
 27 28  2  0  0  0  0
 27 29  1  0  0  0  0
 23 24  1  0  0  0  0
 23 25  1  0  0  0  0
 23 26  1  0  0  0  0
 20 21  1  0  0  0  0
 20 22  1  0  0  0  0
 20 23  1  0  0  0  0
 17 18  1  0  0  0  0
 17 19  1  0  0  0  0
 17 20  1  0  0  0  0
 14 15  1  0  0  0  0
 14 16  1  0  0  0  0
 14 17  1  0  0  0  0
 11 12  1  0  0  0  0
 11 13  1  0  0  0  0
 11 14  1  0  0  0  0
  9 10  1  0  0  0  0
  9 11  1  0  0  0  0
  9 27  1  0  0  0  0
  7  8  1  0  0  0  0
  7  9  1  0  0  0  0
 31 32  1  0  0  0  0
 31 33  1  0  0  0  0
 31 34  1  0  0  0  0
 29 30  1  0  0  0  0
 29 31  1  0  0  0  0
M  CHG  1  23   1
M  END
$$$$
default_name
  -OEChem-02102213163D

 34 33  0     1  0  0  0  0  0999 V2000
   -3.8899   -3.6747    1.6490 H   0  0  0  0  0  0  0  0  0  0  0  0
   -3.9109   -2.6717    1.2250 C   0  0  0  0  0  0  0  0  0  0  0  0
   -4.6009   -2.0517    1.7950 H   0  0  0  0  0  0  0  0  0  0  0  0
   -4.2309   -2.7237    0.1860 H   0  0  0  0  0  0  0  0  0  0  0  0
   -2.5229   -2.0787    1.2980 C   0  0  0  0  0  0  0  0  0  0  0  0
   -1.5999   -2.7227    1.7810 O   0  0  0  0  0  0  0  0  0  0  0  0
   -2.3659   -0.8447    0.8120 N   0  0  0  0  0  0  0  0  0  0  0  0
   -3.1749   -0.3807    0.4220 H   0  0  0  0  0  0  0  0  0  0  0  0
   -1.0919   -0.1077    0.8170 C   0  0  1  0  0  0  0  0  0  0  0  0
   -0.4136   -0.6011    1.5155 H   0  0  0  0  0  0  0  0  0  0  0  0
   -0.4834   -0.1723   -0.5965 C   0  0  0  0  0  0  0  0  0  0  0  0
    0.4888   -0.6639   -0.5342 H   0  0  0  0  0  0  0  0  0  0  0  0
   -1.1290   -0.7755   -1.2378 H   0  0  0  0  0  0  0  0  0  0  0  0
   -0.2851    1.2108   -1.2354 C   0  0  0  0  0  0  0  0  0  0  0  0
   -1.1827    1.4925   -1.7874 H   0  0  0  0  0  0  0  0  0  0  0  0
   -0.1040    1.9469   -0.4498 H   0  0  0  0  0  0  0  0  0  0  0  0
    0.9112    1.1890   -2.1968 C   0  0  0  0  0  0  0  0  0  0  0  0
    1.8057    0.8920   -1.6441 H   0  0  0  0  0  0  0  0  0  0  0  0
    0.7210    0.4581   -2.9854 H   0  0  0  0  0  0  0  0  0  0  0  0
    1.1256    2.5755   -2.8166 C   0  0  0  0  0  0  0  0  0  0  0  0
    0.2170    2.8577   -3.3584 H   0  0  0  0  0  0  0  0  0  0  0  0
    1.2721    3.2986   -2.0085 H   0  0  0  0  0  0  0  0  0  0  0  0
    2.2930    2.5888   -3.7339 N   0  3  0  0  0  0  0  0  0  0  0  0
    2.1586    1.9290   -4.4899 H   0  0  0  0  0  0  0  0  0  0  0  0
    2.4209    3.5100   -4.1339 H   0  0  0  0  0  0  0  0  0  0  0  0
    3.1383    2.3368   -3.2351 H   0  0  0  0  0  0  0  0  0  0  0  0
   -1.3103    1.3348    1.2791 C   0  0  0  0  0  0  0  0  0  0  0  0
   -2.2333    1.9891    0.8084 O   0  0  0  0  0  0  0  0  0  0  0  0
   -0.4429    1.8293    2.1683 N   0  0  0  0  0  0  0  0  0  0  0  0
    0.2668    1.2118    2.5263 H   0  0  0  0  0  0  0  0  0  0  0  0
   -0.5118    3.1863    2.7135 C   0  0  0  0  0  0  0  0  0  0  0  0
   -1.4470    3.3159    3.2625 H   0  0  0  0  0  0  0  0  0  0  0  0
    0.3243    3.3682    3.3896 H   0  0  0  0  0  0  0  0  0  0  0  0
   -0.4850    3.9172    1.9023 H   0  0  0  0  0  0  0  0  0  0  0  0
  5  6  2  0  0  0  0
  5  7  1  0  0  0  0
  2  3  1  0  0  0  0
  2  4  1  0  0  0  0
  2  5  1  0  0  0  0
  1  2  1  0  0  0  0
 27 28  2  0  0  0  0
 27 29  1  0  0  0  0
 23 24  1  0  0  0  0
 23 25  1  0  0  0  0
 23 26  1  0  0  0  0
 20 21  1  0  0  0  0
 20 22  1  0  0  0  0
 20 23  1  0  0  0  0
 17 18  1  0  0  0  0
 17 19  1  0  0  0  0
 17 20  1  0  0  0  0
 14 15  1  0  0  0  0
 14 16  1  0  0  0  0
 14 17  1  0  0  0  0
 11 12  1  0  0  0  0
 11 13  1  0  0  0  0
 11 14  1  0  0  0  0
  9 10  1  0  0  0  0
  9 11  1  0  0  0  0
  9 27  1  0  0  0  0
  7  8  1  0  0  0  0
  7  9  1  0  0  0  0
 31 32  1  0  0  0  0
 31 33  1  0  0  0  0
 31 34  1  0  0  0  0
 29 30  1  0  0  0  0
 29 31  1  0  0  0  0
M  CHG  1  23   1
M  END
$$$$
default_name
  -OEChem-02102213163D

 34 33  0     1  0  0  0  0  0999 V2000
   -3.8899   -3.6747    1.6490 H   0  0  0  0  0  0  0  0  0  0  0  0
   -3.9109   -2.6717    1.2250 C   0  0  0  0  0  0  0  0  0  0  0  0
   -4.6009   -2.0517    1.7950 H   0  0  0  0  0  0  0  0  0  0  0  0
   -4.2309   -2.7237    0.1860 H   0  0  0  0  0  0  0  0  0  0  0  0
   -2.5229   -2.0787    1.2980 C   0  0  0  0  0  0  0  0  0  0  0  0
   -1.5999   -2.7227    1.7810 O   0  0  0  0  0  0  0  0  0  0  0  0
   -2.3659   -0.8447    0.8120 N   0  0  0  0  0  0  0  0  0  0  0  0
   -3.1749   -0.3807    0.4220 H   0  0  0  0  0  0  0  0  0  0  0  0
   -1.0919   -0.1077    0.8170 C   0  0  1  0  0  0  0  0  0  0  0  0
   -0.4136   -0.6011    1.5155 H   0  0  0  0  0  0  0  0  0  0  0  0
   -0.4834   -0.1723   -0.5965 C   0  0  0  0  0  0  0  0  0  0  0  0
    0.4888   -0.6639   -0.5342 H   0  0  0  0  0  0  0  0  0  0  0  0
   -1.1290   -0.7755   -1.2378 H   0  0  0  0  0  0  0  0  0  0  0  0
   -0.2851    1.2108   -1.2354 C   0  0  0  0  0  0  0  0  0  0  0  0
   -1.2489    1.6092   -1.5553 H   0  0  0  0  0  0  0  0  0  0  0  0
    0.1537    1.8872   -0.4993 H   0  0  0  0  0  0  0  0  0  0  0  0
    0.6464    1.1095   -2.4511 C   0  0  0  0  0  0  0  0  0  0  0  0
    1.6056    0.6961   -2.1301 H   0  0  0  0  0  0  0  0  0  0  0  0
    0.1988    0.4395   -3.1878 H   0  0  0  0  0  0  0  0  0  0  0  0
    0.8651    2.4934   -3.0751 C   0  0  0  0  0  0  0  0  0  0  0  0
   -0.1068    2.8930   -3.3825 H   0  0  0  0  0  0  0  0  0  0  0  0
    1.2742    3.1594   -2.3093 H   0  0  0  0  0  0  0  0  0  0  0  0
    1.7828    2.4280   -4.2405 N   0  3  0  0  0  0  0  0  0  0  0  0
    1.4045    1.8213   -4.9572 H   0  0  0  0  0  0  0  0  0  0  0  0
    1.9168    3.3484   -4.6402 H   0  0  0  0  0  0  0  0  0  0  0  0
    2.6869    2.0669   -3.9594 H   0  0  0  0  0  0  0  0  0  0  0  0
   -1.3103    1.3348    1.2791 C   0  0  0  0  0  0  0  0  0  0  0  0
   -2.2333    1.9891    0.8084 O   0  0  0  0  0  0  0  0  0  0  0  0
   -0.4429    1.8293    2.1683 N   0  0  0  0  0  0  0  0  0  0  0  0
    0.2668    1.2118    2.5263 H   0  0  0  0  0  0  0  0  0  0  0  0
   -0.5118    3.1863    2.7135 C   0  0  0  0  0  0  0  0  0  0  0  0
   -1.4470    3.3159    3.2625 H   0  0  0  0  0  0  0  0  0  0  0  0
    0.3243    3.3682    3.3896 H   0  0  0  0  0  0  0  0  0  0  0  0
   -0.4850    3.9172    1.9023 H   0  0  0  0  0  0  0  0  0  0  0  0
  5  6  2  0  0  0  0
  5  7  1  0  0  0  0
  2  3  1  0  0  0  0
  2  4  1  0  0  0  0
  2  5  1  0  0  0  0
  1  2  1  0  0  0  0
 27 28  2  0  0  0  0
 27 29  1  0  0  0  0
 23 24  1  0  0  0  0
 23 25  1  0  0  0  0
 23 26  1  0  0  0  0
 20 21  1  0  0  0  0
 20 22  1  0  0  0  0
 20 23  1  0  0  0  0
 17 18  1  0  0  0  0
 17 19  1  0  0  0  0
 17 20  1  0  0  0  0
 14 15  1  0  0  0  0
 14 16  1  0  0  0  0
 14 17  1  0  0  0  0
 11 12  1  0  0  0  0
 11 13  1  0  0  0  0
 11 14  1  0  0  0  0
  9 10  1  0  0  0  0
  9 11  1  0  0  0  0
  9 27  1  0  0  0  0
  7  8  1  0  0  0  0
  7  9  1  0  0  0  0
 31 32  1  0  0  0  0
 31 33  1  0  0  0  0
 31 34  1  0  0  0  0
 29 30  1  0  0  0  0
 29 31  1  0  0  0  0
M  CHG  1  23   1
M  END
$$$$
default_name
  -OEChem-02102213163D

 34 33  0     1  0  0  0  0  0999 V2000
   -3.8899   -3.6747    1.6490 H   0  0  0  0  0  0  0  0  0  0  0  0
   -3.9109   -2.6717    1.2250 C   0  0  0  0  0  0  0  0  0  0  0  0
   -4.6009   -2.0517    1.7950 H   0  0  0  0  0  0  0  0  0  0  0  0
   -4.2309   -2.7237    0.1860 H   0  0  0  0  0  0  0  0  0  0  0  0
   -2.5229   -2.0787    1.2980 C   0  0  0  0  0  0  0  0  0  0  0  0
   -1.5999   -2.7227    1.7810 O   0  0  0  0  0  0  0  0  0  0  0  0
   -2.3659   -0.8447    0.8120 N   0  0  0  0  0  0  0  0  0  0  0  0
   -3.1749   -0.3807    0.4220 H   0  0  0  0  0  0  0  0  0  0  0  0
   -1.0919   -0.1077    0.8170 C   0  0  1  0  0  0  0  0  0  0  0  0
   -0.4136   -0.6011    1.5155 H   0  0  0  0  0  0  0  0  0  0  0  0
   -0.4834   -0.1723   -0.5965 C   0  0  0  0  0  0  0  0  0  0  0  0
    0.3429   -0.8849   -0.5869 H   0  0  0  0  0  0  0  0  0  0  0  0
   -1.2384   -0.5365   -1.2959 H   0  0  0  0  0  0  0  0  0  0  0  0
    0.0517    1.1810   -1.0890 C   0  0  0  0  0  0  0  0  0  0  0  0
   -0.7588    1.9107   -1.1106 H   0  0  0  0  0  0  0  0  0  0  0  0
    0.8281    1.5308   -0.4057 H   0  0  0  0  0  0  0  0  0  0  0  0
    0.6413    1.0415   -2.4993 C   0  0  0  0  0  0  0  0  0  0  0  0
    1.4428    0.2992   -2.4773 H   0  0  0  0  0  0  0  0  0  0  0  0
   -0.1410    0.7006   -3.1802 H   0  0  0  0  0  0  0  0  0  0  0  0
    1.1984    2.3865   -2.9824 C   0  0  0  0  0  0  0  0  0  0  0  0
    0.3831    3.1172   -2.9899 H   0  0  0  0  0  0  0  0  0  0  0  0
    1.9494    2.7297   -2.2645 H   0  0  0  0  0  0  0  0  0  0  0  0
    1.7972    2.2747   -4.3364 N   0  3  0  0  0  0  0  0  0  0  0  0
    1.1041    1.9674   -5.0073 H   0  0  0  0  0  0  0  0  0  0  0  0
    2.1600    3.1696   -4.6402 H   0  0  0  0  0  0  0  0  0  0  0  0
    2.5583    1.6057   -4.3328 H   0  0  0  0  0  0  0  0  0  0  0  0
   -1.3103    1.3348    1.2791 C   0  0  0  0  0  0  0  0  0  0  0  0
   -2.2333    1.9891    0.8084 O   0  0  0  0  0  0  0  0  0  0  0  0
   -0.4429    1.8293    2.1683 N   0  0  0  0  0  0  0  0  0  0  0  0
    0.2668    1.2118    2.5263 H   0  0  0  0  0  0  0  0  0  0  0  0
   -0.5118    3.1863    2.7135 C   0  0  0  0  0  0  0  0  0  0  0  0
   -1.4470    3.3159    3.2625 H   0  0  0  0  0  0  0  0  0  0  0  0
    0.3243    3.3682    3.3896 H   0  0  0  0  0  0  0  0  0  0  0  0
   -0.4850    3.9172    1.9023 H   0  0  0  0  0  0  0  0  0  0  0  0
  5  6  2  0  0  0  0
  5  7  1  0  0  0  0
  2  3  1  0  0  0  0
  2  4  1  0  0  0  0
  2  5  1  0  0  0  0
  1  2  1  0  0  0  0
 27 28  2  0  0  0  0
 27 29  1  0  0  0  0
 23 24  1  0  0  0  0
 23 25  1  0  0  0  0
 23 26  1  0  0  0  0
 20 21  1  0  0  0  0
 20 22  1  0  0  0  0
 20 23  1  0  0  0  0
 17 18  1  0  0  0  0
 17 19  1  0  0  0  0
 17 20  1  0  0  0  0
 14 15  1  0  0  0  0
 14 16  1  0  0  0  0
 14 17  1  0  0  0  0
 11 12  1  0  0  0  0
 11 13  1  0  0  0  0
 11 14  1  0  0  0  0
  9 10  1  0  0  0  0
  9 11  1  0  0  0  0
  9 27  1  0  0  0  0
  7  8  1  0  0  0  0
  7  9  1  0  0  0  0
 31 32  1  0  0  0  0
 31 33  1  0  0  0  0
 31 34  1  0  0  0  0
 29 30  1  0  0  0  0
 29 31  1  0  0  0  0
M  CHG  1  23   1
M  END
$$$$
default_name
  -OEChem-02102213163D

 34 33  0     1  0  0  0  0  0999 V2000
   -3.8899   -3.6747    1.6490 H   0  0  0  0  0  0  0  0  0  0  0  0
   -3.9109   -2.6717    1.2250 C   0  0  0  0  0  0  0  0  0  0  0  0
   -4.6009   -2.0517    1.7950 H   0  0  0  0  0  0  0  0  0  0  0  0
   -4.2309   -2.7237    0.1860 H   0  0  0  0  0  0  0  0  0  0  0  0
   -2.5229   -2.0787    1.2980 C   0  0  0  0  0  0  0  0  0  0  0  0
   -1.5999   -2.7227    1.7810 O   0  0  0  0  0  0  0  0  0  0  0  0
   -2.3659   -0.8447    0.8120 N   0  0  0  0  0  0  0  0  0  0  0  0
   -3.1749   -0.3807    0.4220 H   0  0  0  0  0  0  0  0  0  0  0  0
   -1.0919   -0.1077    0.8170 C   0  0  1  0  0  0  0  0  0  0  0  0
   -0.4136   -0.6011    1.5155 H   0  0  0  0  0  0  0  0  0  0  0  0
   -0.4834   -0.1723   -0.5965 C   0  0  0  0  0  0  0  0  0  0  0  0
    0.3429   -0.8849   -0.5869 H   0  0  0  0  0  0  0  0  0  0  0  0
   -1.2384   -0.5365   -1.2959 H   0  0  0  0  0  0  0  0  0  0  0  0
    0.0517    1.1810   -1.0890 C   0  0  0  0  0  0  0  0  0  0  0  0
   -0.6712    1.9661   -0.8633 H   0  0  0  0  0  0  0  0  0  0  0  0
    0.9907    1.4036   -0.5784 H   0  0  0  0  0  0  0  0  0  0  0  0
    0.2945    1.1406   -2.6040 C   0  0  0  0  0  0  0  0  0  0  0  0
    1.0075    0.3436   -2.8283 H   0  0  0  0  0  0  0  0  0  0  0  0
   -0.6490    0.9269   -3.1103 H   0  0  0  0  0  0  0  0  0  0  0  0
    0.8522    2.4830   -3.0932 C   0  0  0  0  0  0  0  0  0  0  0  0
    0.1279    3.2681   -2.8526 H   0  0  0  0  0  0  0  0  0  0  0  0
    1.7738    2.6976   -2.5438 H   0  0  0  0  0  0  0  0  0  0  0  0
    1.1190    2.4637   -4.5536 N   0  3  0  0  0  0  0  0  0  0  0  0
    0.2676    2.2760   -5.0681 H   0  0  0  0  0  0  0  0  0  0  0  0
    1.4865    3.3559   -4.8602 H   0  0  0  0  0  0  0  0  0  0  0  0
    1.7957    1.7444   -4.7805 H   0  0  0  0  0  0  0  0  0  0  0  0
   -1.3103    1.3348    1.2791 C   0  0  0  0  0  0  0  0  0  0  0  0
   -2.2333    1.9891    0.8084 O   0  0  0  0  0  0  0  0  0  0  0  0
   -0.4429    1.8293    2.1683 N   0  0  0  0  0  0  0  0  0  0  0  0
    0.2668    1.2118    2.5263 H   0  0  0  0  0  0  0  0  0  0  0  0
   -0.5118    3.1863    2.7135 C   0  0  0  0  0  0  0  0  0  0  0  0
   -1.4470    3.3159    3.2625 H   0  0  0  0  0  0  0  0  0  0  0  0
    0.3243    3.3682    3.3896 H   0  0  0  0  0  0  0  0  0  0  0  0
   -0.4850    3.9172    1.9023 H   0  0  0  0  0  0  0  0  0  0  0  0
  5  6  2  0  0  0  0
  5  7  1  0  0  0  0
  2  3  1  0  0  0  0
  2  4  1  0  0  0  0
  2  5  1  0  0  0  0
  1  2  1  0  0  0  0
 27 28  2  0  0  0  0
 27 29  1  0  0  0  0
 23 24  1  0  0  0  0
 23 25  1  0  0  0  0
 23 26  1  0  0  0  0
 20 21  1  0  0  0  0
 20 22  1  0  0  0  0
 20 23  1  0  0  0  0
 17 18  1  0  0  0  0
 17 19  1  0  0  0  0
 17 20  1  0  0  0  0
 14 15  1  0  0  0  0
 14 16  1  0  0  0  0
 14 17  1  0  0  0  0
 11 12  1  0  0  0  0
 11 13  1  0  0  0  0
 11 14  1  0  0  0  0
  9 10  1  0  0  0  0
  9 11  1  0  0  0  0
  9 27  1  0  0  0  0
  7  8  1  0  0  0  0
  7  9  1  0  0  0  0
 31 32  1  0  0  0  0
 31 33  1  0  0  0  0
 31 34  1  0  0  0  0
 29 30  1  0  0  0  0
 29 31  1  0  0  0  0
M  CHG  1  23   1
M  END
$$$$
default_name
  -OEChem-02102213163D

 34 33  0     1  0  0  0  0  0999 V2000
   -3.8899   -3.6747    1.6490 H   0  0  0  0  0  0  0  0  0  0  0  0
   -3.9109   -2.6717    1.2250 C   0  0  0  0  0  0  0  0  0  0  0  0
   -4.6009   -2.0517    1.7950 H   0  0  0  0  0  0  0  0  0  0  0  0
   -4.2309   -2.7237    0.1860 H   0  0  0  0  0  0  0  0  0  0  0  0
   -2.5229   -2.0787    1.2980 C   0  0  0  0  0  0  0  0  0  0  0  0
   -1.5999   -2.7227    1.7810 O   0  0  0  0  0  0  0  0  0  0  0  0
   -2.3659   -0.8447    0.8120 N   0  0  0  0  0  0  0  0  0  0  0  0
   -3.1749   -0.3807    0.4220 H   0  0  0  0  0  0  0  0  0  0  0  0
   -1.0919   -0.1077    0.8170 C   0  0  1  0  0  0  0  0  0  0  0  0
   -0.4136   -0.6011    1.5155 H   0  0  0  0  0  0  0  0  0  0  0  0
   -0.4834   -0.1723   -0.5965 C   0  0  0  0  0  0  0  0  0  0  0  0
    0.3429   -0.8849   -0.5869 H   0  0  0  0  0  0  0  0  0  0  0  0
   -1.2384   -0.5365   -1.2959 H   0  0  0  0  0  0  0  0  0  0  0  0
    0.0517    1.1810   -1.0890 C   0  0  0  0  0  0  0  0  0  0  0  0
   -0.5257    1.9900   -0.6394 H   0  0  0  0  0  0  0  0  0  0  0  0
    1.0978    1.2829   -0.7937 H   0  0  0  0  0  0  0  0  0  0  0  0
   -0.0562    1.2744   -2.6173 C   0  0  0  0  0  0  0  0  0  0  0  0
    0.5107    0.4542   -3.0641 H   0  0  0  0  0  0  0  0  0  0  0  0
   -1.1049    1.1813   -2.9065 H   0  0  0  0  0  0  0  0  0  0  0  0
    0.5005    2.6150   -3.1126 C   0  0  0  0  0  0  0  0  0  0  0  0
   -0.0748    3.4226   -2.6483 H   0  0  0  0  0  0  0  0  0  0  0  0
    1.5377    2.7063   -2.7763 H   0  0  0  0  0  0  0  0  0  0  0  0
    0.4302    2.7222   -4.5918 N   0  3  0  0  0  0  0  0  0  0  0  0
   -0.5286    2.6490   -4.9084 H   0  0  0  0  0  0  0  0  0  0  0  0
    0.8013    3.6115   -4.9023 H   0  0  0  0  0  0  0  0  0  0  0  0
    0.9686    1.9819   -5.0265 H   0  0  0  0  0  0  0  0  0  0  0  0
   -1.3103    1.3348    1.2791 C   0  0  0  0  0  0  0  0  0  0  0  0
   -2.2333    1.9891    0.8084 O   0  0  0  0  0  0  0  0  0  0  0  0
   -0.4429    1.8293    2.1683 N   0  0  0  0  0  0  0  0  0  0  0  0
    0.2668    1.2118    2.5263 H   0  0  0  0  0  0  0  0  0  0  0  0
   -0.5118    3.1863    2.7135 C   0  0  0  0  0  0  0  0  0  0  0  0
   -1.4470    3.3159    3.2625 H   0  0  0  0  0  0  0  0  0  0  0  0
    0.3243    3.3682    3.3896 H   0  0  0  0  0  0  0  0  0  0  0  0
   -0.4850    3.9172    1.9023 H   0  0  0  0  0  0  0  0  0  0  0  0
  5  6  2  0  0  0  0
  5  7  1  0  0  0  0
  2  3  1  0  0  0  0
  2  4  1  0  0  0  0
  2  5  1  0  0  0  0
  1  2  1  0  0  0  0
 27 28  2  0  0  0  0
 27 29  1  0  0  0  0
 23 24  1  0  0  0  0
 23 25  1  0  0  0  0
 23 26  1  0  0  0  0
 20 21  1  0  0  0  0
 20 22  1  0  0  0  0
 20 23  1  0  0  0  0
 17 18  1  0  0  0  0
 17 19  1  0  0  0  0
 17 20  1  0  0  0  0
 14 15  1  0  0  0  0
 14 16  1  0  0  0  0
 14 17  1  0  0  0  0
 11 12  1  0  0  0  0
 11 13  1  0  0  0  0
 11 14  1  0  0  0  0
  9 10  1  0  0  0  0
  9 11  1  0  0  0  0
  9 27  1  0  0  0  0
  7  8  1  0  0  0  0
  7  9  1  0  0  0  0
 31 32  1  0  0  0  0
 31 33  1  0  0  0  0
 31 34  1  0  0  0  0
 29 30  1  0  0  0  0
 29 31  1  0  0  0  0
M  CHG  1  23   1
M  END
$$$$
default_name
  -OEChem-02102213163D

 34 33  0     1  0  0  0  0  0999 V2000
   -3.8899   -3.6747    1.6490 H   0  0  0  0  0  0  0  0  0  0  0  0
   -3.9109   -2.6717    1.2250 C   0  0  0  0  0  0  0  0  0  0  0  0
   -4.6009   -2.0517    1.7950 H   0  0  0  0  0  0  0  0  0  0  0  0
   -4.2309   -2.7237    0.1860 H   0  0  0  0  0  0  0  0  0  0  0  0
   -2.5229   -2.0787    1.2980 C   0  0  0  0  0  0  0  0  0  0  0  0
   -1.5999   -2.7227    1.7810 O   0  0  0  0  0  0  0  0  0  0  0  0
   -2.3659   -0.8447    0.8120 N   0  0  0  0  0  0  0  0  0  0  0  0
   -3.1749   -0.3807    0.4220 H   0  0  0  0  0  0  0  0  0  0  0  0
   -1.0919   -0.1077    0.8170 C   0  0  1  0  0  0  0  0  0  0  0  0
   -0.4136   -0.6011    1.5155 H   0  0  0  0  0  0  0  0  0  0  0  0
   -0.4834   -0.1723   -0.5965 C   0  0  0  0  0  0  0  0  0  0  0  0
    0.3429   -0.8849   -0.5869 H   0  0  0  0  0  0  0  0  0  0  0  0
   -1.2384   -0.5365   -1.2959 H   0  0  0  0  0  0  0  0  0  0  0  0
    0.0517    1.1810   -1.0890 C   0  0  0  0  0  0  0  0  0  0  0  0
   -0.3320    1.9808   -0.4542 H   0  0  0  0  0  0  0  0  0  0  0  0
    1.1422    1.1768   -1.0370 H   0  0  0  0  0  0  0  0  0  0  0  0
   -0.3869    1.4340   -2.5380 C   0  0  0  0  0  0  0  0  0  0  0  0
   -0.0137    0.6235   -3.1686 H   0  0  0  0  0  0  0  0  0  0  0  0
   -1.4777    1.4464   -2.5828 H   0  0  0  0  0  0  0  0  0  0  0  0
    0.1674    2.7734   -3.0393 C   0  0  0  0  0  0  0  0  0  0  0  0
   -0.2112    3.5702   -2.3908 H   0  0  0  0  0  0  0  0  0  0  0  0
    1.2574    2.7552   -2.9464 H   0  0  0  0  0  0  0  0  0  0  0  0
   -0.2225    3.0324   -4.4484 N   0  3  0  0  0  0  0  0  0  0  0  0
   -1.2304    3.0609   -4.5389 H   0  0  0  0  0  0  0  0  0  0  0  0
    0.1510    3.9190   -4.7638 H   0  0  0  0  0  0  0  0  0  0  0  0
    0.1332    2.3021   -5.0541 H   0  0  0  0  0  0  0  0  0  0  0  0
   -1.3103    1.3348    1.2791 C   0  0  0  0  0  0  0  0  0  0  0  0
   -2.2333    1.9891    0.8084 O   0  0  0  0  0  0  0  0  0  0  0  0
   -0.4429    1.8293    2.1683 N   0  0  0  0  0  0  0  0  0  0  0  0
    0.2668    1.2118    2.5263 H   0  0  0  0  0  0  0  0  0  0  0  0
   -0.5118    3.1863    2.7135 C   0  0  0  0  0  0  0  0  0  0  0  0
   -1.4470    3.3159    3.2625 H   0  0  0  0  0  0  0  0  0  0  0  0
    0.3243    3.3682    3.3896 H   0  0  0  0  0  0  0  0  0  0  0  0
   -0.4850    3.9172    1.9023 H   0  0  0  0  0  0  0  0  0  0  0  0
  5  6  2  0  0  0  0
  5  7  1  0  0  0  0
  2  3  1  0  0  0  0
  2  4  1  0  0  0  0
  2  5  1  0  0  0  0
  1  2  1  0  0  0  0
 27 28  2  0  0  0  0
 27 29  1  0  0  0  0
 23 24  1  0  0  0  0
 23 25  1  0  0  0  0
 23 26  1  0  0  0  0
 20 21  1  0  0  0  0
 20 22  1  0  0  0  0
 20 23  1  0  0  0  0
 17 18  1  0  0  0  0
 17 19  1  0  0  0  0
 17 20  1  0  0  0  0
 14 15  1  0  0  0  0
 14 16  1  0  0  0  0
 14 17  1  0  0  0  0
 11 12  1  0  0  0  0
 11 13  1  0  0  0  0
 11 14  1  0  0  0  0
  9 10  1  0  0  0  0
  9 11  1  0  0  0  0
  9 27  1  0  0  0  0
  7  8  1  0  0  0  0
  7  9  1  0  0  0  0
 31 32  1  0  0  0  0
 31 33  1  0  0  0  0
 31 34  1  0  0  0  0
 29 30  1  0  0  0  0
 29 31  1  0  0  0  0
M  CHG  1  23   1
M  END
$$$$
default_name
  -OEChem-02102213163D

 34 33  0     1  0  0  0  0  0999 V2000
   -3.8899   -3.6747    1.6490 H   0  0  0  0  0  0  0  0  0  0  0  0
   -3.9109   -2.6717    1.2250 C   0  0  0  0  0  0  0  0  0  0  0  0
   -4.6009   -2.0517    1.7950 H   0  0  0  0  0  0  0  0  0  0  0  0
   -4.2309   -2.7237    0.1860 H   0  0  0  0  0  0  0  0  0  0  0  0
   -2.5229   -2.0787    1.2980 C   0  0  0  0  0  0  0  0  0  0  0  0
   -1.5999   -2.7227    1.7810 O   0  0  0  0  0  0  0  0  0  0  0  0
   -2.3659   -0.8447    0.8120 N   0  0  0  0  0  0  0  0  0  0  0  0
   -3.1749   -0.3807    0.4220 H   0  0  0  0  0  0  0  0  0  0  0  0
   -1.0919   -0.1077    0.8170 C   0  0  1  0  0  0  0  0  0  0  0  0
   -0.4136   -0.6011    1.5155 H   0  0  0  0  0  0  0  0  0  0  0  0
   -0.4834   -0.1723   -0.5965 C   0  0  0  0  0  0  0  0  0  0  0  0
    0.3429   -0.8849   -0.5869 H   0  0  0  0  0  0  0  0  0  0  0  0
   -1.2384   -0.5365   -1.2959 H   0  0  0  0  0  0  0  0  0  0  0  0
    0.0517    1.1810   -1.0890 C   0  0  0  0  0  0  0  0  0  0  0  0
   -0.1035    1.9392   -0.3202 H   0  0  0  0  0  0  0  0  0  0  0  0
    1.1208    1.0926   -1.2917 H   0  0  0  0  0  0  0  0  0  0  0  0
   -0.6750    1.6084   -2.3717 C   0  0  0  0  0  0  0  0  0  0  0  0
   -0.5301    0.8400   -3.1348 H   0  0  0  0  0  0  0  0  0  0  0  0
   -1.7420    1.7044   -2.1613 H   0  0  0  0  0  0  0  0  0  0  0  0
   -0.1246    2.9474   -2.8783 C   0  0  0  0  0  0  0  0  0  0  0  0
   -0.2720    3.7009   -2.0977 H   0  0  0  0  0  0  0  0  0  0  0  0
    0.9520    2.8411   -3.0423 H   0  0  0  0  0  0  0  0  0  0  0  0
   -0.7944    3.3733   -4.1330 N   0  3  0  0  0  0  0  0  0  0  0  0
   -1.7898    3.4837   -3.9849 H   0  0  0  0  0  0  0  0  0  0  0  0
   -0.4201    4.2575   -4.4540 H   0  0  0  0  0  0  0  0  0  0  0  0
   -0.6535    2.6832   -4.8615 H   0  0  0  0  0  0  0  0  0  0  0  0
   -1.3103    1.3348    1.2791 C   0  0  0  0  0  0  0  0  0  0  0  0
   -2.2333    1.9891    0.8084 O   0  0  0  0  0  0  0  0  0  0  0  0
   -0.4429    1.8293    2.1683 N   0  0  0  0  0  0  0  0  0  0  0  0
    0.2668    1.2118    2.5263 H   0  0  0  0  0  0  0  0  0  0  0  0
   -0.5118    3.1863    2.7135 C   0  0  0  0  0  0  0  0  0  0  0  0
   -1.4470    3.3159    3.2625 H   0  0  0  0  0  0  0  0  0  0  0  0
    0.3243    3.3682    3.3896 H   0  0  0  0  0  0  0  0  0  0  0  0
   -0.4850    3.9172    1.9023 H   0  0  0  0  0  0  0  0  0  0  0  0
  5  6  2  0  0  0  0
  5  7  1  0  0  0  0
  2  3  1  0  0  0  0
  2  4  1  0  0  0  0
  2  5  1  0  0  0  0
  1  2  1  0  0  0  0
 27 28  2  0  0  0  0
 27 29  1  0  0  0  0
 23 24  1  0  0  0  0
 23 25  1  0  0  0  0
 23 26  1  0  0  0  0
 20 21  1  0  0  0  0
 20 22  1  0  0  0  0
 20 23  1  0  0  0  0
 17 18  1  0  0  0  0
 17 19  1  0  0  0  0
 17 20  1  0  0  0  0
 14 15  1  0  0  0  0
 14 16  1  0  0  0  0
 14 17  1  0  0  0  0
 11 12  1  0  0  0  0
 11 13  1  0  0  0  0
 11 14  1  0  0  0  0
  9 10  1  0  0  0  0
  9 11  1  0  0  0  0
  9 27  1  0  0  0  0
  7  8  1  0  0  0  0
  7  9  1  0  0  0  0
 31 32  1  0  0  0  0
 31 33  1  0  0  0  0
 31 34  1  0  0  0  0
 29 30  1  0  0  0  0
 29 31  1  0  0  0  0
M  CHG  1  23   1
M  END
$$$$
default_name
  -OEChem-02102213163D

 34 33  0     1  0  0  0  0  0999 V2000
   -3.8899   -3.6747    1.6490 H   0  0  0  0  0  0  0  0  0  0  0  0
   -3.9109   -2.6717    1.2250 C   0  0  0  0  0  0  0  0  0  0  0  0
   -4.6009   -2.0517    1.7950 H   0  0  0  0  0  0  0  0  0  0  0  0
   -4.2309   -2.7237    0.1860 H   0  0  0  0  0  0  0  0  0  0  0  0
   -2.5229   -2.0787    1.2980 C   0  0  0  0  0  0  0  0  0  0  0  0
   -1.5999   -2.7227    1.7810 O   0  0  0  0  0  0  0  0  0  0  0  0
   -2.3659   -0.8447    0.8120 N   0  0  0  0  0  0  0  0  0  0  0  0
   -3.1749   -0.3807    0.4220 H   0  0  0  0  0  0  0  0  0  0  0  0
   -1.0919   -0.1077    0.8170 C   0  0  1  0  0  0  0  0  0  0  0  0
   -0.4136   -0.6011    1.5155 H   0  0  0  0  0  0  0  0  0  0  0  0
   -0.4834   -0.1723   -0.5965 C   0  0  0  0  0  0  0  0  0  0  0  0
    0.3429   -0.8849   -0.5869 H   0  0  0  0  0  0  0  0  0  0  0  0
   -1.2384   -0.5365   -1.2959 H   0  0  0  0  0  0  0  0  0  0  0  0
    0.0517    1.1810   -1.0890 C   0  0  0  0  0  0  0  0  0  0  0  0
    0.1443    1.8680   -0.2467 H   0  0  0  0  0  0  0  0  0  0  0  0
    1.0351    1.0360   -1.5404 H   0  0  0  0  0  0  0  0  0  0  0  0
   -0.9008    1.7858   -2.1296 C   0  0  0  0  0  0  0  0  0  0  0  0
   -1.0031    1.0889   -2.9648 H   0  0  0  0  0  0  0  0  0  0  0  0
   -1.8798    1.9374   -1.6706 H   0  0  0  0  0  0  0  0  0  0  0  0
   -0.3554    3.1252   -2.6405 C   0  0  0  0  0  0  0  0  0  0  0  0
   -0.2531    3.8058   -1.7889 H   0  0  0  0  0  0  0  0  0  0  0  0
    0.6422    2.9580   -3.0576 H   0  0  0  0  0  0  0  0  0  0  0  0
   -1.2467    3.7216   -3.6673 N   0  3  0  0  0  0  0  0  0  0  0  0
   -2.1687    3.8885   -3.2841 H   0  0  0  0  0  0  0  0  0  0  0  0
   -0.8729    4.6039   -3.9940 H   0  0  0  0  0  0  0  0  0  0  0  0
   -1.3378    3.0992   -4.4618 H   0  0  0  0  0  0  0  0  0  0  0  0
   -1.3103    1.3348    1.2791 C   0  0  0  0  0  0  0  0  0  0  0  0
   -2.2333    1.9891    0.8084 O   0  0  0  0  0  0  0  0  0  0  0  0
   -0.4429    1.8293    2.1683 N   0  0  0  0  0  0  0  0  0  0  0  0
    0.2668    1.2118    2.5263 H   0  0  0  0  0  0  0  0  0  0  0  0
   -0.5118    3.1863    2.7135 C   0  0  0  0  0  0  0  0  0  0  0  0
   -1.4470    3.3159    3.2625 H   0  0  0  0  0  0  0  0  0  0  0  0
    0.3243    3.3682    3.3896 H   0  0  0  0  0  0  0  0  0  0  0  0
   -0.4850    3.9172    1.9023 H   0  0  0  0  0  0  0  0  0  0  0  0
  5  6  2  0  0  0  0
  5  7  1  0  0  0  0
  2  3  1  0  0  0  0
  2  4  1  0  0  0  0
  2  5  1  0  0  0  0
  1  2  1  0  0  0  0
 27 28  2  0  0  0  0
 27 29  1  0  0  0  0
 23 24  1  0  0  0  0
 23 25  1  0  0  0  0
 23 26  1  0  0  0  0
 20 21  1  0  0  0  0
 20 22  1  0  0  0  0
 20 23  1  0  0  0  0
 17 18  1  0  0  0  0
 17 19  1  0  0  0  0
 17 20  1  0  0  0  0
 14 15  1  0  0  0  0
 14 16  1  0  0  0  0
 14 17  1  0  0  0  0
 11 12  1  0  0  0  0
 11 13  1  0  0  0  0
 11 14  1  0  0  0  0
  9 10  1  0  0  0  0
  9 11  1  0  0  0  0
  9 27  1  0  0  0  0
  7  8  1  0  0  0  0
  7  9  1  0  0  0  0
 31 32  1  0  0  0  0
 31 33  1  0  0  0  0
 31 34  1  0  0  0  0
 29 30  1  0  0  0  0
 29 31  1  0  0  0  0
M  CHG  1  23   1
M  END
$$$$
default_name
  -OEChem-02102213163D

 34 33  0     1  0  0  0  0  0999 V2000
   -3.8899   -3.6747    1.6490 H   0  0  0  0  0  0  0  0  0  0  0  0
   -3.9109   -2.6717    1.2250 C   0  0  0  0  0  0  0  0  0  0  0  0
   -4.6009   -2.0517    1.7950 H   0  0  0  0  0  0  0  0  0  0  0  0
   -4.2309   -2.7237    0.1860 H   0  0  0  0  0  0  0  0  0  0  0  0
   -2.5229   -2.0787    1.2980 C   0  0  0  0  0  0  0  0  0  0  0  0
   -1.5999   -2.7227    1.7810 O   0  0  0  0  0  0  0  0  0  0  0  0
   -2.3659   -0.8447    0.8120 N   0  0  0  0  0  0  0  0  0  0  0  0
   -3.1749   -0.3807    0.4220 H   0  0  0  0  0  0  0  0  0  0  0  0
   -1.0919   -0.1077    0.8170 C   0  0  1  0  0  0  0  0  0  0  0  0
   -0.4136   -0.6011    1.5155 H   0  0  0  0  0  0  0  0  0  0  0  0
   -0.4834   -0.1723   -0.5965 C   0  0  0  0  0  0  0  0  0  0  0  0
    0.3429   -0.8849   -0.5869 H   0  0  0  0  0  0  0  0  0  0  0  0
   -1.2384   -0.5365   -1.2959 H   0  0  0  0  0  0  0  0  0  0  0  0
    0.0517    1.1810   -1.0890 C   0  0  0  0  0  0  0  0  0  0  0  0
    0.3945    1.7720   -0.2386 H   0  0  0  0  0  0  0  0  0  0  0  0
    0.8909    1.0108   -1.7662 H   0  0  0  0  0  0  0  0  0  0  0  0
   -1.0491    1.9541   -1.8283 C   0  0  0  0  0  0  0  0  0  0  0  0
   -1.4007    1.3532   -2.6704 H   0  0  0  0  0  0  0  0  0  0  0  0
   -1.8817    2.1297   -1.1442 H   0  0  0  0  0  0  0  0  0  0  0  0
   -0.5094    3.2947   -2.3421 C   0  0  0  0  0  0  0  0  0  0  0  0
   -0.1557    3.8777   -1.4855 H   0  0  0  0  0  0  0  0  0  0  0  0
    0.3492    3.0980   -2.9912 H   0  0  0  0  0  0  0  0  0  0  0  0
   -1.5485    4.0536   -3.0829 N   0  3  0  0  0  0  0  0  0  0  0  0
   -2.3414    4.2478   -2.4843 H   0  0  0  0  0  0  0  0  0  0  0  0
   -1.1767    4.9347   -3.4153 H   0  0  0  0  0  0  0  0  0  0  0  0
   -1.8731    3.5218   -3.8821 H   0  0  0  0  0  0  0  0  0  0  0  0
   -1.3103    1.3348    1.2791 C   0  0  0  0  0  0  0  0  0  0  0  0
   -2.2333    1.9891    0.8084 O   0  0  0  0  0  0  0  0  0  0  0  0
   -0.4429    1.8293    2.1683 N   0  0  0  0  0  0  0  0  0  0  0  0
    0.2668    1.2118    2.5263 H   0  0  0  0  0  0  0  0  0  0  0  0
   -0.5118    3.1863    2.7135 C   0  0  0  0  0  0  0  0  0  0  0  0
   -1.4470    3.3159    3.2625 H   0  0  0  0  0  0  0  0  0  0  0  0
    0.3243    3.3682    3.3896 H   0  0  0  0  0  0  0  0  0  0  0  0
   -0.4850    3.9172    1.9023 H   0  0  0  0  0  0  0  0  0  0  0  0
  5  6  2  0  0  0  0
  5  7  1  0  0  0  0
  2  3  1  0  0  0  0
  2  4  1  0  0  0  0
  2  5  1  0  0  0  0
  1  2  1  0  0  0  0
 27 28  2  0  0  0  0
 27 29  1  0  0  0  0
 23 24  1  0  0  0  0
 23 25  1  0  0  0  0
 23 26  1  0  0  0  0
 20 21  1  0  0  0  0
 20 22  1  0  0  0  0
 20 23  1  0  0  0  0
 17 18  1  0  0  0  0
 17 19  1  0  0  0  0
 17 20  1  0  0  0  0
 14 15  1  0  0  0  0
 14 16  1  0  0  0  0
 14 17  1  0  0  0  0
 11 12  1  0  0  0  0
 11 13  1  0  0  0  0
 11 14  1  0  0  0  0
  9 10  1  0  0  0  0
  9 11  1  0  0  0  0
  9 27  1  0  0  0  0
  7  8  1  0  0  0  0
  7  9  1  0  0  0  0
 31 32  1  0  0  0  0
 31 33  1  0  0  0  0
 31 34  1  0  0  0  0
 29 30  1  0  0  0  0
 29 31  1  0  0  0  0
M  CHG  1  23   1
M  END
$$$$
default_name
  -OEChem-02102213163D

 34 33  0     1  0  0  0  0  0999 V2000
   -3.8899   -3.6747    1.6490 H   0  0  0  0  0  0  0  0  0  0  0  0
   -3.9109   -2.6717    1.2250 C   0  0  0  0  0  0  0  0  0  0  0  0
   -4.6009   -2.0517    1.7950 H   0  0  0  0  0  0  0  0  0  0  0  0
   -4.2309   -2.7237    0.1860 H   0  0  0  0  0  0  0  0  0  0  0  0
   -2.5229   -2.0787    1.2980 C   0  0  0  0  0  0  0  0  0  0  0  0
   -1.5999   -2.7227    1.7810 O   0  0  0  0  0  0  0  0  0  0  0  0
   -2.3659   -0.8447    0.8120 N   0  0  0  0  0  0  0  0  0  0  0  0
   -3.1749   -0.3807    0.4220 H   0  0  0  0  0  0  0  0  0  0  0  0
   -1.0919   -0.1077    0.8170 C   0  0  1  0  0  0  0  0  0  0  0  0
   -0.4136   -0.6011    1.5155 H   0  0  0  0  0  0  0  0  0  0  0  0
   -0.4834   -0.1723   -0.5965 C   0  0  0  0  0  0  0  0  0  0  0  0
    0.3429   -0.8849   -0.5869 H   0  0  0  0  0  0  0  0  0  0  0  0
   -1.2384   -0.5365   -1.2959 H   0  0  0  0  0  0  0  0  0  0  0  0
    0.0517    1.1810   -1.0890 C   0  0  0  0  0  0  0  0  0  0  0  0
    0.6301    1.6578   -0.2965 H   0  0  0  0  0  0  0  0  0  0  0  0
    0.6980    1.0188   -1.9538 H   0  0  0  0  0  0  0  0  0  0  0  0
   -1.1097    2.1018   -1.4883 C   0  0  0  0  0  0  0  0  0  0  0  0
   -1.6957    1.6150   -2.2715 H   0  0  0  0  0  0  0  0  0  0  0  0
   -1.7476    2.2682   -0.6179 H   0  0  0  0  0  0  0  0  0  0  0  0
   -0.5761    3.4443   -2.0035 C   0  0  0  0  0  0  0  0  0  0  0  0
    0.0136    3.9117   -1.2082 H   0  0  0  0  0  0  0  0  0  0  0  0
    0.0929    3.2516   -2.8476 H   0  0  0  0  0  0  0  0  0  0  0  0
   -1.6793    4.3466   -2.4197 N   0  3  0  0  0  0  0  0  0  0  0  0
   -2.2961    4.5371   -1.6399 H   0  0  0  0  0  0  0  0  0  0  0  0
   -1.3108    5.2272   -2.7572 H   0  0  0  0  0  0  0  0  0  0  0  0
   -2.2230    3.9222   -3.1621 H   0  0  0  0  0  0  0  0  0  0  0  0
   -1.3103    1.3348    1.2791 C   0  0  0  0  0  0  0  0  0  0  0  0
   -2.2333    1.9891    0.8084 O   0  0  0  0  0  0  0  0  0  0  0  0
   -0.4429    1.8293    2.1683 N   0  0  0  0  0  0  0  0  0  0  0  0
    0.2668    1.2118    2.5263 H   0  0  0  0  0  0  0  0  0  0  0  0
   -0.5118    3.1863    2.7135 C   0  0  0  0  0  0  0  0  0  0  0  0
   -1.4470    3.3159    3.2625 H   0  0  0  0  0  0  0  0  0  0  0  0
    0.3243    3.3682    3.3896 H   0  0  0  0  0  0  0  0  0  0  0  0
   -0.4850    3.9172    1.9023 H   0  0  0  0  0  0  0  0  0  0  0  0
  5  6  2  0  0  0  0
  5  7  1  0  0  0  0
  2  3  1  0  0  0  0
  2  4  1  0  0  0  0
  2  5  1  0  0  0  0
  1  2  1  0  0  0  0
 27 28  2  0  0  0  0
 27 29  1  0  0  0  0
 23 24  1  0  0  0  0
 23 25  1  0  0  0  0
 23 26  1  0  0  0  0
 20 21  1  0  0  0  0
 20 22  1  0  0  0  0
 20 23  1  0  0  0  0
 17 18  1  0  0  0  0
 17 19  1  0  0  0  0
 17 20  1  0  0  0  0
 14 15  1  0  0  0  0
 14 16  1  0  0  0  0
 14 17  1  0  0  0  0
 11 12  1  0  0  0  0
 11 13  1  0  0  0  0
 11 14  1  0  0  0  0
  9 10  1  0  0  0  0
  9 11  1  0  0  0  0
  9 27  1  0  0  0  0
  7  8  1  0  0  0  0
  7  9  1  0  0  0  0
 31 32  1  0  0  0  0
 31 33  1  0  0  0  0
 31 34  1  0  0  0  0
 29 30  1  0  0  0  0
 29 31  1  0  0  0  0
M  CHG  1  23   1
M  END
$$$$
default_name
  -OEChem-02102213163D

 34 33  0     1  0  0  0  0  0999 V2000
   -3.8899   -3.6747    1.6490 H   0  0  0  0  0  0  0  0  0  0  0  0
   -3.9109   -2.6717    1.2250 C   0  0  0  0  0  0  0  0  0  0  0  0
   -4.6009   -2.0517    1.7950 H   0  0  0  0  0  0  0  0  0  0  0  0
   -4.2309   -2.7237    0.1860 H   0  0  0  0  0  0  0  0  0  0  0  0
   -2.5229   -2.0787    1.2980 C   0  0  0  0  0  0  0  0  0  0  0  0
   -1.5999   -2.7227    1.7810 O   0  0  0  0  0  0  0  0  0  0  0  0
   -2.3659   -0.8447    0.8120 N   0  0  0  0  0  0  0  0  0  0  0  0
   -3.1749   -0.3807    0.4220 H   0  0  0  0  0  0  0  0  0  0  0  0
   -1.0919   -0.1077    0.8170 C   0  0  1  0  0  0  0  0  0  0  0  0
   -0.4136   -0.6011    1.5155 H   0  0  0  0  0  0  0  0  0  0  0  0
   -0.4834   -0.1723   -0.5965 C   0  0  0  0  0  0  0  0  0  0  0  0
    0.3429   -0.8849   -0.5869 H   0  0  0  0  0  0  0  0  0  0  0  0
   -1.2384   -0.5365   -1.2959 H   0  0  0  0  0  0  0  0  0  0  0  0
    0.0517    1.1810   -1.0890 C   0  0  0  0  0  0  0  0  0  0  0  0
    0.8350    1.5332   -0.4164 H   0  0  0  0  0  0  0  0  0  0  0  0
    0.4697    1.0595   -2.0902 H   0  0  0  0  0  0  0  0  0  0  0  0
   -1.0784    2.2188   -1.1327 C   0  0  0  0  0  0  0  0  0  0  0  0
   -1.8679    1.8563   -1.7954 H   0  0  0  0  0  0  0  0  0  0  0  0
   -1.4866    2.3433   -0.1277 H   0  0  0  0  0  0  0  0  0  0  0  0
   -0.5509    3.5638   -1.6478 C   0  0  0  0  0  0  0  0  0  0  0  0
    0.2431    3.9055   -0.9758 H   0  0  0  0  0  0  0  0  0  0  0  0
   -0.1092    3.4082   -2.6367 H   0  0  0  0  0  0  0  0  0  0  0  0
   -1.6301    4.5807   -1.7229 N   0  3  0  0  0  0  0  0  0  0  0  0
   -2.0358    4.7367   -0.8086 H   0  0  0  0  0  0  0  0  0  0  0  0
   -1.2660    5.4615   -2.0645 H   0  0  0  0  0  0  0  0  0  0  0  0
   -2.3636    4.2730   -2.3507 H   0  0  0  0  0  0  0  0  0  0  0  0
   -1.3103    1.3348    1.2791 C   0  0  0  0  0  0  0  0  0  0  0  0
   -2.2333    1.9891    0.8084 O   0  0  0  0  0  0  0  0  0  0  0  0
   -0.4429    1.8293    2.1683 N   0  0  0  0  0  0  0  0  0  0  0  0
    0.2668    1.2118    2.5263 H   0  0  0  0  0  0  0  0  0  0  0  0
   -0.5118    3.1863    2.7135 C   0  0  0  0  0  0  0  0  0  0  0  0
   -1.4470    3.3159    3.2625 H   0  0  0  0  0  0  0  0  0  0  0  0
    0.3243    3.3682    3.3896 H   0  0  0  0  0  0  0  0  0  0  0  0
   -0.4850    3.9172    1.9023 H   0  0  0  0  0  0  0  0  0  0  0  0
  5  6  2  0  0  0  0
  5  7  1  0  0  0  0
  2  3  1  0  0  0  0
  2  4  1  0  0  0  0
  2  5  1  0  0  0  0
  1  2  1  0  0  0  0
 27 28  2  0  0  0  0
 27 29  1  0  0  0  0
 23 24  1  0  0  0  0
 23 25  1  0  0  0  0
 23 26  1  0  0  0  0
 20 21  1  0  0  0  0
 20 22  1  0  0  0  0
 20 23  1  0  0  0  0
 17 18  1  0  0  0  0
 17 19  1  0  0  0  0
 17 20  1  0  0  0  0
 14 15  1  0  0  0  0
 14 16  1  0  0  0  0
 14 17  1  0  0  0  0
 11 12  1  0  0  0  0
 11 13  1  0  0  0  0
 11 14  1  0  0  0  0
  9 10  1  0  0  0  0
  9 11  1  0  0  0  0
  9 27  1  0  0  0  0
  7  8  1  0  0  0  0
  7  9  1  0  0  0  0
 31 32  1  0  0  0  0
 31 33  1  0  0  0  0
 31 34  1  0  0  0  0
 29 30  1  0  0  0  0
 29 31  1  0  0  0  0
M  CHG  1  23   1
M  END
$$$$
default_name
  -OEChem-02102213163D

 34 33  0     1  0  0  0  0  0999 V2000
   -3.8899   -3.6747    1.6490 H   0  0  0  0  0  0  0  0  0  0  0  0
   -3.9109   -2.6717    1.2250 C   0  0  0  0  0  0  0  0  0  0  0  0
   -4.6009   -2.0517    1.7950 H   0  0  0  0  0  0  0  0  0  0  0  0
   -4.2309   -2.7237    0.1860 H   0  0  0  0  0  0  0  0  0  0  0  0
   -2.5229   -2.0787    1.2980 C   0  0  0  0  0  0  0  0  0  0  0  0
   -1.5999   -2.7227    1.7810 O   0  0  0  0  0  0  0  0  0  0  0  0
   -2.3659   -0.8447    0.8120 N   0  0  0  0  0  0  0  0  0  0  0  0
   -3.1749   -0.3807    0.4220 H   0  0  0  0  0  0  0  0  0  0  0  0
   -1.0919   -0.1077    0.8170 C   0  0  1  0  0  0  0  0  0  0  0  0
   -0.4136   -0.6011    1.5155 H   0  0  0  0  0  0  0  0  0  0  0  0
   -0.4834   -0.1723   -0.5965 C   0  0  0  0  0  0  0  0  0  0  0  0
    0.3429   -0.8849   -0.5869 H   0  0  0  0  0  0  0  0  0  0  0  0
   -1.2384   -0.5365   -1.2959 H   0  0  0  0  0  0  0  0  0  0  0  0
    0.0517    1.1810   -1.0890 C   0  0  0  0  0  0  0  0  0  0  0  0
    0.9952    1.4066   -0.5901 H   0  0  0  0  0  0  0  0  0  0  0  0
    0.2213    1.1300   -2.1662 H   0  0  0  0  0  0  0  0  0  0  0  0
   -0.9574    2.2972   -0.7859 C   0  0  0  0  0  0  0  0  0  0  0  0
   -1.9057    2.0609   -1.2744 H   0  0  0  0  0  0  0  0  0  0  0  0
   -1.1164    2.3501    0.2930 H   0  0  0  0  0  0  0  0  0  0  0  0
   -0.4356    3.6450   -1.2992 C   0  0  0  0  0  0  0  0  0  0  0  0
    0.5172    3.8595   -0.8043 H   0  0  0  0  0  0  0  0  0  0  0  0
   -0.2433    3.5573   -2.3727 H   0  0  0  0  0  0  0  0  0  0  0  0
   -1.4043    4.7400   -1.0400 N   0  3  0  0  0  0  0  0  0  0  0  0
   -1.5783    4.8330   -0.0470 H   0  0  0  0  0  0  0  0  0  0  0  0
   -1.0454    5.6217   -1.3846 H   0  0  0  0  0  0  0  0  0  0  0  0
   -2.2853    4.5504   -1.5034 H   0  0  0  0  0  0  0  0  0  0  0  0
   -1.3103    1.3348    1.2791 C   0  0  0  0  0  0  0  0  0  0  0  0
   -2.2333    1.9891    0.8084 O   0  0  0  0  0  0  0  0  0  0  0  0
   -0.4429    1.8293    2.1683 N   0  0  0  0  0  0  0  0  0  0  0  0
    0.2668    1.2118    2.5263 H   0  0  0  0  0  0  0  0  0  0  0  0
   -0.5118    3.1863    2.7135 C   0  0  0  0  0  0  0  0  0  0  0  0
   -1.4470    3.3159    3.2625 H   0  0  0  0  0  0  0  0  0  0  0  0
    0.3243    3.3682    3.3896 H   0  0  0  0  0  0  0  0  0  0  0  0
   -0.4850    3.9172    1.9023 H   0  0  0  0  0  0  0  0  0  0  0  0
  5  6  2  0  0  0  0
  5  7  1  0  0  0  0
  2  3  1  0  0  0  0
  2  4  1  0  0  0  0
  2  5  1  0  0  0  0
  1  2  1  0  0  0  0
 27 28  2  0  0  0  0
 27 29  1  0  0  0  0
 23 24  1  0  0  0  0
 23 25  1  0  0  0  0
 23 26  1  0  0  0  0
 20 21  1  0  0  0  0
 20 22  1  0  0  0  0
 20 23  1  0  0  0  0
 17 18  1  0  0  0  0
 17 19  1  0  0  0  0
 17 20  1  0  0  0  0
 14 15  1  0  0  0  0
 14 16  1  0  0  0  0
 14 17  1  0  0  0  0
 11 12  1  0  0  0  0
 11 13  1  0  0  0  0
 11 14  1  0  0  0  0
  9 10  1  0  0  0  0
  9 11  1  0  0  0  0
  9 27  1  0  0  0  0
  7  8  1  0  0  0  0
  7  9  1  0  0  0  0
 31 32  1  0  0  0  0
 31 33  1  0  0  0  0
 31 34  1  0  0  0  0
 29 30  1  0  0  0  0
 29 31  1  0  0  0  0
M  CHG  1  23   1
M  END
$$$$
default_name
  -OEChem-02102213163D

 34 33  0     1  0  0  0  0  0999 V2000
   -3.8899   -3.6747    1.6490 H   0  0  0  0  0  0  0  0  0  0  0  0
   -3.9109   -2.6717    1.2250 C   0  0  0  0  0  0  0  0  0  0  0  0
   -4.6009   -2.0517    1.7950 H   0  0  0  0  0  0  0  0  0  0  0  0
   -4.2309   -2.7237    0.1860 H   0  0  0  0  0  0  0  0  0  0  0  0
   -2.5229   -2.0787    1.2980 C   0  0  0  0  0  0  0  0  0  0  0  0
   -1.5999   -2.7227    1.7810 O   0  0  0  0  0  0  0  0  0  0  0  0
   -2.3659   -0.8447    0.8120 N   0  0  0  0  0  0  0  0  0  0  0  0
   -3.1749   -0.3807    0.4220 H   0  0  0  0  0  0  0  0  0  0  0  0
   -1.0919   -0.1077    0.8170 C   0  0  1  0  0  0  0  0  0  0  0  0
   -0.4136   -0.6011    1.5155 H   0  0  0  0  0  0  0  0  0  0  0  0
   -0.4834   -0.1723   -0.5965 C   0  0  0  0  0  0  0  0  0  0  0  0
    0.3429   -0.8849   -0.5869 H   0  0  0  0  0  0  0  0  0  0  0  0
   -1.2384   -0.5365   -1.2959 H   0  0  0  0  0  0  0  0  0  0  0  0
    0.0517    1.1810   -1.0890 C   0  0  0  0  0  0  0  0  0  0  0  0
    1.0999    1.2867   -0.8059 H   0  0  0  0  0  0  0  0  0  0  0  0
   -0.0300    1.2256   -2.1767 H   0  0  0  0  0  0  0  0  0  0  0  0
   -0.7550    2.3316   -0.4713 C   0  0  0  0  0  0  0  0  0  0  0  0
   -1.8065    2.2146   -0.7442 H   0  0  0  0  0  0  0  0  0  0  0  0
   -0.6624    2.2880    0.6157 H   0  0  0  0  0  0  0  0  0  0  0  0
   -0.2379    3.6825   -0.9814 C   0  0  0  0  0  0  0  0  0  0  0  0
    0.8173    3.7769   -0.7052 H   0  0  0  0  0  0  0  0  0  0  0  0
   -0.3002    3.6886   -2.0738 H   0  0  0  0  0  0  0  0  0  0  0  0
   -1.0172    4.8135   -0.4174 N   0  3  0  0  0  0  0  0  0  0  0  0
   -0.9547    4.8194    0.5930 H   0  0  0  0  0  0  0  0  0  0  0  0
   -0.6640    5.6968   -0.7637 H   0  0  0  0  0  0  0  0  0  0  0  0
   -1.9934    4.7355   -0.6777 H   0  0  0  0  0  0  0  0  0  0  0  0
   -1.3103    1.3348    1.2791 C   0  0  0  0  0  0  0  0  0  0  0  0
   -2.2333    1.9891    0.8084 O   0  0  0  0  0  0  0  0  0  0  0  0
   -0.4429    1.8293    2.1683 N   0  0  0  0  0  0  0  0  0  0  0  0
    0.2668    1.2118    2.5263 H   0  0  0  0  0  0  0  0  0  0  0  0
   -0.5118    3.1863    2.7135 C   0  0  0  0  0  0  0  0  0  0  0  0
   -1.4470    3.3159    3.2625 H   0  0  0  0  0  0  0  0  0  0  0  0
    0.3243    3.3682    3.3896 H   0  0  0  0  0  0  0  0  0  0  0  0
   -0.4850    3.9172    1.9023 H   0  0  0  0  0  0  0  0  0  0  0  0
  5  6  2  0  0  0  0
  5  7  1  0  0  0  0
  2  3  1  0  0  0  0
  2  4  1  0  0  0  0
  2  5  1  0  0  0  0
  1  2  1  0  0  0  0
 27 28  2  0  0  0  0
 27 29  1  0  0  0  0
 23 24  1  0  0  0  0
 23 25  1  0  0  0  0
 23 26  1  0  0  0  0
 20 21  1  0  0  0  0
 20 22  1  0  0  0  0
 20 23  1  0  0  0  0
 17 18  1  0  0  0  0
 17 19  1  0  0  0  0
 17 20  1  0  0  0  0
 14 15  1  0  0  0  0
 14 16  1  0  0  0  0
 14 17  1  0  0  0  0
 11 12  1  0  0  0  0
 11 13  1  0  0  0  0
 11 14  1  0  0  0  0
  9 10  1  0  0  0  0
  9 11  1  0  0  0  0
  9 27  1  0  0  0  0
  7  8  1  0  0  0  0
  7  9  1  0  0  0  0
 31 32  1  0  0  0  0
 31 33  1  0  0  0  0
 31 34  1  0  0  0  0
 29 30  1  0  0  0  0
 29 31  1  0  0  0  0
M  CHG  1  23   1
M  END
$$$$
default_name
  -OEChem-02102213163D

 34 33  0     1  0  0  0  0  0999 V2000
   -3.8899   -3.6747    1.6490 H   0  0  0  0  0  0  0  0  0  0  0  0
   -3.9109   -2.6717    1.2250 C   0  0  0  0  0  0  0  0  0  0  0  0
   -4.6009   -2.0517    1.7950 H   0  0  0  0  0  0  0  0  0  0  0  0
   -4.2309   -2.7237    0.1860 H   0  0  0  0  0  0  0  0  0  0  0  0
   -2.5229   -2.0787    1.2980 C   0  0  0  0  0  0  0  0  0  0  0  0
   -1.5999   -2.7227    1.7810 O   0  0  0  0  0  0  0  0  0  0  0  0
   -2.3659   -0.8447    0.8120 N   0  0  0  0  0  0  0  0  0  0  0  0
   -3.1749   -0.3807    0.4220 H   0  0  0  0  0  0  0  0  0  0  0  0
   -1.0919   -0.1077    0.8170 C   0  0  1  0  0  0  0  0  0  0  0  0
   -0.4136   -0.6011    1.5155 H   0  0  0  0  0  0  0  0  0  0  0  0
   -0.4834   -0.1723   -0.5965 C   0  0  0  0  0  0  0  0  0  0  0  0
    0.3429   -0.8849   -0.5869 H   0  0  0  0  0  0  0  0  0  0  0  0
   -1.2384   -0.5365   -1.2959 H   0  0  0  0  0  0  0  0  0  0  0  0
    0.0517    1.1810   -1.0890 C   0  0  0  0  0  0  0  0  0  0  0  0
    1.1418    1.1816   -1.0490 H   0  0  0  0  0  0  0  0  0  0  0  0
   -0.2673    1.3397   -2.1209 H   0  0  0  0  0  0  0  0  0  0  0  0
   -0.4849    2.3197   -0.2106 C   0  0  0  0  0  0  0  0  0  0  0  0
   -1.5770    2.3070   -0.2408 H   0  0  0  0  0  0  0  0  0  0  0  0
   -0.1555    2.1613    0.8182 H   0  0  0  0  0  0  0  0  0  0  0  0
    0.0285    3.6737   -0.7161 C   0  0  0  0  0  0  0  0  0  0  0  0
    1.1229    3.6633   -0.6854 H   0  0  0  0  0  0  0  0  0  0  0  0
   -0.2762    3.7932   -1.7602 H   0  0  0  0  0  0  0  0  0  0  0  0
   -0.4953    4.7963    0.1023 N   0  3  0  0  0  0  0  0  0  0  0  0
   -0.2077    4.6968    1.0678 H   0  0  0  0  0  0  0  0  0  0  0  0
   -0.1478    5.6818   -0.2441 H   0  0  0  0  0  0  0  0  0  0  0  0
   -1.5079    4.8156    0.0700 H   0  0  0  0  0  0  0  0  0  0  0  0
   -1.3103    1.3348    1.2791 C   0  0  0  0  0  0  0  0  0  0  0  0
   -2.2333    1.9891    0.8084 O   0  0  0  0  0  0  0  0  0  0  0  0
   -0.4429    1.8293    2.1683 N   0  0  0  0  0  0  0  0  0  0  0  0
    0.2668    1.2118    2.5263 H   0  0  0  0  0  0  0  0  0  0  0  0
   -0.5118    3.1863    2.7135 C   0  0  0  0  0  0  0  0  0  0  0  0
   -1.4470    3.3159    3.2625 H   0  0  0  0  0  0  0  0  0  0  0  0
    0.3243    3.3682    3.3896 H   0  0  0  0  0  0  0  0  0  0  0  0
   -0.4850    3.9172    1.9023 H   0  0  0  0  0  0  0  0  0  0  0  0
  5  6  2  0  0  0  0
  5  7  1  0  0  0  0
  2  3  1  0  0  0  0
  2  4  1  0  0  0  0
  2  5  1  0  0  0  0
  1  2  1  0  0  0  0
 27 28  2  0  0  0  0
 27 29  1  0  0  0  0
 23 24  1  0  0  0  0
 23 25  1  0  0  0  0
 23 26  1  0  0  0  0
 20 21  1  0  0  0  0
 20 22  1  0  0  0  0
 20 23  1  0  0  0  0
 17 18  1  0  0  0  0
 17 19  1  0  0  0  0
 17 20  1  0  0  0  0
 14 15  1  0  0  0  0
 14 16  1  0  0  0  0
 14 17  1  0  0  0  0
 11 12  1  0  0  0  0
 11 13  1  0  0  0  0
 11 14  1  0  0  0  0
  9 10  1  0  0  0  0
  9 11  1  0  0  0  0
  9 27  1  0  0  0  0
  7  8  1  0  0  0  0
  7  9  1  0  0  0  0
 31 32  1  0  0  0  0
 31 33  1  0  0  0  0
 31 34  1  0  0  0  0
 29 30  1  0  0  0  0
 29 31  1  0  0  0  0
M  CHG  1  23   1
M  END
$$$$
default_name
  -OEChem-02102213163D

 34 33  0     1  0  0  0  0  0999 V2000
   -3.8899   -3.6747    1.6490 H   0  0  0  0  0  0  0  0  0  0  0  0
   -3.9109   -2.6717    1.2250 C   0  0  0  0  0  0  0  0  0  0  0  0
   -4.6009   -2.0517    1.7950 H   0  0  0  0  0  0  0  0  0  0  0  0
   -4.2309   -2.7237    0.1860 H   0  0  0  0  0  0  0  0  0  0  0  0
   -2.5229   -2.0787    1.2980 C   0  0  0  0  0  0  0  0  0  0  0  0
   -1.5999   -2.7227    1.7810 O   0  0  0  0  0  0  0  0  0  0  0  0
   -2.3659   -0.8447    0.8120 N   0  0  0  0  0  0  0  0  0  0  0  0
   -3.1749   -0.3807    0.4220 H   0  0  0  0  0  0  0  0  0  0  0  0
   -1.0919   -0.1077    0.8170 C   0  0  1  0  0  0  0  0  0  0  0  0
   -0.4136   -0.6011    1.5155 H   0  0  0  0  0  0  0  0  0  0  0  0
   -0.4834   -0.1723   -0.5965 C   0  0  0  0  0  0  0  0  0  0  0  0
    0.3429   -0.8849   -0.5869 H   0  0  0  0  0  0  0  0  0  0  0  0
   -1.2384   -0.5365   -1.2959 H   0  0  0  0  0  0  0  0  0  0  0  0
    0.0517    1.1810   -1.0890 C   0  0  0  0  0  0  0  0  0  0  0  0
    1.1182    1.0986   -1.3029 H   0  0  0  0  0  0  0  0  0  0  0  0
   -0.4743    1.4645   -2.0027 H   0  0  0  0  0  0  0  0  0  0  0  0
   -0.1655    2.2623   -0.0214 C   0  0  0  0  0  0  0  0  0  0  0  0
   -1.2329    2.3319    0.2015 H   0  0  0  0  0  0  0  0  0  0  0  0
    0.3699    1.9786    0.8869 H   0  0  0  0  0  0  0  0  0  0  0  0
    0.3457    3.6192   -0.5214 C   0  0  0  0  0  0  0  0  0  0  0  0
    1.4132    3.5264   -0.7461 H   0  0  0  0  0  0  0  0  0  0  0  0
   -0.1729    3.8640   -1.4533 H   0  0  0  0  0  0  0  0  0  0  0  0
    0.1259    4.6895    0.4838 N   0  3  0  0  0  0  0  0  0  0  0  0
    0.6121    4.4736    1.3451 H   0  0  0  0  0  0  0  0  0  0  0  0
    0.4680    5.5776    0.1387 H   0  0  0  0  0  0  0  0  0  0  0  0
   -0.8619    4.7854    0.6888 H   0  0  0  0  0  0  0  0  0  0  0  0
   -1.3103    1.3348    1.2791 C   0  0  0  0  0  0  0  0  0  0  0  0
   -2.2333    1.9891    0.8084 O   0  0  0  0  0  0  0  0  0  0  0  0
   -0.4429    1.8293    2.1683 N   0  0  0  0  0  0  0  0  0  0  0  0
    0.2668    1.2118    2.5263 H   0  0  0  0  0  0  0  0  0  0  0  0
   -0.5118    3.1863    2.7135 C   0  0  0  0  0  0  0  0  0  0  0  0
   -1.4470    3.3159    3.2625 H   0  0  0  0  0  0  0  0  0  0  0  0
    0.3243    3.3682    3.3896 H   0  0  0  0  0  0  0  0  0  0  0  0
   -0.4850    3.9172    1.9023 H   0  0  0  0  0  0  0  0  0  0  0  0
  5  6  2  0  0  0  0
  5  7  1  0  0  0  0
  2  3  1  0  0  0  0
  2  4  1  0  0  0  0
  2  5  1  0  0  0  0
  1  2  1  0  0  0  0
 27 28  2  0  0  0  0
 27 29  1  0  0  0  0
 23 24  1  0  0  0  0
 23 25  1  0  0  0  0
 23 26  1  0  0  0  0
 20 21  1  0  0  0  0
 20 22  1  0  0  0  0
 20 23  1  0  0  0  0
 17 18  1  0  0  0  0
 17 19  1  0  0  0  0
 17 20  1  0  0  0  0
 14 15  1  0  0  0  0
 14 16  1  0  0  0  0
 14 17  1  0  0  0  0
 11 12  1  0  0  0  0
 11 13  1  0  0  0  0
 11 14  1  0  0  0  0
  9 10  1  0  0  0  0
  9 11  1  0  0  0  0
  9 27  1  0  0  0  0
  7  8  1  0  0  0  0
  7  9  1  0  0  0  0
 31 32  1  0  0  0  0
 31 33  1  0  0  0  0
 31 34  1  0  0  0  0
 29 30  1  0  0  0  0
 29 31  1  0  0  0  0
M  CHG  1  23   1
M  END
$$$$
default_name
  -OEChem-02102213163D

 34 33  0     1  0  0  0  0  0999 V2000
   -3.8899   -3.6747    1.6490 H   0  0  0  0  0  0  0  0  0  0  0  0
   -3.9109   -2.6717    1.2250 C   0  0  0  0  0  0  0  0  0  0  0  0
   -4.6009   -2.0517    1.7950 H   0  0  0  0  0  0  0  0  0  0  0  0
   -4.2309   -2.7237    0.1860 H   0  0  0  0  0  0  0  0  0  0  0  0
   -2.5229   -2.0787    1.2980 C   0  0  0  0  0  0  0  0  0  0  0  0
   -1.5999   -2.7227    1.7810 O   0  0  0  0  0  0  0  0  0  0  0  0
   -2.3659   -0.8447    0.8120 N   0  0  0  0  0  0  0  0  0  0  0  0
   -3.1749   -0.3807    0.4220 H   0  0  0  0  0  0  0  0  0  0  0  0
   -1.0919   -0.1077    0.8170 C   0  0  1  0  0  0  0  0  0  0  0  0
   -0.4136   -0.6011    1.5155 H   0  0  0  0  0  0  0  0  0  0  0  0
   -0.4834   -0.1723   -0.5965 C   0  0  0  0  0  0  0  0  0  0  0  0
    0.3429   -0.8849   -0.5869 H   0  0  0  0  0  0  0  0  0  0  0  0
   -1.2384   -0.5365   -1.2959 H   0  0  0  0  0  0  0  0  0  0  0  0
    0.0517    1.1810   -1.0890 C   0  0  0  0  0  0  0  0  0  0  0  0
    1.0306    1.0432   -1.5502 H   0  0  0  0  0  0  0  0  0  0  0  0
   -0.6369    1.5917   -1.8300 H   0  0  0  0  0  0  0  0  0  0  0  0
    0.1813    2.1633    0.0834 C   0  0  0  0  0  0  0  0  0  0  0  0
   -0.7977    2.2876    0.5525 H   0  0  0  0  0  0  0  0  0  0  0  0
    0.8778    1.7523    0.8170 H   0  0  0  0  0  0  0  0  0  0  0  0
    0.6919    3.5226   -0.4106 C   0  0  0  0  0  0  0  0  0  0  0  0
    1.6684    3.3756   -0.8833 H   0  0  0  0  0  0  0  0  0  0  0  0
    0.0028    3.8962   -1.1741 H   0  0  0  0  0  0  0  0  0  0  0  0
    0.8040    4.5004    0.7010 N   0  3  0  0  0  0  0  0  0  0  0  0
    1.4485    4.1650    1.4059 H   0  0  0  0  0  0  0  0  0  0  0  0
    1.1415    5.3914    0.3587 H   0  0  0  0  0  0  0  0  0  0  0  0
   -0.0993    4.6467    1.1364 H   0  0  0  0  0  0  0  0  0  0  0  0
   -1.3103    1.3348    1.2791 C   0  0  0  0  0  0  0  0  0  0  0  0
   -2.2333    1.9891    0.8084 O   0  0  0  0  0  0  0  0  0  0  0  0
   -0.4429    1.8293    2.1683 N   0  0  0  0  0  0  0  0  0  0  0  0
    0.2668    1.2118    2.5263 H   0  0  0  0  0  0  0  0  0  0  0  0
   -0.5118    3.1863    2.7135 C   0  0  0  0  0  0  0  0  0  0  0  0
   -1.4470    3.3159    3.2625 H   0  0  0  0  0  0  0  0  0  0  0  0
    0.3243    3.3682    3.3896 H   0  0  0  0  0  0  0  0  0  0  0  0
   -0.4850    3.9172    1.9023 H   0  0  0  0  0  0  0  0  0  0  0  0
  5  6  2  0  0  0  0
  5  7  1  0  0  0  0
  2  3  1  0  0  0  0
  2  4  1  0  0  0  0
  2  5  1  0  0  0  0
  1  2  1  0  0  0  0
 27 28  2  0  0  0  0
 27 29  1  0  0  0  0
 23 24  1  0  0  0  0
 23 25  1  0  0  0  0
 23 26  1  0  0  0  0
 20 21  1  0  0  0  0
 20 22  1  0  0  0  0
 20 23  1  0  0  0  0
 17 18  1  0  0  0  0
 17 19  1  0  0  0  0
 17 20  1  0  0  0  0
 14 15  1  0  0  0  0
 14 16  1  0  0  0  0
 14 17  1  0  0  0  0
 11 12  1  0  0  0  0
 11 13  1  0  0  0  0
 11 14  1  0  0  0  0
  9 10  1  0  0  0  0
  9 11  1  0  0  0  0
  9 27  1  0  0  0  0
  7  8  1  0  0  0  0
  7  9  1  0  0  0  0
 31 32  1  0  0  0  0
 31 33  1  0  0  0  0
 31 34  1  0  0  0  0
 29 30  1  0  0  0  0
 29 31  1  0  0  0  0
M  CHG  1  23   1
M  END
$$$$
default_name
  -OEChem-02102213163D

 34 33  0     1  0  0  0  0  0999 V2000
   -3.8899   -3.6747    1.6490 H   0  0  0  0  0  0  0  0  0  0  0  0
   -3.9109   -2.6717    1.2250 C   0  0  0  0  0  0  0  0  0  0  0  0
   -4.6009   -2.0517    1.7950 H   0  0  0  0  0  0  0  0  0  0  0  0
   -4.2309   -2.7237    0.1860 H   0  0  0  0  0  0  0  0  0  0  0  0
   -2.5229   -2.0787    1.2980 C   0  0  0  0  0  0  0  0  0  0  0  0
   -1.5999   -2.7227    1.7810 O   0  0  0  0  0  0  0  0  0  0  0  0
   -2.3659   -0.8447    0.8120 N   0  0  0  0  0  0  0  0  0  0  0  0
   -3.1749   -0.3807    0.4220 H   0  0  0  0  0  0  0  0  0  0  0  0
   -1.0919   -0.1077    0.8170 C   0  0  1  0  0  0  0  0  0  0  0  0
   -0.4136   -0.6011    1.5155 H   0  0  0  0  0  0  0  0  0  0  0  0
   -0.4834   -0.1723   -0.5965 C   0  0  0  0  0  0  0  0  0  0  0  0
    0.3429   -0.8849   -0.5869 H   0  0  0  0  0  0  0  0  0  0  0  0
   -1.2384   -0.5365   -1.2959 H   0  0  0  0  0  0  0  0  0  0  0  0
    0.0517    1.1810   -1.0890 C   0  0  0  0  0  0  0  0  0  0  0  0
    0.8850    1.0193   -1.7741 H   0  0  0  0  0  0  0  0  0  0  0  0
   -0.7440    1.7124   -1.6147 H   0  0  0  0  0  0  0  0  0  0  0  0
    0.5320    2.0294    0.0966 C   0  0  0  0  0  0  0  0  0  0  0  0
   -0.3009    2.1769    0.7883 H   0  0  0  0  0  0  0  0  0  0  0  0
    1.3337    1.4979    0.6132 H   0  0  0  0  0  0  0  0  0  0  0  0
    1.0435    3.3906   -0.3912 C   0  0  0  0  0  0  0  0  0  0  0  0
    1.8711    3.2211   -1.0877 H   0  0  0  0  0  0  0  0  0  0  0  0
    0.2389    3.8875   -0.9415 H   0  0  0  0  0  0  0  0  0  0  0  0
    1.4928    4.2420    0.7392 N   0  3  0  0  0  0  0  0  0  0  0  0
    2.2448    3.7920    1.2461 H   0  0  0  0  0  0  0  0  0  0  0  0
    1.8267    5.1358    0.4009 H   0  0  0  0  0  0  0  0  0  0  0  0
    0.7279    4.4092    1.3824 H   0  0  0  0  0  0  0  0  0  0  0  0
   -1.3103    1.3348    1.2791 C   0  0  0  0  0  0  0  0  0  0  0  0
   -2.2333    1.9891    0.8084 O   0  0  0  0  0  0  0  0  0  0  0  0
   -0.4429    1.8293    2.1683 N   0  0  0  0  0  0  0  0  0  0  0  0
    0.2668    1.2118    2.5263 H   0  0  0  0  0  0  0  0  0  0  0  0
   -0.5118    3.1863    2.7135 C   0  0  0  0  0  0  0  0  0  0  0  0
   -1.4470    3.3159    3.2625 H   0  0  0  0  0  0  0  0  0  0  0  0
    0.3243    3.3682    3.3896 H   0  0  0  0  0  0  0  0  0  0  0  0
   -0.4850    3.9172    1.9023 H   0  0  0  0  0  0  0  0  0  0  0  0
  5  6  2  0  0  0  0
  5  7  1  0  0  0  0
  2  3  1  0  0  0  0
  2  4  1  0  0  0  0
  2  5  1  0  0  0  0
  1  2  1  0  0  0  0
 27 28  2  0  0  0  0
 27 29  1  0  0  0  0
 23 24  1  0  0  0  0
 23 25  1  0  0  0  0
 23 26  1  0  0  0  0
 20 21  1  0  0  0  0
 20 22  1  0  0  0  0
 20 23  1  0  0  0  0
 17 18  1  0  0  0  0
 17 19  1  0  0  0  0
 17 20  1  0  0  0  0
 14 15  1  0  0  0  0
 14 16  1  0  0  0  0
 14 17  1  0  0  0  0
 11 12  1  0  0  0  0
 11 13  1  0  0  0  0
 11 14  1  0  0  0  0
  9 10  1  0  0  0  0
  9 11  1  0  0  0  0
  9 27  1  0  0  0  0
  7  8  1  0  0  0  0
  7  9  1  0  0  0  0
 31 32  1  0  0  0  0
 31 33  1  0  0  0  0
 31 34  1  0  0  0  0
 29 30  1  0  0  0  0
 29 31  1  0  0  0  0
M  CHG  1  23   1
M  END
$$$$
default_name
  -OEChem-02102213163D

 34 33  0     1  0  0  0  0  0999 V2000
   -3.8899   -3.6747    1.6490 H   0  0  0  0  0  0  0  0  0  0  0  0
   -3.9109   -2.6717    1.2250 C   0  0  0  0  0  0  0  0  0  0  0  0
   -4.6009   -2.0517    1.7950 H   0  0  0  0  0  0  0  0  0  0  0  0
   -4.2309   -2.7237    0.1860 H   0  0  0  0  0  0  0  0  0  0  0  0
   -2.5229   -2.0787    1.2980 C   0  0  0  0  0  0  0  0  0  0  0  0
   -1.5999   -2.7227    1.7810 O   0  0  0  0  0  0  0  0  0  0  0  0
   -2.3659   -0.8447    0.8120 N   0  0  0  0  0  0  0  0  0  0  0  0
   -3.1749   -0.3807    0.4220 H   0  0  0  0  0  0  0  0  0  0  0  0
   -1.0919   -0.1077    0.8170 C   0  0  1  0  0  0  0  0  0  0  0  0
   -0.4136   -0.6011    1.5155 H   0  0  0  0  0  0  0  0  0  0  0  0
   -0.4834   -0.1723   -0.5965 C   0  0  0  0  0  0  0  0  0  0  0  0
    0.3429   -0.8849   -0.5869 H   0  0  0  0  0  0  0  0  0  0  0  0
   -1.2384   -0.5365   -1.2959 H   0  0  0  0  0  0  0  0  0  0  0  0
    0.0517    1.1810   -1.0890 C   0  0  0  0  0  0  0  0  0  0  0  0
    0.6914    1.0285   -1.9593 H   0  0  0  0  0  0  0  0  0  0  0  0
   -0.7884    1.8185   -1.3714 H   0  0  0  0  0  0  0  0  0  0  0  0
    0.8627    1.8698    0.0174 C   0  0  0  0  0  0  0  0  0  0  0  0
    0.2236    2.0076    0.8928 H   0  0  0  0  0  0  0  0  0  0  0  0
    1.7065    1.2327    0.2895 H   0  0  0  0  0  0  0  0  0  0  0  0
    1.3767    3.2322   -0.4645 C   0  0  0  0  0  0  0  0  0  0  0  0
    2.0075    3.0734   -1.3452 H   0  0  0  0  0  0  0  0  0  0  0  0
    0.5191    3.8386   -0.7715 H   0  0  0  0  0  0  0  0  0  0  0  0
    2.1455    3.9317    0.5958 N   0  3  0  0  0  0  0  0  0  0  0  0
    2.9465    3.3801    0.8766 H   0  0  0  0  0  0  0  0  0  0  0  0
    2.4770    4.8283    0.2623 H   0  0  0  0  0  0  0  0  0  0  0  0
    1.5633    4.0890    1.4101 H   0  0  0  0  0  0  0  0  0  0  0  0
   -1.3103    1.3348    1.2791 C   0  0  0  0  0  0  0  0  0  0  0  0
   -2.2333    1.9891    0.8084 O   0  0  0  0  0  0  0  0  0  0  0  0
   -0.4429    1.8293    2.1683 N   0  0  0  0  0  0  0  0  0  0  0  0
    0.2668    1.2118    2.5263 H   0  0  0  0  0  0  0  0  0  0  0  0
   -0.5118    3.1863    2.7135 C   0  0  0  0  0  0  0  0  0  0  0  0
   -1.4470    3.3159    3.2625 H   0  0  0  0  0  0  0  0  0  0  0  0
    0.3243    3.3682    3.3896 H   0  0  0  0  0  0  0  0  0  0  0  0
   -0.4850    3.9172    1.9023 H   0  0  0  0  0  0  0  0  0  0  0  0
  5  6  2  0  0  0  0
  5  7  1  0  0  0  0
  2  3  1  0  0  0  0
  2  4  1  0  0  0  0
  2  5  1  0  0  0  0
  1  2  1  0  0  0  0
 27 28  2  0  0  0  0
 27 29  1  0  0  0  0
 23 24  1  0  0  0  0
 23 25  1  0  0  0  0
 23 26  1  0  0  0  0
 20 21  1  0  0  0  0
 20 22  1  0  0  0  0
 20 23  1  0  0  0  0
 17 18  1  0  0  0  0
 17 19  1  0  0  0  0
 17 20  1  0  0  0  0
 14 15  1  0  0  0  0
 14 16  1  0  0  0  0
 14 17  1  0  0  0  0
 11 12  1  0  0  0  0
 11 13  1  0  0  0  0
 11 14  1  0  0  0  0
  9 10  1  0  0  0  0
  9 11  1  0  0  0  0
  9 27  1  0  0  0  0
  7  8  1  0  0  0  0
  7  9  1  0  0  0  0
 31 32  1  0  0  0  0
 31 33  1  0  0  0  0
 31 34  1  0  0  0  0
 29 30  1  0  0  0  0
 29 31  1  0  0  0  0
M  CHG  1  23   1
M  END
$$$$
default_name
  -OEChem-02102213163D

 34 33  0     1  0  0  0  0  0999 V2000
   -3.8899   -3.6747    1.6490 H   0  0  0  0  0  0  0  0  0  0  0  0
   -3.9109   -2.6717    1.2250 C   0  0  0  0  0  0  0  0  0  0  0  0
   -4.6009   -2.0517    1.7950 H   0  0  0  0  0  0  0  0  0  0  0  0
   -4.2309   -2.7237    0.1860 H   0  0  0  0  0  0  0  0  0  0  0  0
   -2.5229   -2.0787    1.2980 C   0  0  0  0  0  0  0  0  0  0  0  0
   -1.5999   -2.7227    1.7810 O   0  0  0  0  0  0  0  0  0  0  0  0
   -2.3659   -0.8447    0.8120 N   0  0  0  0  0  0  0  0  0  0  0  0
   -3.1749   -0.3807    0.4220 H   0  0  0  0  0  0  0  0  0  0  0  0
   -1.0919   -0.1077    0.8170 C   0  0  1  0  0  0  0  0  0  0  0  0
   -0.4136   -0.6011    1.5155 H   0  0  0  0  0  0  0  0  0  0  0  0
   -0.4834   -0.1723   -0.5965 C   0  0  0  0  0  0  0  0  0  0  0  0
    0.3429   -0.8849   -0.5869 H   0  0  0  0  0  0  0  0  0  0  0  0
   -1.2384   -0.5365   -1.2959 H   0  0  0  0  0  0  0  0  0  0  0  0
    0.0517    1.1810   -1.0890 C   0  0  0  0  0  0  0  0  0  0  0  0
    0.4629    1.0701   -2.0932 H   0  0  0  0  0  0  0  0  0  0  0  0
   -0.7670    1.9027   -1.1167 H   0  0  0  0  0  0  0  0  0  0  0  0
    1.1508    1.6954   -0.1490 C   0  0  0  0  0  0  0  0  0  0  0  0
    0.7399    1.7912    0.8589 H   0  0  0  0  0  0  0  0  0  0  0  0
    1.9709    0.9748   -0.1320 H   0  0  0  0  0  0  0  0  0  0  0  0
    1.6686    3.0582   -0.6255 C   0  0  0  0  0  0  0  0  0  0  0  0
    2.0683    2.9427   -1.6383 H   0  0  0  0  0  0  0  0  0  0  0  0
    0.8246    3.7527   -0.6755 H   0  0  0  0  0  0  0  0  0  0  0  0
    2.7175    3.5908    0.2804 N   0  3  0  0  0  0  0  0  0  0  0  0
    3.5059    2.9573    0.3226 H   0  0  0  0  0  0  0  0  0  0  0  0
    3.0481    4.4898   -0.0475 H   0  0  0  0  0  0  0  0  0  0  0  0
    2.3499    3.7079    1.2175 H   0  0  0  0  0  0  0  0  0  0  0  0
   -1.3103    1.3348    1.2791 C   0  0  0  0  0  0  0  0  0  0  0  0
   -2.2333    1.9891    0.8084 O   0  0  0  0  0  0  0  0  0  0  0  0
   -0.4429    1.8293    2.1683 N   0  0  0  0  0  0  0  0  0  0  0  0
    0.2668    1.2118    2.5263 H   0  0  0  0  0  0  0  0  0  0  0  0
   -0.5118    3.1863    2.7135 C   0  0  0  0  0  0  0  0  0  0  0  0
   -1.4470    3.3159    3.2625 H   0  0  0  0  0  0  0  0  0  0  0  0
    0.3243    3.3682    3.3896 H   0  0  0  0  0  0  0  0  0  0  0  0
   -0.4850    3.9172    1.9023 H   0  0  0  0  0  0  0  0  0  0  0  0
  5  6  2  0  0  0  0
  5  7  1  0  0  0  0
  2  3  1  0  0  0  0
  2  4  1  0  0  0  0
  2  5  1  0  0  0  0
  1  2  1  0  0  0  0
 27 28  2  0  0  0  0
 27 29  1  0  0  0  0
 23 24  1  0  0  0  0
 23 25  1  0  0  0  0
 23 26  1  0  0  0  0
 20 21  1  0  0  0  0
 20 22  1  0  0  0  0
 20 23  1  0  0  0  0
 17 18  1  0  0  0  0
 17 19  1  0  0  0  0
 17 20  1  0  0  0  0
 14 15  1  0  0  0  0
 14 16  1  0  0  0  0
 14 17  1  0  0  0  0
 11 12  1  0  0  0  0
 11 13  1  0  0  0  0
 11 14  1  0  0  0  0
  9 10  1  0  0  0  0
  9 11  1  0  0  0  0
  9 27  1  0  0  0  0
  7  8  1  0  0  0  0
  7  9  1  0  0  0  0
 31 32  1  0  0  0  0
 31 33  1  0  0  0  0
 31 34  1  0  0  0  0
 29 30  1  0  0  0  0
 29 31  1  0  0  0  0
M  CHG  1  23   1
M  END
$$$$
default_name
  -OEChem-02102213163D

 34 33  0     1  0  0  0  0  0999 V2000
   -3.8899   -3.6747    1.6490 H   0  0  0  0  0  0  0  0  0  0  0  0
   -3.9109   -2.6717    1.2250 C   0  0  0  0  0  0  0  0  0  0  0  0
   -4.6009   -2.0517    1.7950 H   0  0  0  0  0  0  0  0  0  0  0  0
   -4.2309   -2.7237    0.1860 H   0  0  0  0  0  0  0  0  0  0  0  0
   -2.5229   -2.0787    1.2980 C   0  0  0  0  0  0  0  0  0  0  0  0
   -1.5999   -2.7227    1.7810 O   0  0  0  0  0  0  0  0  0  0  0  0
   -2.3659   -0.8447    0.8120 N   0  0  0  0  0  0  0  0  0  0  0  0
   -3.1749   -0.3807    0.4220 H   0  0  0  0  0  0  0  0  0  0  0  0
   -1.0919   -0.1077    0.8170 C   0  0  1  0  0  0  0  0  0  0  0  0
   -0.4136   -0.6011    1.5155 H   0  0  0  0  0  0  0  0  0  0  0  0
   -0.4834   -0.1723   -0.5965 C   0  0  0  0  0  0  0  0  0  0  0  0
    0.3429   -0.8849   -0.5869 H   0  0  0  0  0  0  0  0  0  0  0  0
   -1.2384   -0.5365   -1.2959 H   0  0  0  0  0  0  0  0  0  0  0  0
    0.0517    1.1810   -1.0890 C   0  0  0  0  0  0  0  0  0  0  0  0
    0.2151    1.1413   -2.1668 H   0  0  0  0  0  0  0  0  0  0  0  0
   -0.6813    1.9593   -0.8679 H   0  0  0  0  0  0  0  0  0  0  0  0
    1.3766    1.5180   -0.3910 C   0  0  0  0  0  0  0  0  0  0  0  0
    1.2130    1.5423    0.6890 H   0  0  0  0  0  0  0  0  0  0  0  0
    2.1087    0.7418   -0.6227 H   0  0  0  0  0  0  0  0  0  0  0  0
    1.8995    2.8804   -0.8633 C   0  0  0  0  0  0  0  0  0  0  0  0
    2.0494    2.8379   -1.9471 H   0  0  0  0  0  0  0  0  0  0  0  0
    1.1344    3.6358   -0.6602 H   0  0  0  0  0  0  0  0  0  0  0  0
    3.1698    3.2425   -0.1853 N   0  3  0  0  0  0  0  0  0  0  0  0
    3.8849    2.5525   -0.3782 H   0  0  0  0  0  0  0  0  0  0  0  0
    3.5009    4.1434   -0.5074 H   0  0  0  0  0  0  0  0  0  0  0  0
    3.0342    3.2919    0.8177 H   0  0  0  0  0  0  0  0  0  0  0  0
   -1.3103    1.3348    1.2791 C   0  0  0  0  0  0  0  0  0  0  0  0
   -2.2333    1.9891    0.8084 O   0  0  0  0  0  0  0  0  0  0  0  0
   -0.4429    1.8293    2.1683 N   0  0  0  0  0  0  0  0  0  0  0  0
    0.2668    1.2118    2.5263 H   0  0  0  0  0  0  0  0  0  0  0  0
   -0.5118    3.1863    2.7135 C   0  0  0  0  0  0  0  0  0  0  0  0
   -1.4470    3.3159    3.2625 H   0  0  0  0  0  0  0  0  0  0  0  0
    0.3243    3.3682    3.3896 H   0  0  0  0  0  0  0  0  0  0  0  0
   -0.4850    3.9172    1.9023 H   0  0  0  0  0  0  0  0  0  0  0  0
  5  6  2  0  0  0  0
  5  7  1  0  0  0  0
  2  3  1  0  0  0  0
  2  4  1  0  0  0  0
  2  5  1  0  0  0  0
  1  2  1  0  0  0  0
 27 28  2  0  0  0  0
 27 29  1  0  0  0  0
 23 24  1  0  0  0  0
 23 25  1  0  0  0  0
 23 26  1  0  0  0  0
 20 21  1  0  0  0  0
 20 22  1  0  0  0  0
 20 23  1  0  0  0  0
 17 18  1  0  0  0  0
 17 19  1  0  0  0  0
 17 20  1  0  0  0  0
 14 15  1  0  0  0  0
 14 16  1  0  0  0  0
 14 17  1  0  0  0  0
 11 12  1  0  0  0  0
 11 13  1  0  0  0  0
 11 14  1  0  0  0  0
  9 10  1  0  0  0  0
  9 11  1  0  0  0  0
  9 27  1  0  0  0  0
  7  8  1  0  0  0  0
  7  9  1  0  0  0  0
 31 32  1  0  0  0  0
 31 33  1  0  0  0  0
 31 34  1  0  0  0  0
 29 30  1  0  0  0  0
 29 31  1  0  0  0  0
M  CHG  1  23   1
M  END
$$$$
default_name
  -OEChem-02102213163D

 34 33  0     1  0  0  0  0  0999 V2000
   -3.8899   -3.6747    1.6490 H   0  0  0  0  0  0  0  0  0  0  0  0
   -3.9109   -2.6717    1.2250 C   0  0  0  0  0  0  0  0  0  0  0  0
   -4.6009   -2.0517    1.7950 H   0  0  0  0  0  0  0  0  0  0  0  0
   -4.2309   -2.7237    0.1860 H   0  0  0  0  0  0  0  0  0  0  0  0
   -2.5229   -2.0787    1.2980 C   0  0  0  0  0  0  0  0  0  0  0  0
   -1.5999   -2.7227    1.7810 O   0  0  0  0  0  0  0  0  0  0  0  0
   -2.3659   -0.8447    0.8120 N   0  0  0  0  0  0  0  0  0  0  0  0
   -3.1749   -0.3807    0.4220 H   0  0  0  0  0  0  0  0  0  0  0  0
   -1.0919   -0.1077    0.8170 C   0  0  1  0  0  0  0  0  0  0  0  0
   -0.4136   -0.6011    1.5155 H   0  0  0  0  0  0  0  0  0  0  0  0
   -0.4834   -0.1723   -0.5965 C   0  0  0  0  0  0  0  0  0  0  0  0
    0.3429   -0.8849   -0.5869 H   0  0  0  0  0  0  0  0  0  0  0  0
   -1.2384   -0.5365   -1.2959 H   0  0  0  0  0  0  0  0  0  0  0  0
    0.0517    1.1810   -1.0890 C   0  0  0  0  0  0  0  0  0  0  0  0
   -0.0352    1.2373   -2.1749 H   0  0  0  0  0  0  0  0  0  0  0  0
   -0.5371    1.9845   -0.6421 H   0  0  0  0  0  0  0  0  0  0  0  0
    1.5249    1.3497   -0.6924 C   0  0  0  0  0  0  0  0  0  0  0  0
    1.6106    1.2779    0.3946 H   0  0  0  0  0  0  0  0  0  0  0  0
    2.1106    0.5494   -1.1491 H   0  0  0  0  0  0  0  0  0  0  0  0
    2.0535    2.7109   -1.1617 C   0  0  0  0  0  0  0  0  0  0  0  0
    1.9520    2.7660   -2.2505 H   0  0  0  0  0  0  0  0  0  0  0  0
    1.4274    3.4958   -0.7266 H   0  0  0  0  0  0  0  0  0  0  0  0
    3.4716    2.9106   -0.7697 N   0  3  0  0  0  0  0  0  0  0  0  0
    4.0576    2.1931   -1.1780 H   0  0  0  0  0  0  0  0  0  0  0  0
    3.8048    3.8126   -1.0862 H   0  0  0  0  0  0  0  0  0  0  0  0
    3.5695    2.8693    0.2381 H   0  0  0  0  0  0  0  0  0  0  0  0
   -1.3103    1.3348    1.2791 C   0  0  0  0  0  0  0  0  0  0  0  0
   -2.2333    1.9891    0.8084 O   0  0  0  0  0  0  0  0  0  0  0  0
   -0.4429    1.8293    2.1683 N   0  0  0  0  0  0  0  0  0  0  0  0
    0.2668    1.2118    2.5263 H   0  0  0  0  0  0  0  0  0  0  0  0
   -0.5118    3.1863    2.7135 C   0  0  0  0  0  0  0  0  0  0  0  0
   -1.4470    3.3159    3.2625 H   0  0  0  0  0  0  0  0  0  0  0  0
    0.3243    3.3682    3.3896 H   0  0  0  0  0  0  0  0  0  0  0  0
   -0.4850    3.9172    1.9023 H   0  0  0  0  0  0  0  0  0  0  0  0
  5  6  2  0  0  0  0
  5  7  1  0  0  0  0
  2  3  1  0  0  0  0
  2  4  1  0  0  0  0
  2  5  1  0  0  0  0
  1  2  1  0  0  0  0
 27 28  2  0  0  0  0
 27 29  1  0  0  0  0
 23 24  1  0  0  0  0
 23 25  1  0  0  0  0
 23 26  1  0  0  0  0
 20 21  1  0  0  0  0
 20 22  1  0  0  0  0
 20 23  1  0  0  0  0
 17 18  1  0  0  0  0
 17 19  1  0  0  0  0
 17 20  1  0  0  0  0
 14 15  1  0  0  0  0
 14 16  1  0  0  0  0
 14 17  1  0  0  0  0
 11 12  1  0  0  0  0
 11 13  1  0  0  0  0
 11 14  1  0  0  0  0
  9 10  1  0  0  0  0
  9 11  1  0  0  0  0
  9 27  1  0  0  0  0
  7  8  1  0  0  0  0
  7  9  1  0  0  0  0
 31 32  1  0  0  0  0
 31 33  1  0  0  0  0
 31 34  1  0  0  0  0
 29 30  1  0  0  0  0
 29 31  1  0  0  0  0
M  CHG  1  23   1
M  END
$$$$
default_name
  -OEChem-02102213163D

 34 33  0     1  0  0  0  0  0999 V2000
   -3.8899   -3.6747    1.6490 H   0  0  0  0  0  0  0  0  0  0  0  0
   -3.9109   -2.6717    1.2250 C   0  0  0  0  0  0  0  0  0  0  0  0
   -4.6009   -2.0517    1.7950 H   0  0  0  0  0  0  0  0  0  0  0  0
   -4.2309   -2.7237    0.1860 H   0  0  0  0  0  0  0  0  0  0  0  0
   -2.5229   -2.0787    1.2980 C   0  0  0  0  0  0  0  0  0  0  0  0
   -1.5999   -2.7227    1.7810 O   0  0  0  0  0  0  0  0  0  0  0  0
   -2.3659   -0.8447    0.8120 N   0  0  0  0  0  0  0  0  0  0  0  0
   -3.1749   -0.3807    0.4220 H   0  0  0  0  0  0  0  0  0  0  0  0
   -1.0919   -0.1077    0.8170 C   0  0  1  0  0  0  0  0  0  0  0  0
   -0.4136   -0.6011    1.5155 H   0  0  0  0  0  0  0  0  0  0  0  0
   -0.4834   -0.1723   -0.5965 C   0  0  0  0  0  0  0  0  0  0  0  0
    0.3429   -0.8849   -0.5869 H   0  0  0  0  0  0  0  0  0  0  0  0
   -1.2384   -0.5365   -1.2959 H   0  0  0  0  0  0  0  0  0  0  0  0
    0.0517    1.1810   -1.0890 C   0  0  0  0  0  0  0  0  0  0  0  0
   -0.2707    1.3515   -2.1170 H   0  0  0  0  0  0  0  0  0  0  0  0
   -0.3442    1.9765   -0.4546 H   0  0  0  0  0  0  0  0  0  0  0  0
    1.5855    1.2021   -1.0324 C   0  0  0  0  0  0  0  0  0  0  0  0
    1.9055    1.0162   -0.0043 H   0  0  0  0  0  0  0  0  0  0  0  0
    1.9764    0.4110   -1.6754 H   0  0  0  0  0  0  0  0  0  0  0  0
    2.1202    2.5614   -1.5003 C   0  0  0  0  0  0  0  0  0  0  0  0
    1.7827    2.7320   -2.5278 H   0  0  0  0  0  0  0  0  0  0  0  0
    1.6837    3.3422   -0.8702 H   0  0  0  0  0  0  0  0  0  0  0  0
    3.6023    2.6175   -1.4329 N   0  3  0  0  0  0  0  0  0  0  0  0
    4.0123    1.9038   -2.0223 H   0  0  0  0  0  0  0  0  0  0  0  0
    3.9389    3.5201   -1.7443 H   0  0  0  0  0  0  0  0  0  0  0  0
    3.9194    2.4689   -0.4820 H   0  0  0  0  0  0  0  0  0  0  0  0
   -1.3103    1.3348    1.2791 C   0  0  0  0  0  0  0  0  0  0  0  0
   -2.2333    1.9891    0.8084 O   0  0  0  0  0  0  0  0  0  0  0  0
   -0.4429    1.8293    2.1683 N   0  0  0  0  0  0  0  0  0  0  0  0
    0.2668    1.2118    2.5263 H   0  0  0  0  0  0  0  0  0  0  0  0
   -0.5118    3.1863    2.7135 C   0  0  0  0  0  0  0  0  0  0  0  0
   -1.4470    3.3159    3.2625 H   0  0  0  0  0  0  0  0  0  0  0  0
    0.3243    3.3682    3.3896 H   0  0  0  0  0  0  0  0  0  0  0  0
   -0.4850    3.9172    1.9023 H   0  0  0  0  0  0  0  0  0  0  0  0
  5  6  2  0  0  0  0
  5  7  1  0  0  0  0
  2  3  1  0  0  0  0
  2  4  1  0  0  0  0
  2  5  1  0  0  0  0
  1  2  1  0  0  0  0
 27 28  2  0  0  0  0
 27 29  1  0  0  0  0
 23 24  1  0  0  0  0
 23 25  1  0  0  0  0
 23 26  1  0  0  0  0
 20 21  1  0  0  0  0
 20 22  1  0  0  0  0
 20 23  1  0  0  0  0
 17 18  1  0  0  0  0
 17 19  1  0  0  0  0
 17 20  1  0  0  0  0
 14 15  1  0  0  0  0
 14 16  1  0  0  0  0
 14 17  1  0  0  0  0
 11 12  1  0  0  0  0
 11 13  1  0  0  0  0
 11 14  1  0  0  0  0
  9 10  1  0  0  0  0
  9 11  1  0  0  0  0
  9 27  1  0  0  0  0
  7  8  1  0  0  0  0
  7  9  1  0  0  0  0
 31 32  1  0  0  0  0
 31 33  1  0  0  0  0
 31 34  1  0  0  0  0
 29 30  1  0  0  0  0
 29 31  1  0  0  0  0
M  CHG  1  23   1
M  END
$$$$
default_name
  -OEChem-02102213163D

 34 33  0     1  0  0  0  0  0999 V2000
   -3.8899   -3.6747    1.6490 H   0  0  0  0  0  0  0  0  0  0  0  0
   -3.9109   -2.6717    1.2250 C   0  0  0  0  0  0  0  0  0  0  0  0
   -4.6009   -2.0517    1.7950 H   0  0  0  0  0  0  0  0  0  0  0  0
   -4.2309   -2.7237    0.1860 H   0  0  0  0  0  0  0  0  0  0  0  0
   -2.5229   -2.0787    1.2980 C   0  0  0  0  0  0  0  0  0  0  0  0
   -1.5999   -2.7227    1.7810 O   0  0  0  0  0  0  0  0  0  0  0  0
   -2.3659   -0.8447    0.8120 N   0  0  0  0  0  0  0  0  0  0  0  0
   -3.1749   -0.3807    0.4220 H   0  0  0  0  0  0  0  0  0  0  0  0
   -1.0919   -0.1077    0.8170 C   0  0  1  0  0  0  0  0  0  0  0  0
   -0.4136   -0.6011    1.5155 H   0  0  0  0  0  0  0  0  0  0  0  0
   -0.4834   -0.1723   -0.5965 C   0  0  0  0  0  0  0  0  0  0  0  0
    0.3429   -0.8849   -0.5869 H   0  0  0  0  0  0  0  0  0  0  0  0
   -1.2384   -0.5365   -1.2959 H   0  0  0  0  0  0  0  0  0  0  0  0
    0.0517    1.1810   -1.0890 C   0  0  0  0  0  0  0  0  0  0  0  0
   -0.4756    1.4761   -1.9971 H   0  0  0  0  0  0  0  0  0  0  0  0
   -0.1158    1.9358   -0.3182 H   0  0  0  0  0  0  0  0  0  0  0  0
    1.5542    1.0850   -1.3879 C   0  0  0  0  0  0  0  0  0  0  0  0
    2.0778    0.7748   -0.4805 H   0  0  0  0  0  0  0  0  0  0  0  0
    1.7154    0.3358   -2.1656 H   0  0  0  0  0  0  0  0  0  0  0  0
    2.0950    2.4419   -1.8560 C   0  0  0  0  0  0  0  0  0  0  0  0
    1.5532    2.7382   -2.7602 H   0  0  0  0  0  0  0  0  0  0  0  0
    1.8857    3.1856   -1.0811 H   0  0  0  0  0  0  0  0  0  0  0  0
    3.5531    2.3834   -2.1297 N   0  3  0  0  0  0  0  0  0  0  0  0
    3.7520    1.7042   -2.8536 H   0  0  0  0  0  0  0  0  0  0  0  0
    3.8941    3.2858   -2.4369 H   0  0  0  0  0  0  0  0  0  0  0  0
    4.0600    2.1181   -1.2933 H   0  0  0  0  0  0  0  0  0  0  0  0
   -1.3103    1.3348    1.2791 C   0  0  0  0  0  0  0  0  0  0  0  0
   -2.2333    1.9891    0.8084 O   0  0  0  0  0  0  0  0  0  0  0  0
   -0.4429    1.8293    2.1683 N   0  0  0  0  0  0  0  0  0  0  0  0
    0.2668    1.2118    2.5263 H   0  0  0  0  0  0  0  0  0  0  0  0
   -0.5118    3.1863    2.7135 C   0  0  0  0  0  0  0  0  0  0  0  0
   -1.4470    3.3159    3.2625 H   0  0  0  0  0  0  0  0  0  0  0  0
    0.3243    3.3682    3.3896 H   0  0  0  0  0  0  0  0  0  0  0  0
   -0.4850    3.9172    1.9023 H   0  0  0  0  0  0  0  0  0  0  0  0
  5  6  2  0  0  0  0
  5  7  1  0  0  0  0
  2  3  1  0  0  0  0
  2  4  1  0  0  0  0
  2  5  1  0  0  0  0
  1  2  1  0  0  0  0
 27 28  2  0  0  0  0
 27 29  1  0  0  0  0
 23 24  1  0  0  0  0
 23 25  1  0  0  0  0
 23 26  1  0  0  0  0
 20 21  1  0  0  0  0
 20 22  1  0  0  0  0
 20 23  1  0  0  0  0
 17 18  1  0  0  0  0
 17 19  1  0  0  0  0
 17 20  1  0  0  0  0
 14 15  1  0  0  0  0
 14 16  1  0  0  0  0
 14 17  1  0  0  0  0
 11 12  1  0  0  0  0
 11 13  1  0  0  0  0
 11 14  1  0  0  0  0
  9 10  1  0  0  0  0
  9 11  1  0  0  0  0
  9 27  1  0  0  0  0
  7  8  1  0  0  0  0
  7  9  1  0  0  0  0
 31 32  1  0  0  0  0
 31 33  1  0  0  0  0
 31 34  1  0  0  0  0
 29 30  1  0  0  0  0
 29 31  1  0  0  0  0
M  CHG  1  23   1
M  END
$$$$
default_name
  -OEChem-02102213163D

 34 33  0     1  0  0  0  0  0999 V2000
   -3.8899   -3.6747    1.6490 H   0  0  0  0  0  0  0  0  0  0  0  0
   -3.9109   -2.6717    1.2250 C   0  0  0  0  0  0  0  0  0  0  0  0
   -4.6009   -2.0517    1.7950 H   0  0  0  0  0  0  0  0  0  0  0  0
   -4.2309   -2.7237    0.1860 H   0  0  0  0  0  0  0  0  0  0  0  0
   -2.5229   -2.0787    1.2980 C   0  0  0  0  0  0  0  0  0  0  0  0
   -1.5999   -2.7227    1.7810 O   0  0  0  0  0  0  0  0  0  0  0  0
   -2.3659   -0.8447    0.8120 N   0  0  0  0  0  0  0  0  0  0  0  0
   -3.1749   -0.3807    0.4220 H   0  0  0  0  0  0  0  0  0  0  0  0
   -1.0919   -0.1077    0.8170 C   0  0  1  0  0  0  0  0  0  0  0  0
   -0.4136   -0.6011    1.5155 H   0  0  0  0  0  0  0  0  0  0  0  0
   -0.4834   -0.1723   -0.5965 C   0  0  0  0  0  0  0  0  0  0  0  0
    0.3429   -0.8849   -0.5869 H   0  0  0  0  0  0  0  0  0  0  0  0
   -1.2384   -0.5365   -1.2959 H   0  0  0  0  0  0  0  0  0  0  0  0
    0.0517    1.1810   -1.0890 C   0  0  0  0  0  0  0  0  0  0  0  0
   -0.6359    1.6027   -1.8233 H   0  0  0  0  0  0  0  0  0  0  0  0
    0.1325    1.8653   -0.2421 H   0  0  0  0  0  0  0  0  0  0  0  0
    1.4332    1.0066   -1.7348 C   0  0  0  0  0  0  0  0  0  0  0  0
    2.1156    0.5703   -1.0014 H   0  0  0  0  0  0  0  0  0  0  0  0
    1.3453    0.3290   -2.5863 H   0  0  0  0  0  0  0  0  0  0  0  0
    1.9796    2.3606   -2.2046 C   0  0  0  0  0  0  0  0  0  0  0  0
    1.2791    2.7841   -2.9317 H   0  0  0  0  0  0  0  0  0  0  0  0
    2.0198    3.0365   -1.3451 H   0  0  0  0  0  0  0  0  0  0  0  0
    3.3273    2.2242   -2.8127 N   0  3  0  0  0  0  0  0  0  0  0  0
    3.2945    1.6080   -3.6152 H   0  0  0  0  0  0  0  0  0  0  0  0
    3.6735    3.1256   -3.1169 H   0  0  0  0  0  0  0  0  0  0  0  0
    3.9817    1.8407   -2.1407 H   0  0  0  0  0  0  0  0  0  0  0  0
   -1.3103    1.3348    1.2791 C   0  0  0  0  0  0  0  0  0  0  0  0
   -2.2333    1.9891    0.8084 O   0  0  0  0  0  0  0  0  0  0  0  0
   -0.4429    1.8293    2.1683 N   0  0  0  0  0  0  0  0  0  0  0  0
    0.2668    1.2118    2.5263 H   0  0  0  0  0  0  0  0  0  0  0  0
   -0.5118    3.1863    2.7135 C   0  0  0  0  0  0  0  0  0  0  0  0
   -1.4470    3.3159    3.2625 H   0  0  0  0  0  0  0  0  0  0  0  0
    0.3243    3.3682    3.3896 H   0  0  0  0  0  0  0  0  0  0  0  0
   -0.4850    3.9172    1.9023 H   0  0  0  0  0  0  0  0  0  0  0  0
  5  6  2  0  0  0  0
  5  7  1  0  0  0  0
  2  3  1  0  0  0  0
  2  4  1  0  0  0  0
  2  5  1  0  0  0  0
  1  2  1  0  0  0  0
 27 28  2  0  0  0  0
 27 29  1  0  0  0  0
 23 24  1  0  0  0  0
 23 25  1  0  0  0  0
 23 26  1  0  0  0  0
 20 21  1  0  0  0  0
 20 22  1  0  0  0  0
 20 23  1  0  0  0  0
 17 18  1  0  0  0  0
 17 19  1  0  0  0  0
 17 20  1  0  0  0  0
 14 15  1  0  0  0  0
 14 16  1  0  0  0  0
 14 17  1  0  0  0  0
 11 12  1  0  0  0  0
 11 13  1  0  0  0  0
 11 14  1  0  0  0  0
  9 10  1  0  0  0  0
  9 11  1  0  0  0  0
  9 27  1  0  0  0  0
  7  8  1  0  0  0  0
  7  9  1  0  0  0  0
 31 32  1  0  0  0  0
 31 33  1  0  0  0  0
 31 34  1  0  0  0  0
 29 30  1  0  0  0  0
 29 31  1  0  0  0  0
M  CHG  1  23   1
M  END
$$$$
default_name
  -OEChem-02102213163D

 34 33  0     1  0  0  0  0  0999 V2000
   -3.8899   -3.6747    1.6490 H   0  0  0  0  0  0  0  0  0  0  0  0
   -3.9109   -2.6717    1.2250 C   0  0  0  0  0  0  0  0  0  0  0  0
   -4.6009   -2.0517    1.7950 H   0  0  0  0  0  0  0  0  0  0  0  0
   -4.2309   -2.7237    0.1860 H   0  0  0  0  0  0  0  0  0  0  0  0
   -2.5229   -2.0787    1.2980 C   0  0  0  0  0  0  0  0  0  0  0  0
   -1.5999   -2.7227    1.7810 O   0  0  0  0  0  0  0  0  0  0  0  0
   -2.3659   -0.8447    0.8120 N   0  0  0  0  0  0  0  0  0  0  0  0
   -3.1749   -0.3807    0.4220 H   0  0  0  0  0  0  0  0  0  0  0  0
   -1.0919   -0.1077    0.8170 C   0  0  1  0  0  0  0  0  0  0  0  0
   -0.4136   -0.6011    1.5155 H   0  0  0  0  0  0  0  0  0  0  0  0
   -0.4834   -0.1723   -0.5965 C   0  0  0  0  0  0  0  0  0  0  0  0
    0.3429   -0.8849   -0.5869 H   0  0  0  0  0  0  0  0  0  0  0  0
   -1.2384   -0.5365   -1.2959 H   0  0  0  0  0  0  0  0  0  0  0  0
    0.0517    1.1810   -1.0890 C   0  0  0  0  0  0  0  0  0  0  0  0
   -0.7405    1.7226   -1.6075 H   0  0  0  0  0  0  0  0  0  0  0  0
    0.3838    1.7697   -0.2316 H   0  0  0  0  0  0  0  0  0  0  0  0
    1.2308    0.9722   -2.0493 C   0  0  0  0  0  0  0  0  0  0  0  0
    2.0164    0.4166   -1.5316 H   0  0  0  0  0  0  0  0  0  0  0  0
    0.8912    0.3911   -2.9090 H   0  0  0  0  0  0  0  0  0  0  0  0
    1.7820    2.3231   -2.5224 C   0  0  0  0  0  0  0  0  0  0  0  0
    0.9790    2.8667   -3.0308 H   0  0  0  0  0  0  0  0  0  0  0  0
    2.0768    2.9052   -1.6440 H   0  0  0  0  0  0  0  0  0  0  0  0
    2.9402    2.1507   -3.4352 N   0  3  0  0  0  0  0  0  0  0  0  0
    2.6709    1.6216   -4.2552 H   0  0  0  0  0  0  0  0  0  0  0  0
    3.2921    3.0504   -3.7378 H   0  0  0  0  0  0  0  0  0  0  0  0
    3.6899    1.6556   -2.9664 H   0  0  0  0  0  0  0  0  0  0  0  0
   -1.3103    1.3348    1.2791 C   0  0  0  0  0  0  0  0  0  0  0  0
   -2.2333    1.9891    0.8084 O   0  0  0  0  0  0  0  0  0  0  0  0
   -0.4429    1.8293    2.1683 N   0  0  0  0  0  0  0  0  0  0  0  0
    0.2668    1.2118    2.5263 H   0  0  0  0  0  0  0  0  0  0  0  0
   -0.5118    3.1863    2.7135 C   0  0  0  0  0  0  0  0  0  0  0  0
   -1.4470    3.3159    3.2625 H   0  0  0  0  0  0  0  0  0  0  0  0
    0.3243    3.3682    3.3896 H   0  0  0  0  0  0  0  0  0  0  0  0
   -0.4850    3.9172    1.9023 H   0  0  0  0  0  0  0  0  0  0  0  0
  5  6  2  0  0  0  0
  5  7  1  0  0  0  0
  2  3  1  0  0  0  0
  2  4  1  0  0  0  0
  2  5  1  0  0  0  0
  1  2  1  0  0  0  0
 27 28  2  0  0  0  0
 27 29  1  0  0  0  0
 23 24  1  0  0  0  0
 23 25  1  0  0  0  0
 23 26  1  0  0  0  0
 20 21  1  0  0  0  0
 20 22  1  0  0  0  0
 20 23  1  0  0  0  0
 17 18  1  0  0  0  0
 17 19  1  0  0  0  0
 17 20  1  0  0  0  0
 14 15  1  0  0  0  0
 14 16  1  0  0  0  0
 14 17  1  0  0  0  0
 11 12  1  0  0  0  0
 11 13  1  0  0  0  0
 11 14  1  0  0  0  0
  9 10  1  0  0  0  0
  9 11  1  0  0  0  0
  9 27  1  0  0  0  0
  7  8  1  0  0  0  0
  7  9  1  0  0  0  0
 31 32  1  0  0  0  0
 31 33  1  0  0  0  0
 31 34  1  0  0  0  0
 29 30  1  0  0  0  0
 29 31  1  0  0  0  0
M  CHG  1  23   1
M  END
$$$$
default_name
  -OEChem-02102213163D

 34 33  0     1  0  0  0  0  0999 V2000
   -3.8899   -3.6747    1.6490 H   0  0  0  0  0  0  0  0  0  0  0  0
   -3.9109   -2.6717    1.2250 C   0  0  0  0  0  0  0  0  0  0  0  0
   -4.6009   -2.0517    1.7950 H   0  0  0  0  0  0  0  0  0  0  0  0
   -4.2309   -2.7237    0.1860 H   0  0  0  0  0  0  0  0  0  0  0  0
   -2.5229   -2.0787    1.2980 C   0  0  0  0  0  0  0  0  0  0  0  0
   -1.5999   -2.7227    1.7810 O   0  0  0  0  0  0  0  0  0  0  0  0
   -2.3659   -0.8447    0.8120 N   0  0  0  0  0  0  0  0  0  0  0  0
   -3.1749   -0.3807    0.4220 H   0  0  0  0  0  0  0  0  0  0  0  0
   -1.0919   -0.1077    0.8170 C   0  0  1  0  0  0  0  0  0  0  0  0
   -0.4136   -0.6011    1.5155 H   0  0  0  0  0  0  0  0  0  0  0  0
   -0.4834   -0.1723   -0.5965 C   0  0  0  0  0  0  0  0  0  0  0  0
    0.3429   -0.8849   -0.5869 H   0  0  0  0  0  0  0  0  0  0  0  0
   -1.2384   -0.5365   -1.2959 H   0  0  0  0  0  0  0  0  0  0  0  0
    0.0517    1.1810   -1.0890 C   0  0  0  0  0  0  0  0  0  0  0  0
   -0.7824    1.8277   -1.3644 H   0  0  0  0  0  0  0  0  0  0  0  0
    0.6211    1.6556   -0.2874 H   0  0  0  0  0  0  0  0  0  0  0  0
    0.9607    0.9841   -2.3100 C   0  0  0  0  0  0  0  0  0  0  0  0
    1.7869    0.3241   -2.0350 H   0  0  0  0  0  0  0  0  0  0  0  0
    0.3843    0.5179   -3.1116 H   0  0  0  0  0  0  0  0  0  0  0  0
    1.5155    2.3320   -2.7877 C   0  0  0  0  0  0  0  0  0  0  0  0
    0.6734    2.9803   -3.0506 H   0  0  0  0  0  0  0  0  0  0  0  0
    2.0528    2.8005   -1.9576 H   0  0  0  0  0  0  0  0  0  0  0  0
    2.4183    2.1679   -3.9549 N   0  3  0  0  0  0  0  0  0  0  0  0
    1.9238    1.7442   -4.7300 H   0  0  0  0  0  0  0  0  0  0  0  0
    2.7758    3.0655   -4.2574 H   0  0  0  0  0  0  0  0  0  0  0  0
    3.2044    1.5755   -3.7141 H   0  0  0  0  0  0  0  0  0  0  0  0
   -1.3103    1.3348    1.2791 C   0  0  0  0  0  0  0  0  0  0  0  0
   -2.2333    1.9891    0.8084 O   0  0  0  0  0  0  0  0  0  0  0  0
   -0.4429    1.8293    2.1683 N   0  0  0  0  0  0  0  0  0  0  0  0
    0.2668    1.2118    2.5263 H   0  0  0  0  0  0  0  0  0  0  0  0
   -0.5118    3.1863    2.7135 C   0  0  0  0  0  0  0  0  0  0  0  0
   -1.4470    3.3159    3.2625 H   0  0  0  0  0  0  0  0  0  0  0  0
    0.3243    3.3682    3.3896 H   0  0  0  0  0  0  0  0  0  0  0  0
   -0.4850    3.9172    1.9023 H   0  0  0  0  0  0  0  0  0  0  0  0
  5  6  2  0  0  0  0
  5  7  1  0  0  0  0
  2  3  1  0  0  0  0
  2  4  1  0  0  0  0
  2  5  1  0  0  0  0
  1  2  1  0  0  0  0
 27 28  2  0  0  0  0
 27 29  1  0  0  0  0
 23 24  1  0  0  0  0
 23 25  1  0  0  0  0
 23 26  1  0  0  0  0
 20 21  1  0  0  0  0
 20 22  1  0  0  0  0
 20 23  1  0  0  0  0
 17 18  1  0  0  0  0
 17 19  1  0  0  0  0
 17 20  1  0  0  0  0
 14 15  1  0  0  0  0
 14 16  1  0  0  0  0
 14 17  1  0  0  0  0
 11 12  1  0  0  0  0
 11 13  1  0  0  0  0
 11 14  1  0  0  0  0
  9 10  1  0  0  0  0
  9 11  1  0  0  0  0
  9 27  1  0  0  0  0
  7  8  1  0  0  0  0
  7  9  1  0  0  0  0
 31 32  1  0  0  0  0
 31 33  1  0  0  0  0
 31 34  1  0  0  0  0
 29 30  1  0  0  0  0
 29 31  1  0  0  0  0
M  CHG  1  23   1
M  END
$$$$
default_name
  -OEChem-02102213163D

 34 33  0     1  0  0  0  0  0999 V2000
   -3.8899   -3.6747    1.6490 H   0  0  0  0  0  0  0  0  0  0  0  0
   -3.9109   -2.6717    1.2250 C   0  0  0  0  0  0  0  0  0  0  0  0
   -4.6009   -2.0517    1.7950 H   0  0  0  0  0  0  0  0  0  0  0  0
   -4.2309   -2.7237    0.1860 H   0  0  0  0  0  0  0  0  0  0  0  0
   -2.5229   -2.0787    1.2980 C   0  0  0  0  0  0  0  0  0  0  0  0
   -1.5999   -2.7227    1.7810 O   0  0  0  0  0  0  0  0  0  0  0  0
   -2.3659   -0.8447    0.8120 N   0  0  0  0  0  0  0  0  0  0  0  0
   -3.1749   -0.3807    0.4220 H   0  0  0  0  0  0  0  0  0  0  0  0
   -1.0919   -0.1077    0.8170 C   0  0  1  0  0  0  0  0  0  0  0  0
   -0.4136   -0.6011    1.5155 H   0  0  0  0  0  0  0  0  0  0  0  0
   -0.4834   -0.1723   -0.5965 C   0  0  0  0  0  0  0  0  0  0  0  0
    0.1501   -1.0583   -0.6620 H   0  0  0  0  0  0  0  0  0  0  0  0
   -1.2868   -0.2738   -1.3287 H   0  0  0  0  0  0  0  0  0  0  0  0
    0.3684    1.0573   -0.9469 C   0  0  0  0  0  0  0  0  0  0  0  0
   -0.2454    1.9573   -0.8917 H   0  0  0  0  0  0  0  0  0  0  0  0
    1.1895    1.1413   -0.2323 H   0  0  0  0  0  0  0  0  0  0  0  0
    0.9408    0.9246   -2.3650 C   0  0  0  0  0  0  0  0  0  0  0  0
    1.5428    0.0145   -2.4212 H   0  0  0  0  0  0  0  0  0  0  0  0
    0.1159    0.8502   -3.0764 H   0  0  0  0  0  0  0  0  0  0  0  0
    1.8117    2.1399   -2.7070 C   0  0  0  0  0  0  0  0  0  0  0  0
    1.1931    3.0407   -2.6376 H   0  0  0  0  0  0  0  0  0  0  0  0
    2.6058    2.2202   -1.9586 H   0  0  0  0  0  0  0  0  0  0  0  0
    2.3982    2.0260   -4.0663 N   0  3  0  0  0  0  0  0  0  0  0  0
    1.6679    1.9620   -4.7643 H   0  0  0  0  0  0  0  0  0  0  0  0
    2.9697    2.8349   -4.2763 H   0  0  0  0  0  0  0  0  0  0  0  0
    2.9789    1.1983   -4.1331 H   0  0  0  0  0  0  0  0  0  0  0  0
   -1.3103    1.3348    1.2791 C   0  0  0  0  0  0  0  0  0  0  0  0
   -2.2333    1.9891    0.8084 O   0  0  0  0  0  0  0  0  0  0  0  0
   -0.4429    1.8293    2.1683 N   0  0  0  0  0  0  0  0  0  0  0  0
    0.2668    1.2118    2.5263 H   0  0  0  0  0  0  0  0  0  0  0  0
   -0.5118    3.1863    2.7135 C   0  0  0  0  0  0  0  0  0  0  0  0
   -1.4470    3.3159    3.2625 H   0  0  0  0  0  0  0  0  0  0  0  0
    0.3243    3.3682    3.3896 H   0  0  0  0  0  0  0  0  0  0  0  0
   -0.4850    3.9172    1.9023 H   0  0  0  0  0  0  0  0  0  0  0  0
  5  6  2  0  0  0  0
  5  7  1  0  0  0  0
  2  3  1  0  0  0  0
  2  4  1  0  0  0  0
  2  5  1  0  0  0  0
  1  2  1  0  0  0  0
 27 28  2  0  0  0  0
 27 29  1  0  0  0  0
 23 24  1  0  0  0  0
 23 25  1  0  0  0  0
 23 26  1  0  0  0  0
 20 21  1  0  0  0  0
 20 22  1  0  0  0  0
 20 23  1  0  0  0  0
 17 18  1  0  0  0  0
 17 19  1  0  0  0  0
 17 20  1  0  0  0  0
 14 15  1  0  0  0  0
 14 16  1  0  0  0  0
 14 17  1  0  0  0  0
 11 12  1  0  0  0  0
 11 13  1  0  0  0  0
 11 14  1  0  0  0  0
  9 10  1  0  0  0  0
  9 11  1  0  0  0  0
  9 27  1  0  0  0  0
  7  8  1  0  0  0  0
  7  9  1  0  0  0  0
 31 32  1  0  0  0  0
 31 33  1  0  0  0  0
 31 34  1  0  0  0  0
 29 30  1  0  0  0  0
 29 31  1  0  0  0  0
M  CHG  1  23   1
M  END
$$$$
default_name
  -OEChem-02102213163D

 34 33  0     1  0  0  0  0  0999 V2000
   -3.8899   -3.6747    1.6490 H   0  0  0  0  0  0  0  0  0  0  0  0
   -3.9109   -2.6717    1.2250 C   0  0  0  0  0  0  0  0  0  0  0  0
   -4.6009   -2.0517    1.7950 H   0  0  0  0  0  0  0  0  0  0  0  0
   -4.2309   -2.7237    0.1860 H   0  0  0  0  0  0  0  0  0  0  0  0
   -2.5229   -2.0787    1.2980 C   0  0  0  0  0  0  0  0  0  0  0  0
   -1.5999   -2.7227    1.7810 O   0  0  0  0  0  0  0  0  0  0  0  0
   -2.3659   -0.8447    0.8120 N   0  0  0  0  0  0  0  0  0  0  0  0
   -3.1749   -0.3807    0.4220 H   0  0  0  0  0  0  0  0  0  0  0  0
   -1.0919   -0.1077    0.8170 C   0  0  1  0  0  0  0  0  0  0  0  0
   -0.4136   -0.6011    1.5155 H   0  0  0  0  0  0  0  0  0  0  0  0
   -0.4834   -0.1723   -0.5965 C   0  0  0  0  0  0  0  0  0  0  0  0
    0.1501   -1.0583   -0.6620 H   0  0  0  0  0  0  0  0  0  0  0  0
   -1.2868   -0.2738   -1.3287 H   0  0  0  0  0  0  0  0  0  0  0  0
    0.3684    1.0573   -0.9469 C   0  0  0  0  0  0  0  0  0  0  0  0
   -0.1530    1.9650   -0.6401 H   0  0  0  0  0  0  0  0  0  0  0  0
    1.3213    0.9973   -0.4174 H   0  0  0  0  0  0  0  0  0  0  0  0
    0.6298    1.1134   -2.4584 C   0  0  0  0  0  0  0  0  0  0  0  0
    1.1387    0.1964   -2.7651 H   0  0  0  0  0  0  0  0  0  0  0  0
   -0.3254    1.1827   -2.9826 H   0  0  0  0  0  0  0  0  0  0  0  0
    1.5009    2.3268   -2.8067 C   0  0  0  0  0  0  0  0  0  0  0  0
    0.9778    3.2333   -2.4851 H   0  0  0  0  0  0  0  0  0  0  0  0
    2.4341    2.2592   -2.2394 H   0  0  0  0  0  0  0  0  0  0  0  0
    1.7894    2.3921   -4.2617 N   0  3  0  0  0  0  0  0  0  0  0  0
    0.9300    2.4654   -4.7916 H   0  0  0  0  0  0  0  0  0  0  0  0
    2.3648    3.1973   -4.4748 H   0  0  0  0  0  0  0  0  0  0  0  0
    2.2815    1.5590   -4.5629 H   0  0  0  0  0  0  0  0  0  0  0  0
   -1.3103    1.3348    1.2791 C   0  0  0  0  0  0  0  0  0  0  0  0
   -2.2333    1.9891    0.8084 O   0  0  0  0  0  0  0  0  0  0  0  0
   -0.4429    1.8293    2.1683 N   0  0  0  0  0  0  0  0  0  0  0  0
    0.2668    1.2118    2.5263 H   0  0  0  0  0  0  0  0  0  0  0  0
   -0.5118    3.1863    2.7135 C   0  0  0  0  0  0  0  0  0  0  0  0
   -1.4470    3.3159    3.2625 H   0  0  0  0  0  0  0  0  0  0  0  0
    0.3243    3.3682    3.3896 H   0  0  0  0  0  0  0  0  0  0  0  0
   -0.4850    3.9172    1.9023 H   0  0  0  0  0  0  0  0  0  0  0  0
  5  6  2  0  0  0  0
  5  7  1  0  0  0  0
  2  3  1  0  0  0  0
  2  4  1  0  0  0  0
  2  5  1  0  0  0  0
  1  2  1  0  0  0  0
 27 28  2  0  0  0  0
 27 29  1  0  0  0  0
 23 24  1  0  0  0  0
 23 25  1  0  0  0  0
 23 26  1  0  0  0  0
 20 21  1  0  0  0  0
 20 22  1  0  0  0  0
 20 23  1  0  0  0  0
 17 18  1  0  0  0  0
 17 19  1  0  0  0  0
 17 20  1  0  0  0  0
 14 15  1  0  0  0  0
 14 16  1  0  0  0  0
 14 17  1  0  0  0  0
 11 12  1  0  0  0  0
 11 13  1  0  0  0  0
 11 14  1  0  0  0  0
  9 10  1  0  0  0  0
  9 11  1  0  0  0  0
  9 27  1  0  0  0  0
  7  8  1  0  0  0  0
  7  9  1  0  0  0  0
 31 32  1  0  0  0  0
 31 33  1  0  0  0  0
 31 34  1  0  0  0  0
 29 30  1  0  0  0  0
 29 31  1  0  0  0  0
M  CHG  1  23   1
M  END
$$$$
default_name
  -OEChem-02102213163D

 34 33  0     1  0  0  0  0  0999 V2000
   -3.8899   -3.6747    1.6490 H   0  0  0  0  0  0  0  0  0  0  0  0
   -3.9109   -2.6717    1.2250 C   0  0  0  0  0  0  0  0  0  0  0  0
   -4.6009   -2.0517    1.7950 H   0  0  0  0  0  0  0  0  0  0  0  0
   -4.2309   -2.7237    0.1860 H   0  0  0  0  0  0  0  0  0  0  0  0
   -2.5229   -2.0787    1.2980 C   0  0  0  0  0  0  0  0  0  0  0  0
   -1.5999   -2.7227    1.7810 O   0  0  0  0  0  0  0  0  0  0  0  0
   -2.3659   -0.8447    0.8120 N   0  0  0  0  0  0  0  0  0  0  0  0
   -3.1749   -0.3807    0.4220 H   0  0  0  0  0  0  0  0  0  0  0  0
   -1.0919   -0.1077    0.8170 C   0  0  1  0  0  0  0  0  0  0  0  0
   -0.4136   -0.6011    1.5155 H   0  0  0  0  0  0  0  0  0  0  0  0
   -0.4834   -0.1723   -0.5965 C   0  0  0  0  0  0  0  0  0  0  0  0
    0.1501   -1.0583   -0.6620 H   0  0  0  0  0  0  0  0  0  0  0  0
   -1.2868   -0.2738   -1.3287 H   0  0  0  0  0  0  0  0  0  0  0  0
    0.3684    1.0573   -0.9469 C   0  0  0  0  0  0  0  0  0  0  0  0
   -0.0111    1.9308   -0.4151 H   0  0  0  0  0  0  0  0  0  0  0  0
    1.4018    0.8769   -0.6443 H   0  0  0  0  0  0  0  0  0  0  0  0
    0.3212    1.3275   -2.4572 C   0  0  0  0  0  0  0  0  0  0  0  0
    0.6879    0.4453   -2.9874 H   0  0  0  0  0  0  0  0  0  0  0  0
   -0.7127    1.5164   -2.7530 H   0  0  0  0  0  0  0  0  0  0  0  0
    1.1911    2.5400   -2.8119 C   0  0  0  0  0  0  0  0  0  0  0  0
    0.8128    3.4102   -2.2655 H   0  0  0  0  0  0  0  0  0  0  0  0
    2.2123    2.3473   -2.4695 H   0  0  0  0  0  0  0  0  0  0  0  0
    1.1825    2.8096   -4.2719 N   0  3  0  0  0  0  0  0  0  0  0  0
    0.2413    2.9991   -4.5929 H   0  0  0  0  0  0  0  0  0  0  0  0
    1.7609    3.6116   -4.4892 H   0  0  0  0  0  0  0  0  0  0  0  0
    1.5401    2.0102   -4.7817 H   0  0  0  0  0  0  0  0  0  0  0  0
   -1.3103    1.3348    1.2791 C   0  0  0  0  0  0  0  0  0  0  0  0
   -2.2333    1.9891    0.8084 O   0  0  0  0  0  0  0  0  0  0  0  0
   -0.4429    1.8293    2.1683 N   0  0  0  0  0  0  0  0  0  0  0  0
    0.2668    1.2118    2.5263 H   0  0  0  0  0  0  0  0  0  0  0  0
   -0.5118    3.1863    2.7135 C   0  0  0  0  0  0  0  0  0  0  0  0
   -1.4470    3.3159    3.2625 H   0  0  0  0  0  0  0  0  0  0  0  0
    0.3243    3.3682    3.3896 H   0  0  0  0  0  0  0  0  0  0  0  0
   -0.4850    3.9172    1.9023 H   0  0  0  0  0  0  0  0  0  0  0  0
  5  6  2  0  0  0  0
  5  7  1  0  0  0  0
  2  3  1  0  0  0  0
  2  4  1  0  0  0  0
  2  5  1  0  0  0  0
  1  2  1  0  0  0  0
 27 28  2  0  0  0  0
 27 29  1  0  0  0  0
 23 24  1  0  0  0  0
 23 25  1  0  0  0  0
 23 26  1  0  0  0  0
 20 21  1  0  0  0  0
 20 22  1  0  0  0  0
 20 23  1  0  0  0  0
 17 18  1  0  0  0  0
 17 19  1  0  0  0  0
 17 20  1  0  0  0  0
 14 15  1  0  0  0  0
 14 16  1  0  0  0  0
 14 17  1  0  0  0  0
 11 12  1  0  0  0  0
 11 13  1  0  0  0  0
 11 14  1  0  0  0  0
  9 10  1  0  0  0  0
  9 11  1  0  0  0  0
  9 27  1  0  0  0  0
  7  8  1  0  0  0  0
  7  9  1  0  0  0  0
 31 32  1  0  0  0  0
 31 33  1  0  0  0  0
 31 34  1  0  0  0  0
 29 30  1  0  0  0  0
 29 31  1  0  0  0  0
M  CHG  1  23   1
M  END
$$$$
default_name
  -OEChem-02102213163D

 34 33  0     1  0  0  0  0  0999 V2000
   -3.8899   -3.6747    1.6490 H   0  0  0  0  0  0  0  0  0  0  0  0
   -3.9109   -2.6717    1.2250 C   0  0  0  0  0  0  0  0  0  0  0  0
   -4.6009   -2.0517    1.7950 H   0  0  0  0  0  0  0  0  0  0  0  0
   -4.2309   -2.7237    0.1860 H   0  0  0  0  0  0  0  0  0  0  0  0
   -2.5229   -2.0787    1.2980 C   0  0  0  0  0  0  0  0  0  0  0  0
   -1.5999   -2.7227    1.7810 O   0  0  0  0  0  0  0  0  0  0  0  0
   -2.3659   -0.8447    0.8120 N   0  0  0  0  0  0  0  0  0  0  0  0
   -3.1749   -0.3807    0.4220 H   0  0  0  0  0  0  0  0  0  0  0  0
   -1.0919   -0.1077    0.8170 C   0  0  1  0  0  0  0  0  0  0  0  0
   -0.4136   -0.6011    1.5155 H   0  0  0  0  0  0  0  0  0  0  0  0
   -0.4834   -0.1723   -0.5965 C   0  0  0  0  0  0  0  0  0  0  0  0
    0.1501   -1.0583   -0.6620 H   0  0  0  0  0  0  0  0  0  0  0  0
   -1.2868   -0.2738   -1.3287 H   0  0  0  0  0  0  0  0  0  0  0  0
    0.3684    1.0573   -0.9469 C   0  0  0  0  0  0  0  0  0  0  0  0
    0.1705    1.8572   -0.2322 H   0  0  0  0  0  0  0  0  0  0  0  0
    1.4254    0.7884   -0.8973 H   0  0  0  0  0  0  0  0  0  0  0  0
    0.0360    1.5524   -2.3613 C   0  0  0  0  0  0  0  0  0  0  0  0
    0.2211    0.7443   -3.0731 H   0  0  0  0  0  0  0  0  0  0  0  0
   -1.0194    1.8286   -2.4030 H   0  0  0  0  0  0  0  0  0  0  0  0
    0.9033    2.7649   -2.7220 C   0  0  0  0  0  0  0  0  0  0  0  0
    0.7094    3.5592   -1.9939 H   0  0  0  0  0  0  0  0  0  0  0  0
    1.9556    2.4784   -2.6331 H   0  0  0  0  0  0  0  0  0  0  0  0
    0.6188    3.2502   -4.0961 N   0  3  0  0  0  0  0  0  0  0  0  0
   -0.3513    3.5267   -4.1817 H   0  0  0  0  0  0  0  0  0  0  0  0
    1.1989    4.0495   -4.3186 H   0  0  0  0  0  0  0  0  0  0  0  0
    0.8052    2.5212   -4.7748 H   0  0  0  0  0  0  0  0  0  0  0  0
   -1.3103    1.3348    1.2791 C   0  0  0  0  0  0  0  0  0  0  0  0
   -2.2333    1.9891    0.8084 O   0  0  0  0  0  0  0  0  0  0  0  0
   -0.4429    1.8293    2.1683 N   0  0  0  0  0  0  0  0  0  0  0  0
    0.2668    1.2118    2.5263 H   0  0  0  0  0  0  0  0  0  0  0  0
   -0.5118    3.1863    2.7135 C   0  0  0  0  0  0  0  0  0  0  0  0
   -1.4470    3.3159    3.2625 H   0  0  0  0  0  0  0  0  0  0  0  0
    0.3243    3.3682    3.3896 H   0  0  0  0  0  0  0  0  0  0  0  0
   -0.4850    3.9172    1.9023 H   0  0  0  0  0  0  0  0  0  0  0  0
  5  6  2  0  0  0  0
  5  7  1  0  0  0  0
  2  3  1  0  0  0  0
  2  4  1  0  0  0  0
  2  5  1  0  0  0  0
  1  2  1  0  0  0  0
 27 28  2  0  0  0  0
 27 29  1  0  0  0  0
 23 24  1  0  0  0  0
 23 25  1  0  0  0  0
 23 26  1  0  0  0  0
 20 21  1  0  0  0  0
 20 22  1  0  0  0  0
 20 23  1  0  0  0  0
 17 18  1  0  0  0  0
 17 19  1  0  0  0  0
 17 20  1  0  0  0  0
 14 15  1  0  0  0  0
 14 16  1  0  0  0  0
 14 17  1  0  0  0  0
 11 12  1  0  0  0  0
 11 13  1  0  0  0  0
 11 14  1  0  0  0  0
  9 10  1  0  0  0  0
  9 11  1  0  0  0  0
  9 27  1  0  0  0  0
  7  8  1  0  0  0  0
  7  9  1  0  0  0  0
 31 32  1  0  0  0  0
 31 33  1  0  0  0  0
 31 34  1  0  0  0  0
 29 30  1  0  0  0  0
 29 31  1  0  0  0  0
M  CHG  1  23   1
M  END
$$$$
default_name
  -OEChem-02102213163D

 34 33  0     1  0  0  0  0  0999 V2000
   -3.8899   -3.6747    1.6490 H   0  0  0  0  0  0  0  0  0  0  0  0
   -3.9109   -2.6717    1.2250 C   0  0  0  0  0  0  0  0  0  0  0  0
   -4.6009   -2.0517    1.7950 H   0  0  0  0  0  0  0  0  0  0  0  0
   -4.2309   -2.7237    0.1860 H   0  0  0  0  0  0  0  0  0  0  0  0
   -2.5229   -2.0787    1.2980 C   0  0  0  0  0  0  0  0  0  0  0  0
   -1.5999   -2.7227    1.7810 O   0  0  0  0  0  0  0  0  0  0  0  0
   -2.3659   -0.8447    0.8120 N   0  0  0  0  0  0  0  0  0  0  0  0
   -3.1749   -0.3807    0.4220 H   0  0  0  0  0  0  0  0  0  0  0  0
   -1.0919   -0.1077    0.8170 C   0  0  1  0  0  0  0  0  0  0  0  0
   -0.4136   -0.6011    1.5155 H   0  0  0  0  0  0  0  0  0  0  0  0
   -0.4834   -0.1723   -0.5965 C   0  0  0  0  0  0  0  0  0  0  0  0
    0.1501   -1.0583   -0.6620 H   0  0  0  0  0  0  0  0  0  0  0  0
   -1.2868   -0.2738   -1.3287 H   0  0  0  0  0  0  0  0  0  0  0  0
    0.3684    1.0573   -0.9469 C   0  0  0  0  0  0  0  0  0  0  0  0
    0.3795    1.7491   -0.1036 H   0  0  0  0  0  0  0  0  0  0  0  0
    1.3906    0.7378   -1.1593 H   0  0  0  0  0  0  0  0  0  0  0  0
   -0.2063    1.7727   -2.1774 C   0  0  0  0  0  0  0  0  0  0  0  0
   -0.2299    1.0729   -3.0162 H   0  0  0  0  0  0  0  0  0  0  0  0
   -1.2248    2.0982   -1.9566 H   0  0  0  0  0  0  0  0  0  0  0  0
    0.6573    2.9863   -2.5434 C   0  0  0  0  0  0  0  0  0  0  0  0
    0.6745    3.6704   -1.6888 H   0  0  0  0  0  0  0  0  0  0  0  0
    1.6815    2.6438   -2.7192 H   0  0  0  0  0  0  0  0  0  0  0  0
    0.1367    3.6838   -3.7463 N   0  3  0  0  0  0  0  0  0  0  0  0
   -0.8073    4.0124   -3.5860 H   0  0  0  0  0  0  0  0  0  0  0  0
    0.7173    4.4812   -3.9745 H   0  0  0  0  0  0  0  0  0  0  0  0
    0.1271    3.0572   -4.5426 H   0  0  0  0  0  0  0  0  0  0  0  0
   -1.3103    1.3348    1.2791 C   0  0  0  0  0  0  0  0  0  0  0  0
   -2.2333    1.9891    0.8084 O   0  0  0  0  0  0  0  0  0  0  0  0
   -0.4429    1.8293    2.1683 N   0  0  0  0  0  0  0  0  0  0  0  0
    0.2668    1.2118    2.5263 H   0  0  0  0  0  0  0  0  0  0  0  0
   -0.5118    3.1863    2.7135 C   0  0  0  0  0  0  0  0  0  0  0  0
   -1.4470    3.3159    3.2625 H   0  0  0  0  0  0  0  0  0  0  0  0
    0.3243    3.3682    3.3896 H   0  0  0  0  0  0  0  0  0  0  0  0
   -0.4850    3.9172    1.9023 H   0  0  0  0  0  0  0  0  0  0  0  0
  5  6  2  0  0  0  0
  5  7  1  0  0  0  0
  2  3  1  0  0  0  0
  2  4  1  0  0  0  0
  2  5  1  0  0  0  0
  1  2  1  0  0  0  0
 27 28  2  0  0  0  0
 27 29  1  0  0  0  0
 23 24  1  0  0  0  0
 23 25  1  0  0  0  0
 23 26  1  0  0  0  0
 20 21  1  0  0  0  0
 20 22  1  0  0  0  0
 20 23  1  0  0  0  0
 17 18  1  0  0  0  0
 17 19  1  0  0  0  0
 17 20  1  0  0  0  0
 14 15  1  0  0  0  0
 14 16  1  0  0  0  0
 14 17  1  0  0  0  0
 11 12  1  0  0  0  0
 11 13  1  0  0  0  0
 11 14  1  0  0  0  0
  9 10  1  0  0  0  0
  9 11  1  0  0  0  0
  9 27  1  0  0  0  0
  7  8  1  0  0  0  0
  7  9  1  0  0  0  0
 31 32  1  0  0  0  0
 31 33  1  0  0  0  0
 31 34  1  0  0  0  0
 29 30  1  0  0  0  0
 29 31  1  0  0  0  0
M  CHG  1  23   1
M  END
$$$$
default_name
  -OEChem-02102213163D

 34 33  0     1  0  0  0  0  0999 V2000
   -3.8899   -3.6747    1.6490 H   0  0  0  0  0  0  0  0  0  0  0  0
   -3.9109   -2.6717    1.2250 C   0  0  0  0  0  0  0  0  0  0  0  0
   -4.6009   -2.0517    1.7950 H   0  0  0  0  0  0  0  0  0  0  0  0
   -4.2309   -2.7237    0.1860 H   0  0  0  0  0  0  0  0  0  0  0  0
   -2.5229   -2.0787    1.2980 C   0  0  0  0  0  0  0  0  0  0  0  0
   -1.5999   -2.7227    1.7810 O   0  0  0  0  0  0  0  0  0  0  0  0
   -2.3659   -0.8447    0.8120 N   0  0  0  0  0  0  0  0  0  0  0  0
   -3.1749   -0.3807    0.4220 H   0  0  0  0  0  0  0  0  0  0  0  0
   -1.0919   -0.1077    0.8170 C   0  0  1  0  0  0  0  0  0  0  0  0
   -0.4136   -0.6011    1.5155 H   0  0  0  0  0  0  0  0  0  0  0  0
   -0.4834   -0.1723   -0.5965 C   0  0  0  0  0  0  0  0  0  0  0  0
    0.1501   -1.0583   -0.6620 H   0  0  0  0  0  0  0  0  0  0  0  0
   -1.2868   -0.2738   -1.3287 H   0  0  0  0  0  0  0  0  0  0  0  0
    0.3684    1.0573   -0.9469 C   0  0  0  0  0  0  0  0  0  0  0  0
    0.6016    1.6139   -0.0382 H   0  0  0  0  0  0  0  0  0  0  0  0
    1.2997    0.7287   -1.4125 H   0  0  0  0  0  0  0  0  0  0  0  0
   -0.3893    1.9734   -1.9179 C   0  0  0  0  0  0  0  0  0  0  0  0
   -0.6344    1.4088   -2.8207 H   0  0  0  0  0  0  0  0  0  0  0  0
   -1.3148    2.3065   -1.4442 H   0  0  0  0  0  0  0  0  0  0  0  0
    0.4697    3.1890   -2.2881 C   0  0  0  0  0  0  0  0  0  0  0  0
    0.7106    3.7360   -1.3708 H   0  0  0  0  0  0  0  0  0  0  0  0
    1.4087    2.8320   -2.7218 H   0  0  0  0  0  0  0  0  0  0  0  0
   -0.2308    4.0809   -3.2463 N   0  3  0  0  0  0  0  0  0  0  0  0
   -1.0957    4.4229   -2.8465 H   0  0  0  0  0  0  0  0  0  0  0  0
    0.3489    4.8772   -3.4805 H   0  0  0  0  0  0  0  0  0  0  0  0
   -0.4483    3.5816   -4.1009 H   0  0  0  0  0  0  0  0  0  0  0  0
   -1.3103    1.3348    1.2791 C   0  0  0  0  0  0  0  0  0  0  0  0
   -2.2333    1.9891    0.8084 O   0  0  0  0  0  0  0  0  0  0  0  0
   -0.4429    1.8293    2.1683 N   0  0  0  0  0  0  0  0  0  0  0  0
    0.2668    1.2118    2.5263 H   0  0  0  0  0  0  0  0  0  0  0  0
   -0.5118    3.1863    2.7135 C   0  0  0  0  0  0  0  0  0  0  0  0
   -1.4470    3.3159    3.2625 H   0  0  0  0  0  0  0  0  0  0  0  0
    0.3243    3.3682    3.3896 H   0  0  0  0  0  0  0  0  0  0  0  0
   -0.4850    3.9172    1.9023 H   0  0  0  0  0  0  0  0  0  0  0  0
  5  6  2  0  0  0  0
  5  7  1  0  0  0  0
  2  3  1  0  0  0  0
  2  4  1  0  0  0  0
  2  5  1  0  0  0  0
  1  2  1  0  0  0  0
 27 28  2  0  0  0  0
 27 29  1  0  0  0  0
 23 24  1  0  0  0  0
 23 25  1  0  0  0  0
 23 26  1  0  0  0  0
 20 21  1  0  0  0  0
 20 22  1  0  0  0  0
 20 23  1  0  0  0  0
 17 18  1  0  0  0  0
 17 19  1  0  0  0  0
 17 20  1  0  0  0  0
 14 15  1  0  0  0  0
 14 16  1  0  0  0  0
 14 17  1  0  0  0  0
 11 12  1  0  0  0  0
 11 13  1  0  0  0  0
 11 14  1  0  0  0  0
  9 10  1  0  0  0  0
  9 11  1  0  0  0  0
  9 27  1  0  0  0  0
  7  8  1  0  0  0  0
  7  9  1  0  0  0  0
 31 32  1  0  0  0  0
 31 33  1  0  0  0  0
 31 34  1  0  0  0  0
 29 30  1  0  0  0  0
 29 31  1  0  0  0  0
M  CHG  1  23   1
M  END
$$$$
default_name
  -OEChem-02102213163D

 34 33  0     1  0  0  0  0  0999 V2000
   -3.8899   -3.6747    1.6490 H   0  0  0  0  0  0  0  0  0  0  0  0
   -3.9109   -2.6717    1.2250 C   0  0  0  0  0  0  0  0  0  0  0  0
   -4.6009   -2.0517    1.7950 H   0  0  0  0  0  0  0  0  0  0  0  0
   -4.2309   -2.7237    0.1860 H   0  0  0  0  0  0  0  0  0  0  0  0
   -2.5229   -2.0787    1.2980 C   0  0  0  0  0  0  0  0  0  0  0  0
   -1.5999   -2.7227    1.7810 O   0  0  0  0  0  0  0  0  0  0  0  0
   -2.3659   -0.8447    0.8120 N   0  0  0  0  0  0  0  0  0  0  0  0
   -3.1749   -0.3807    0.4220 H   0  0  0  0  0  0  0  0  0  0  0  0
   -1.0919   -0.1077    0.8170 C   0  0  1  0  0  0  0  0  0  0  0  0
   -0.4136   -0.6011    1.5155 H   0  0  0  0  0  0  0  0  0  0  0  0
   -0.4834   -0.1723   -0.5965 C   0  0  0  0  0  0  0  0  0  0  0  0
    0.1501   -1.0583   -0.6620 H   0  0  0  0  0  0  0  0  0  0  0  0
   -1.2868   -0.2738   -1.3287 H   0  0  0  0  0  0  0  0  0  0  0  0
    0.3684    1.0573   -0.9469 C   0  0  0  0  0  0  0  0  0  0  0  0
    0.8217    1.4607   -0.0404 H   0  0  0  0  0  0  0  0  0  0  0  0
    1.1589    0.7615   -1.6395 H   0  0  0  0  0  0  0  0  0  0  0  0
   -0.5004    2.1408   -1.6006 C   0  0  0  0  0  0  0  0  0  0  0  0
   -0.9647    1.7291   -2.4999 H   0  0  0  0  0  0  0  0  0  0  0  0
   -1.2833    2.4396   -0.9007 H   0  0  0  0  0  0  0  0  0  0  0  0
    0.3533    3.3592   -1.9736 C   0  0  0  0  0  0  0  0  0  0  0  0
    0.8152    3.7516   -1.0617 H   0  0  0  0  0  0  0  0  0  0  0  0
    1.1557    3.0303   -2.6408 H   0  0  0  0  0  0  0  0  0  0  0  0
   -0.4589    4.4145   -2.6303 N   0  3  0  0  0  0  0  0  0  0  0  0
   -1.1969    4.7304   -2.0135 H   0  0  0  0  0  0  0  0  0  0  0  0
    0.1187    5.2106   -2.8701 H   0  0  0  0  0  0  0  0  0  0  0  0
   -0.8815    4.0587   -3.4798 H   0  0  0  0  0  0  0  0  0  0  0  0
   -1.3103    1.3348    1.2791 C   0  0  0  0  0  0  0  0  0  0  0  0
   -2.2333    1.9891    0.8084 O   0  0  0  0  0  0  0  0  0  0  0  0
   -0.4429    1.8293    2.1683 N   0  0  0  0  0  0  0  0  0  0  0  0
    0.2668    1.2118    2.5263 H   0  0  0  0  0  0  0  0  0  0  0  0
   -0.5118    3.1863    2.7135 C   0  0  0  0  0  0  0  0  0  0  0  0
   -1.4470    3.3159    3.2625 H   0  0  0  0  0  0  0  0  0  0  0  0
    0.3243    3.3682    3.3896 H   0  0  0  0  0  0  0  0  0  0  0  0
   -0.4850    3.9172    1.9023 H   0  0  0  0  0  0  0  0  0  0  0  0
  5  6  2  0  0  0  0
  5  7  1  0  0  0  0
  2  3  1  0  0  0  0
  2  4  1  0  0  0  0
  2  5  1  0  0  0  0
  1  2  1  0  0  0  0
 27 28  2  0  0  0  0
 27 29  1  0  0  0  0
 23 24  1  0  0  0  0
 23 25  1  0  0  0  0
 23 26  1  0  0  0  0
 20 21  1  0  0  0  0
 20 22  1  0  0  0  0
 20 23  1  0  0  0  0
 17 18  1  0  0  0  0
 17 19  1  0  0  0  0
 17 20  1  0  0  0  0
 14 15  1  0  0  0  0
 14 16  1  0  0  0  0
 14 17  1  0  0  0  0
 11 12  1  0  0  0  0
 11 13  1  0  0  0  0
 11 14  1  0  0  0  0
  9 10  1  0  0  0  0
  9 11  1  0  0  0  0
  9 27  1  0  0  0  0
  7  8  1  0  0  0  0
  7  9  1  0  0  0  0
 31 32  1  0  0  0  0
 31 33  1  0  0  0  0
 31 34  1  0  0  0  0
 29 30  1  0  0  0  0
 29 31  1  0  0  0  0
M  CHG  1  23   1
M  END
$$$$
default_name
  -OEChem-02102213163D

 34 33  0     1  0  0  0  0  0999 V2000
   -3.8899   -3.6747    1.6490 H   0  0  0  0  0  0  0  0  0  0  0  0
   -3.9109   -2.6717    1.2250 C   0  0  0  0  0  0  0  0  0  0  0  0
   -4.6009   -2.0517    1.7950 H   0  0  0  0  0  0  0  0  0  0  0  0
   -4.2309   -2.7237    0.1860 H   0  0  0  0  0  0  0  0  0  0  0  0
   -2.5229   -2.0787    1.2980 C   0  0  0  0  0  0  0  0  0  0  0  0
   -1.5999   -2.7227    1.7810 O   0  0  0  0  0  0  0  0  0  0  0  0
   -2.3659   -0.8447    0.8120 N   0  0  0  0  0  0  0  0  0  0  0  0
   -3.1749   -0.3807    0.4220 H   0  0  0  0  0  0  0  0  0  0  0  0
   -1.0919   -0.1077    0.8170 C   0  0  1  0  0  0  0  0  0  0  0  0
   -0.4136   -0.6011    1.5155 H   0  0  0  0  0  0  0  0  0  0  0  0
   -0.4834   -0.1723   -0.5965 C   0  0  0  0  0  0  0  0  0  0  0  0
    0.1501   -1.0583   -0.6620 H   0  0  0  0  0  0  0  0  0  0  0  0
   -1.2868   -0.2738   -1.3287 H   0  0  0  0  0  0  0  0  0  0  0  0
    0.3684    1.0573   -0.9469 C   0  0  0  0  0  0  0  0  0  0  0  0
    1.0248    1.3002   -0.1102 H   0  0  0  0  0  0  0  0  0  0  0  0
    0.9778    0.8341   -1.8248 H   0  0  0  0  0  0  0  0  0  0  0  0
   -0.5321    2.2635   -1.2470 C   0  0  0  0  0  0  0  0  0  0  0  0
   -1.1984    2.0119   -2.0756 H   0  0  0  0  0  0  0  0  0  0  0  0
   -1.1325    2.4883   -0.3632 H   0  0  0  0  0  0  0  0  0  0  0  0
    0.3162    3.4854   -1.6212 C   0  0  0  0  0  0  0  0  0  0  0  0
    0.9812    3.7162   -0.7826 H   0  0  0  0  0  0  0  0  0  0  0  0
    0.9399    3.2252   -2.4818 H   0  0  0  0  0  0  0  0  0  0  0  0
   -0.5318    4.6617   -1.9401 N   0  3  0  0  0  0  0  0  0  0  0  0
   -1.1039    4.9139   -1.1438 H   0  0  0  0  0  0  0  0  0  0  0  0
    0.0425    5.4586   -2.1851 H   0  0  0  0  0  0  0  0  0  0  0  0
   -1.1432    4.4561   -2.7216 H   0  0  0  0  0  0  0  0  0  0  0  0
   -1.3103    1.3348    1.2791 C   0  0  0  0  0  0  0  0  0  0  0  0
   -2.2333    1.9891    0.8084 O   0  0  0  0  0  0  0  0  0  0  0  0
   -0.4429    1.8293    2.1683 N   0  0  0  0  0  0  0  0  0  0  0  0
    0.2668    1.2118    2.5263 H   0  0  0  0  0  0  0  0  0  0  0  0
   -0.5118    3.1863    2.7135 C   0  0  0  0  0  0  0  0  0  0  0  0
   -1.4470    3.3159    3.2625 H   0  0  0  0  0  0  0  0  0  0  0  0
    0.3243    3.3682    3.3896 H   0  0  0  0  0  0  0  0  0  0  0  0
   -0.4850    3.9172    1.9023 H   0  0  0  0  0  0  0  0  0  0  0  0
  5  6  2  0  0  0  0
  5  7  1  0  0  0  0
  2  3  1  0  0  0  0
  2  4  1  0  0  0  0
  2  5  1  0  0  0  0
  1  2  1  0  0  0  0
 27 28  2  0  0  0  0
 27 29  1  0  0  0  0
 23 24  1  0  0  0  0
 23 25  1  0  0  0  0
 23 26  1  0  0  0  0
 20 21  1  0  0  0  0
 20 22  1  0  0  0  0
 20 23  1  0  0  0  0
 17 18  1  0  0  0  0
 17 19  1  0  0  0  0
 17 20  1  0  0  0  0
 14 15  1  0  0  0  0
 14 16  1  0  0  0  0
 14 17  1  0  0  0  0
 11 12  1  0  0  0  0
 11 13  1  0  0  0  0
 11 14  1  0  0  0  0
  9 10  1  0  0  0  0
  9 11  1  0  0  0  0
  9 27  1  0  0  0  0
  7  8  1  0  0  0  0
  7  9  1  0  0  0  0
 31 32  1  0  0  0  0
 31 33  1  0  0  0  0
 31 34  1  0  0  0  0
 29 30  1  0  0  0  0
 29 31  1  0  0  0  0
M  CHG  1  23   1
M  END
$$$$
default_name
  -OEChem-02102213163D

 34 33  0     1  0  0  0  0  0999 V2000
   -3.8899   -3.6747    1.6490 H   0  0  0  0  0  0  0  0  0  0  0  0
   -3.9109   -2.6717    1.2250 C   0  0  0  0  0  0  0  0  0  0  0  0
   -4.6009   -2.0517    1.7950 H   0  0  0  0  0  0  0  0  0  0  0  0
   -4.2309   -2.7237    0.1860 H   0  0  0  0  0  0  0  0  0  0  0  0
   -2.5229   -2.0787    1.2980 C   0  0  0  0  0  0  0  0  0  0  0  0
   -1.5999   -2.7227    1.7810 O   0  0  0  0  0  0  0  0  0  0  0  0
   -2.3659   -0.8447    0.8120 N   0  0  0  0  0  0  0  0  0  0  0  0
   -3.1749   -0.3807    0.4220 H   0  0  0  0  0  0  0  0  0  0  0  0
   -1.0919   -0.1077    0.8170 C   0  0  1  0  0  0  0  0  0  0  0  0
   -0.4136   -0.6011    1.5155 H   0  0  0  0  0  0  0  0  0  0  0  0
   -0.4834   -0.1723   -0.5965 C   0  0  0  0  0  0  0  0  0  0  0  0
    0.1501   -1.0583   -0.6620 H   0  0  0  0  0  0  0  0  0  0  0  0
   -1.2868   -0.2738   -1.3287 H   0  0  0  0  0  0  0  0  0  0  0  0
    0.3684    1.0573   -0.9469 C   0  0  0  0  0  0  0  0  0  0  0  0
    1.1970    1.1431   -0.2427 H   0  0  0  0  0  0  0  0  0  0  0  0
    0.7688    0.9415   -1.9560 H   0  0  0  0  0  0  0  0  0  0  0  0
   -0.4823    2.3333   -0.8813 C   0  0  0  0  0  0  0  0  0  0  0  0
   -1.3196    2.2380   -1.5767 H   0  0  0  0  0  0  0  0  0  0  0  0
   -0.8725    2.4493    0.1318 H   0  0  0  0  0  0  0  0  0  0  0  0
    0.3607    3.5589   -1.2551 C   0  0  0  0  0  0  0  0  0  0  0  0
    1.1972    3.6321   -0.5525 H   0  0  0  0  0  0  0  0  0  0  0  0
    0.7758    3.4033   -2.2554 H   0  0  0  0  0  0  0  0  0  0  0  0
   -0.4447    4.8058   -1.2228 N   0  3  0  0  0  0  0  0  0  0  0  0
   -0.8231    4.9608   -0.2967 H   0  0  0  0  0  0  0  0  0  0  0  0
    0.1254    5.6044   -1.4719 H   0  0  0  0  0  0  0  0  0  0  0  0
   -1.2155    4.7465   -1.8781 H   0  0  0  0  0  0  0  0  0  0  0  0
   -1.3103    1.3348    1.2791 C   0  0  0  0  0  0  0  0  0  0  0  0
   -2.2333    1.9891    0.8084 O   0  0  0  0  0  0  0  0  0  0  0  0
   -0.4429    1.8293    2.1683 N   0  0  0  0  0  0  0  0  0  0  0  0
    0.2668    1.2118    2.5263 H   0  0  0  0  0  0  0  0  0  0  0  0
   -0.5118    3.1863    2.7135 C   0  0  0  0  0  0  0  0  0  0  0  0
   -1.4470    3.3159    3.2625 H   0  0  0  0  0  0  0  0  0  0  0  0
    0.3243    3.3682    3.3896 H   0  0  0  0  0  0  0  0  0  0  0  0
   -0.4850    3.9172    1.9023 H   0  0  0  0  0  0  0  0  0  0  0  0
  5  6  2  0  0  0  0
  5  7  1  0  0  0  0
  2  3  1  0  0  0  0
  2  4  1  0  0  0  0
  2  5  1  0  0  0  0
  1  2  1  0  0  0  0
 27 28  2  0  0  0  0
 27 29  1  0  0  0  0
 23 24  1  0  0  0  0
 23 25  1  0  0  0  0
 23 26  1  0  0  0  0
 20 21  1  0  0  0  0
 20 22  1  0  0  0  0
 20 23  1  0  0  0  0
 17 18  1  0  0  0  0
 17 19  1  0  0  0  0
 17 20  1  0  0  0  0
 14 15  1  0  0  0  0
 14 16  1  0  0  0  0
 14 17  1  0  0  0  0
 11 12  1  0  0  0  0
 11 13  1  0  0  0  0
 11 14  1  0  0  0  0
  9 10  1  0  0  0  0
  9 11  1  0  0  0  0
  9 27  1  0  0  0  0
  7  8  1  0  0  0  0
  7  9  1  0  0  0  0
 31 32  1  0  0  0  0
 31 33  1  0  0  0  0
 31 34  1  0  0  0  0
 29 30  1  0  0  0  0
 29 31  1  0  0  0  0
M  CHG  1  23   1
M  END
$$$$
default_name
  -OEChem-02102213163D

 34 33  0     1  0  0  0  0  0999 V2000
   -3.8899   -3.6747    1.6490 H   0  0  0  0  0  0  0  0  0  0  0  0
   -3.9109   -2.6717    1.2250 C   0  0  0  0  0  0  0  0  0  0  0  0
   -4.6009   -2.0517    1.7950 H   0  0  0  0  0  0  0  0  0  0  0  0
   -4.2309   -2.7237    0.1860 H   0  0  0  0  0  0  0  0  0  0  0  0
   -2.5229   -2.0787    1.2980 C   0  0  0  0  0  0  0  0  0  0  0  0
   -1.5999   -2.7227    1.7810 O   0  0  0  0  0  0  0  0  0  0  0  0
   -2.3659   -0.8447    0.8120 N   0  0  0  0  0  0  0  0  0  0  0  0
   -3.1749   -0.3807    0.4220 H   0  0  0  0  0  0  0  0  0  0  0  0
   -1.0919   -0.1077    0.8170 C   0  0  1  0  0  0  0  0  0  0  0  0
   -0.4136   -0.6011    1.5155 H   0  0  0  0  0  0  0  0  0  0  0  0
   -0.4834   -0.1723   -0.5965 C   0  0  0  0  0  0  0  0  0  0  0  0
    0.1501   -1.0583   -0.6620 H   0  0  0  0  0  0  0  0  0  0  0  0
   -1.2868   -0.2738   -1.3287 H   0  0  0  0  0  0  0  0  0  0  0  0
    0.3684    1.0573   -0.9469 C   0  0  0  0  0  0  0  0  0  0  0  0
    1.3267    1.0002   -0.4288 H   0  0  0  0  0  0  0  0  0  0  0  0
    0.5461    1.0764   -2.0240 H   0  0  0  0  0  0  0  0  0  0  0  0
   -0.3543    2.3452   -0.5283 C   0  0  0  0  0  0  0  0  0  0  0  0
   -1.3200    2.3920   -1.0374 H   0  0  0  0  0  0  0  0  0  0  0  0
   -0.5212    2.3252    0.5505 H   0  0  0  0  0  0  0  0  0  0  0  0
    0.4839    3.5747   -0.9001 C   0  0  0  0  0  0  0  0  0  0  0  0
    1.4486    3.5051   -0.3870 H   0  0  0  0  0  0  0  0  0  0  0  0
    0.6748    3.5526   -1.9773 H   0  0  0  0  0  0  0  0  0  0  0  0
   -0.2035    4.8369   -0.5274 N   0  3  0  0  0  0  0  0  0  0  0  0
   -0.3736    4.8679    0.4701 H   0  0  0  0  0  0  0  0  0  0  0  0
    0.3619    5.6380   -0.7794 H   0  0  0  0  0  0  0  0  0  0  0  0
   -1.0934    4.9103   -1.0066 H   0  0  0  0  0  0  0  0  0  0  0  0
   -1.3103    1.3348    1.2791 C   0  0  0  0  0  0  0  0  0  0  0  0
   -2.2333    1.9891    0.8084 O   0  0  0  0  0  0  0  0  0  0  0  0
   -0.4429    1.8293    2.1683 N   0  0  0  0  0  0  0  0  0  0  0  0
    0.2668    1.2118    2.5263 H   0  0  0  0  0  0  0  0  0  0  0  0
   -0.5118    3.1863    2.7135 C   0  0  0  0  0  0  0  0  0  0  0  0
   -1.4470    3.3159    3.2625 H   0  0  0  0  0  0  0  0  0  0  0  0
    0.3243    3.3682    3.3896 H   0  0  0  0  0  0  0  0  0  0  0  0
   -0.4850    3.9172    1.9023 H   0  0  0  0  0  0  0  0  0  0  0  0
  5  6  2  0  0  0  0
  5  7  1  0  0  0  0
  2  3  1  0  0  0  0
  2  4  1  0  0  0  0
  2  5  1  0  0  0  0
  1  2  1  0  0  0  0
 27 28  2  0  0  0  0
 27 29  1  0  0  0  0
 23 24  1  0  0  0  0
 23 25  1  0  0  0  0
 23 26  1  0  0  0  0
 20 21  1  0  0  0  0
 20 22  1  0  0  0  0
 20 23  1  0  0  0  0
 17 18  1  0  0  0  0
 17 19  1  0  0  0  0
 17 20  1  0  0  0  0
 14 15  1  0  0  0  0
 14 16  1  0  0  0  0
 14 17  1  0  0  0  0
 11 12  1  0  0  0  0
 11 13  1  0  0  0  0
 11 14  1  0  0  0  0
  9 10  1  0  0  0  0
  9 11  1  0  0  0  0
  9 27  1  0  0  0  0
  7  8  1  0  0  0  0
  7  9  1  0  0  0  0
 31 32  1  0  0  0  0
 31 33  1  0  0  0  0
 31 34  1  0  0  0  0
 29 30  1  0  0  0  0
 29 31  1  0  0  0  0
M  CHG  1  23   1
M  END
$$$$
default_name
  -OEChem-02102213163D

 34 33  0     1  0  0  0  0  0999 V2000
   -3.8899   -3.6747    1.6490 H   0  0  0  0  0  0  0  0  0  0  0  0
   -3.9109   -2.6717    1.2250 C   0  0  0  0  0  0  0  0  0  0  0  0
   -4.6009   -2.0517    1.7950 H   0  0  0  0  0  0  0  0  0  0  0  0
   -4.2309   -2.7237    0.1860 H   0  0  0  0  0  0  0  0  0  0  0  0
   -2.5229   -2.0787    1.2980 C   0  0  0  0  0  0  0  0  0  0  0  0
   -1.5999   -2.7227    1.7810 O   0  0  0  0  0  0  0  0  0  0  0  0
   -2.3659   -0.8447    0.8120 N   0  0  0  0  0  0  0  0  0  0  0  0
   -3.1749   -0.3807    0.4220 H   0  0  0  0  0  0  0  0  0  0  0  0
   -1.0919   -0.1077    0.8170 C   0  0  1  0  0  0  0  0  0  0  0  0
   -0.4136   -0.6011    1.5155 H   0  0  0  0  0  0  0  0  0  0  0  0
   -0.4834   -0.1723   -0.5965 C   0  0  0  0  0  0  0  0  0  0  0  0
    0.1501   -1.0583   -0.6620 H   0  0  0  0  0  0  0  0  0  0  0  0
   -1.2868   -0.2738   -1.3287 H   0  0  0  0  0  0  0  0  0  0  0  0
    0.3684    1.0573   -0.9469 C   0  0  0  0  0  0  0  0  0  0  0  0
    1.4049    0.8813   -0.6560 H   0  0  0  0  0  0  0  0  0  0  0  0
    0.3248    1.2296   -2.0241 H   0  0  0  0  0  0  0  0  0  0  0  0
   -0.1568    2.2985   -0.2123 C   0  0  0  0  0  0  0  0  0  0  0  0
   -1.1995    2.4633   -0.4942 H   0  0  0  0  0  0  0  0  0  0  0  0
   -0.1024    2.1246    0.8643 H   0  0  0  0  0  0  0  0  0  0  0  0
    0.6773    3.5318   -0.5804 C   0  0  0  0  0  0  0  0  0  0  0  0
    1.7182    3.3439   -0.2975 H   0  0  0  0  0  0  0  0  0  0  0  0
    0.6436    3.6628   -1.6662 H   0  0  0  0  0  0  0  0  0  0  0  0
    0.1754    4.7529    0.0988 N   0  3  0  0  0  0  0  0  0  0  0  0
    0.2140    4.6417    1.1043 H   0  0  0  0  0  0  0  0  0  0  0  0
    0.7357    5.5571   -0.1546 H   0  0  0  0  0  0  0  0  0  0  0  0
   -0.7852    4.9363   -0.1666 H   0  0  0  0  0  0  0  0  0  0  0  0
   -1.3103    1.3348    1.2791 C   0  0  0  0  0  0  0  0  0  0  0  0
   -2.2333    1.9891    0.8084 O   0  0  0  0  0  0  0  0  0  0  0  0
   -0.4429    1.8293    2.1683 N   0  0  0  0  0  0  0  0  0  0  0  0
    0.2668    1.2118    2.5263 H   0  0  0  0  0  0  0  0  0  0  0  0
   -0.5118    3.1863    2.7135 C   0  0  0  0  0  0  0  0  0  0  0  0
   -1.4470    3.3159    3.2625 H   0  0  0  0  0  0  0  0  0  0  0  0
    0.3243    3.3682    3.3896 H   0  0  0  0  0  0  0  0  0  0  0  0
   -0.4850    3.9172    1.9023 H   0  0  0  0  0  0  0  0  0  0  0  0
  5  6  2  0  0  0  0
  5  7  1  0  0  0  0
  2  3  1  0  0  0  0
  2  4  1  0  0  0  0
  2  5  1  0  0  0  0
  1  2  1  0  0  0  0
 27 28  2  0  0  0  0
 27 29  1  0  0  0  0
 23 24  1  0  0  0  0
 23 25  1  0  0  0  0
 23 26  1  0  0  0  0
 20 21  1  0  0  0  0
 20 22  1  0  0  0  0
 20 23  1  0  0  0  0
 17 18  1  0  0  0  0
 17 19  1  0  0  0  0
 17 20  1  0  0  0  0
 14 15  1  0  0  0  0
 14 16  1  0  0  0  0
 14 17  1  0  0  0  0
 11 12  1  0  0  0  0
 11 13  1  0  0  0  0
 11 14  1  0  0  0  0
  9 10  1  0  0  0  0
  9 11  1  0  0  0  0
  9 27  1  0  0  0  0
  7  8  1  0  0  0  0
  7  9  1  0  0  0  0
 31 32  1  0  0  0  0
 31 33  1  0  0  0  0
 31 34  1  0  0  0  0
 29 30  1  0  0  0  0
 29 31  1  0  0  0  0
M  CHG  1  23   1
M  END
$$$$
default_name
  -OEChem-02102213163D

 34 33  0     1  0  0  0  0  0999 V2000
   -3.8899   -3.6747    1.6490 H   0  0  0  0  0  0  0  0  0  0  0  0
   -3.9109   -2.6717    1.2250 C   0  0  0  0  0  0  0  0  0  0  0  0
   -4.6009   -2.0517    1.7950 H   0  0  0  0  0  0  0  0  0  0  0  0
   -4.2309   -2.7237    0.1860 H   0  0  0  0  0  0  0  0  0  0  0  0
   -2.5229   -2.0787    1.2980 C   0  0  0  0  0  0  0  0  0  0  0  0
   -1.5999   -2.7227    1.7810 O   0  0  0  0  0  0  0  0  0  0  0  0
   -2.3659   -0.8447    0.8120 N   0  0  0  0  0  0  0  0  0  0  0  0
   -3.1749   -0.3807    0.4220 H   0  0  0  0  0  0  0  0  0  0  0  0
   -1.0919   -0.1077    0.8170 C   0  0  1  0  0  0  0  0  0  0  0  0
   -0.4136   -0.6011    1.5155 H   0  0  0  0  0  0  0  0  0  0  0  0
   -0.4834   -0.1723   -0.5965 C   0  0  0  0  0  0  0  0  0  0  0  0
    0.1501   -1.0583   -0.6620 H   0  0  0  0  0  0  0  0  0  0  0  0
   -1.2868   -0.2738   -1.3287 H   0  0  0  0  0  0  0  0  0  0  0  0
    0.3684    1.0573   -0.9469 C   0  0  0  0  0  0  0  0  0  0  0  0
    1.4264    0.7944   -0.9088 H   0  0  0  0  0  0  0  0  0  0  0  0
    0.1202    1.3907   -1.9565 H   0  0  0  0  0  0  0  0  0  0  0  0
    0.0967    2.1963    0.0455 C   0  0  0  0  0  0  0  0  0  0  0  0
   -0.9664    2.4472    0.0157 H   0  0  0  0  0  0  0  0  0  0  0  0
    0.3552    1.8610    1.0518 H   0  0  0  0  0  0  0  0  0  0  0  0
    0.9279    3.4331   -0.3179 C   0  0  0  0  0  0  0  0  0  0  0  0
    1.9876    3.1594   -0.2900 H   0  0  0  0  0  0  0  0  0  0  0  0
    0.6845    3.7265   -1.3435 H   0  0  0  0  0  0  0  0  0  0  0  0
    0.6661    4.5596    0.6132 N   0  3  0  0  0  0  0  0  0  0  0  0
    0.8995    4.2975    1.5628 H   0  0  0  0  0  0  0  0  0  0  0  0
    1.2215    5.3672    0.3598 H   0  0  0  0  0  0  0  0  0  0  0  0
   -0.3121    4.8226    0.5846 H   0  0  0  0  0  0  0  0  0  0  0  0
   -1.3103    1.3348    1.2791 C   0  0  0  0  0  0  0  0  0  0  0  0
   -2.2333    1.9891    0.8084 O   0  0  0  0  0  0  0  0  0  0  0  0
   -0.4429    1.8293    2.1683 N   0  0  0  0  0  0  0  0  0  0  0  0
    0.2668    1.2118    2.5263 H   0  0  0  0  0  0  0  0  0  0  0  0
   -0.5118    3.1863    2.7135 C   0  0  0  0  0  0  0  0  0  0  0  0
   -1.4470    3.3159    3.2625 H   0  0  0  0  0  0  0  0  0  0  0  0
    0.3243    3.3682    3.3896 H   0  0  0  0  0  0  0  0  0  0  0  0
   -0.4850    3.9172    1.9023 H   0  0  0  0  0  0  0  0  0  0  0  0
  5  6  2  0  0  0  0
  5  7  1  0  0  0  0
  2  3  1  0  0  0  0
  2  4  1  0  0  0  0
  2  5  1  0  0  0  0
  1  2  1  0  0  0  0
 27 28  2  0  0  0  0
 27 29  1  0  0  0  0
 23 24  1  0  0  0  0
 23 25  1  0  0  0  0
 23 26  1  0  0  0  0
 20 21  1  0  0  0  0
 20 22  1  0  0  0  0
 20 23  1  0  0  0  0
 17 18  1  0  0  0  0
 17 19  1  0  0  0  0
 17 20  1  0  0  0  0
 14 15  1  0  0  0  0
 14 16  1  0  0  0  0
 14 17  1  0  0  0  0
 11 12  1  0  0  0  0
 11 13  1  0  0  0  0
 11 14  1  0  0  0  0
  9 10  1  0  0  0  0
  9 11  1  0  0  0  0
  9 27  1  0  0  0  0
  7  8  1  0  0  0  0
  7  9  1  0  0  0  0
 31 32  1  0  0  0  0
 31 33  1  0  0  0  0
 31 34  1  0  0  0  0
 29 30  1  0  0  0  0
 29 31  1  0  0  0  0
M  CHG  1  23   1
M  END
$$$$
default_name
  -OEChem-02102213163D

 34 33  0     1  0  0  0  0  0999 V2000
   -3.8899   -3.6747    1.6490 H   0  0  0  0  0  0  0  0  0  0  0  0
   -3.9109   -2.6717    1.2250 C   0  0  0  0  0  0  0  0  0  0  0  0
   -4.6009   -2.0517    1.7950 H   0  0  0  0  0  0  0  0  0  0  0  0
   -4.2309   -2.7237    0.1860 H   0  0  0  0  0  0  0  0  0  0  0  0
   -2.5229   -2.0787    1.2980 C   0  0  0  0  0  0  0  0  0  0  0  0
   -1.5999   -2.7227    1.7810 O   0  0  0  0  0  0  0  0  0  0  0  0
   -2.3659   -0.8447    0.8120 N   0  0  0  0  0  0  0  0  0  0  0  0
   -3.1749   -0.3807    0.4220 H   0  0  0  0  0  0  0  0  0  0  0  0
   -1.0919   -0.1077    0.8170 C   0  0  1  0  0  0  0  0  0  0  0  0
   -0.4136   -0.6011    1.5155 H   0  0  0  0  0  0  0  0  0  0  0  0
   -0.4834   -0.1723   -0.5965 C   0  0  0  0  0  0  0  0  0  0  0  0
    0.1501   -1.0583   -0.6620 H   0  0  0  0  0  0  0  0  0  0  0  0
   -1.2868   -0.2738   -1.3287 H   0  0  0  0  0  0  0  0  0  0  0  0
    0.3684    1.0573   -0.9469 C   0  0  0  0  0  0  0  0  0  0  0  0
    1.3897    0.7454   -1.1698 H   0  0  0  0  0  0  0  0  0  0  0  0
   -0.0540    1.5486   -1.8256 H   0  0  0  0  0  0  0  0  0  0  0  0
    0.3888    2.0457    0.2272 C   0  0  0  0  0  0  0  0  0  0  0  0
   -0.6365    2.3446    0.4577 H   0  0  0  0  0  0  0  0  0  0  0  0
    0.8206    1.5525    1.1004 H   0  0  0  0  0  0  0  0  0  0  0  0
    1.2185    3.2852   -0.1304 C   0  0  0  0  0  0  0  0  0  0  0  0
    2.2386    2.9642   -0.3651 H   0  0  0  0  0  0  0  0  0  0  0  0
    0.7945    3.7393   -1.0311 H   0  0  0  0  0  0  0  0  0  0  0  0
    1.2353    4.2700    0.9806 N   0  3  0  0  0  0  0  0  0  0  0  0
    1.6363    3.8587    1.8142 H   0  0  0  0  0  0  0  0  0  0  0  0
    1.7860    5.0813    0.7289 H   0  0  0  0  0  0  0  0  0  0  0  0
    0.2939    4.5771    1.1959 H   0  0  0  0  0  0  0  0  0  0  0  0
   -1.3103    1.3348    1.2791 C   0  0  0  0  0  0  0  0  0  0  0  0
   -2.2333    1.9891    0.8084 O   0  0  0  0  0  0  0  0  0  0  0  0
   -0.4429    1.8293    2.1683 N   0  0  0  0  0  0  0  0  0  0  0  0
    0.2668    1.2118    2.5263 H   0  0  0  0  0  0  0  0  0  0  0  0
   -0.5118    3.1863    2.7135 C   0  0  0  0  0  0  0  0  0  0  0  0
   -1.4470    3.3159    3.2625 H   0  0  0  0  0  0  0  0  0  0  0  0
    0.3243    3.3682    3.3896 H   0  0  0  0  0  0  0  0  0  0  0  0
   -0.4850    3.9172    1.9023 H   0  0  0  0  0  0  0  0  0  0  0  0
  5  6  2  0  0  0  0
  5  7  1  0  0  0  0
  2  3  1  0  0  0  0
  2  4  1  0  0  0  0
  2  5  1  0  0  0  0
  1  2  1  0  0  0  0
 27 28  2  0  0  0  0
 27 29  1  0  0  0  0
 23 24  1  0  0  0  0
 23 25  1  0  0  0  0
 23 26  1  0  0  0  0
 20 21  1  0  0  0  0
 20 22  1  0  0  0  0
 20 23  1  0  0  0  0
 17 18  1  0  0  0  0
 17 19  1  0  0  0  0
 17 20  1  0  0  0  0
 14 15  1  0  0  0  0
 14 16  1  0  0  0  0
 14 17  1  0  0  0  0
 11 12  1  0  0  0  0
 11 13  1  0  0  0  0
 11 14  1  0  0  0  0
  9 10  1  0  0  0  0
  9 11  1  0  0  0  0
  9 27  1  0  0  0  0
  7  8  1  0  0  0  0
  7  9  1  0  0  0  0
 31 32  1  0  0  0  0
 31 33  1  0  0  0  0
 31 34  1  0  0  0  0
 29 30  1  0  0  0  0
 29 31  1  0  0  0  0
M  CHG  1  23   1
M  END
$$$$
default_name
  -OEChem-02102213163D

 34 33  0     1  0  0  0  0  0999 V2000
   -3.8899   -3.6747    1.6490 H   0  0  0  0  0  0  0  0  0  0  0  0
   -3.9109   -2.6717    1.2250 C   0  0  0  0  0  0  0  0  0  0  0  0
   -4.6009   -2.0517    1.7950 H   0  0  0  0  0  0  0  0  0  0  0  0
   -4.2309   -2.7237    0.1860 H   0  0  0  0  0  0  0  0  0  0  0  0
   -2.5229   -2.0787    1.2980 C   0  0  0  0  0  0  0  0  0  0  0  0
   -1.5999   -2.7227    1.7810 O   0  0  0  0  0  0  0  0  0  0  0  0
   -2.3659   -0.8447    0.8120 N   0  0  0  0  0  0  0  0  0  0  0  0
   -3.1749   -0.3807    0.4220 H   0  0  0  0  0  0  0  0  0  0  0  0
   -1.0919   -0.1077    0.8170 C   0  0  1  0  0  0  0  0  0  0  0  0
   -0.4136   -0.6011    1.5155 H   0  0  0  0  0  0  0  0  0  0  0  0
   -0.4834   -0.1723   -0.5965 C   0  0  0  0  0  0  0  0  0  0  0  0
    0.1501   -1.0583   -0.6620 H   0  0  0  0  0  0  0  0  0  0  0  0
   -1.2868   -0.2738   -1.3287 H   0  0  0  0  0  0  0  0  0  0  0  0
    0.3684    1.0573   -0.9469 C   0  0  0  0  0  0  0  0  0  0  0  0
    1.2972    0.7377   -1.4214 H   0  0  0  0  0  0  0  0  0  0  0  0
   -0.1858    1.6927   -1.6404 H   0  0  0  0  0  0  0  0  0  0  0  0
    0.6998    1.8569    0.3207 C   0  0  0  0  0  0  0  0  0  0  0  0
   -0.2324    2.1627    0.8015 H   0  0  0  0  0  0  0  0  0  0  0  0
    1.2619    1.2201    1.0067 H   0  0  0  0  0  0  0  0  0  0  0  0
    1.5293    3.0984   -0.0307 C   0  0  0  0  0  0  0  0  0  0  0  0
    2.4539    2.7716   -0.5175 H   0  0  0  0  0  0  0  0  0  0  0  0
    0.9663    3.7004   -0.7503 H   0  0  0  0  0  0  0  0  0  0  0  0
    1.8440    3.9040    1.1761 N   0  3  0  0  0  0  0  0  0  0  0  0
    2.3742    3.3554    1.8415 H   0  0  0  0  0  0  0  0  0  0  0  0
    2.3909    4.7189    0.9274 H   0  0  0  0  0  0  0  0  0  0  0  0
    0.9913    4.2164    1.6256 H   0  0  0  0  0  0  0  0  0  0  0  0
   -1.3103    1.3348    1.2791 C   0  0  0  0  0  0  0  0  0  0  0  0
   -2.2333    1.9891    0.8084 O   0  0  0  0  0  0  0  0  0  0  0  0
   -0.4429    1.8293    2.1683 N   0  0  0  0  0  0  0  0  0  0  0  0
    0.2668    1.2118    2.5263 H   0  0  0  0  0  0  0  0  0  0  0  0
   -0.5118    3.1863    2.7135 C   0  0  0  0  0  0  0  0  0  0  0  0
   -1.4470    3.3159    3.2625 H   0  0  0  0  0  0  0  0  0  0  0  0
    0.3243    3.3682    3.3896 H   0  0  0  0  0  0  0  0  0  0  0  0
   -0.4850    3.9172    1.9023 H   0  0  0  0  0  0  0  0  0  0  0  0
  5  6  2  0  0  0  0
  5  7  1  0  0  0  0
  2  3  1  0  0  0  0
  2  4  1  0  0  0  0
  2  5  1  0  0  0  0
  1  2  1  0  0  0  0
 27 28  2  0  0  0  0
 27 29  1  0  0  0  0
 23 24  1  0  0  0  0
 23 25  1  0  0  0  0
 23 26  1  0  0  0  0
 20 21  1  0  0  0  0
 20 22  1  0  0  0  0
 20 23  1  0  0  0  0
 17 18  1  0  0  0  0
 17 19  1  0  0  0  0
 17 20  1  0  0  0  0
 14 15  1  0  0  0  0
 14 16  1  0  0  0  0
 14 17  1  0  0  0  0
 11 12  1  0  0  0  0
 11 13  1  0  0  0  0
 11 14  1  0  0  0  0
  9 10  1  0  0  0  0
  9 11  1  0  0  0  0
  9 27  1  0  0  0  0
  7  8  1  0  0  0  0
  7  9  1  0  0  0  0
 31 32  1  0  0  0  0
 31 33  1  0  0  0  0
 31 34  1  0  0  0  0
 29 30  1  0  0  0  0
 29 31  1  0  0  0  0
M  CHG  1  23   1
M  END
$$$$
default_name
  -OEChem-02102213163D

 34 33  0     1  0  0  0  0  0999 V2000
   -3.8899   -3.6747    1.6490 H   0  0  0  0  0  0  0  0  0  0  0  0
   -3.9109   -2.6717    1.2250 C   0  0  0  0  0  0  0  0  0  0  0  0
   -4.6009   -2.0517    1.7950 H   0  0  0  0  0  0  0  0  0  0  0  0
   -4.2309   -2.7237    0.1860 H   0  0  0  0  0  0  0  0  0  0  0  0
   -2.5229   -2.0787    1.2980 C   0  0  0  0  0  0  0  0  0  0  0  0
   -1.5999   -2.7227    1.7810 O   0  0  0  0  0  0  0  0  0  0  0  0
   -2.3659   -0.8447    0.8120 N   0  0  0  0  0  0  0  0  0  0  0  0
   -3.1749   -0.3807    0.4220 H   0  0  0  0  0  0  0  0  0  0  0  0
   -1.0919   -0.1077    0.8170 C   0  0  1  0  0  0  0  0  0  0  0  0
   -0.4136   -0.6011    1.5155 H   0  0  0  0  0  0  0  0  0  0  0  0
   -0.4834   -0.1723   -0.5965 C   0  0  0  0  0  0  0  0  0  0  0  0
    0.1501   -1.0583   -0.6620 H   0  0  0  0  0  0  0  0  0  0  0  0
   -1.2868   -0.2738   -1.3287 H   0  0  0  0  0  0  0  0  0  0  0  0
    0.3684    1.0573   -0.9469 C   0  0  0  0  0  0  0  0  0  0  0  0
    1.1554    0.7719   -1.6463 H   0  0  0  0  0  0  0  0  0  0  0  0
   -0.2663    1.8131   -1.4136 H   0  0  0  0  0  0  0  0  0  0  0  0
    1.0084    1.6428    0.3194 C   0  0  0  0  0  0  0  0  0  0  0  0
    0.2184    1.9138    1.0239 H   0  0  0  0  0  0  0  0  0  0  0  0
    1.6491    0.8864    0.7770 H   0  0  0  0  0  0  0  0  0  0  0  0
    1.8391    2.8852   -0.0255 C   0  0  0  0  0  0  0  0  0  0  0  0
    2.6189    2.5947   -0.7371 H   0  0  0  0  0  0  0  0  0  0  0  0
    1.1881    3.6123   -0.5202 H   0  0  0  0  0  0  0  0  0  0  0  0
    2.4510    3.4865    1.1863 N   0  3  0  0  0  0  0  0  0  0  0  0
    3.0629    2.8217    1.6427 H   0  0  0  0  0  0  0  0  0  0  0  0
    2.9949    4.3046    0.9418 H   0  0  0  0  0  0  0  0  0  0  0  0
    1.7327    3.7652    1.8445 H   0  0  0  0  0  0  0  0  0  0  0  0
   -1.3103    1.3348    1.2791 C   0  0  0  0  0  0  0  0  0  0  0  0
   -2.2333    1.9891    0.8084 O   0  0  0  0  0  0  0  0  0  0  0  0
   -0.4429    1.8293    2.1683 N   0  0  0  0  0  0  0  0  0  0  0  0
    0.2668    1.2118    2.5263 H   0  0  0  0  0  0  0  0  0  0  0  0
   -0.5118    3.1863    2.7135 C   0  0  0  0  0  0  0  0  0  0  0  0
   -1.4470    3.3159    3.2625 H   0  0  0  0  0  0  0  0  0  0  0  0
    0.3243    3.3682    3.3896 H   0  0  0  0  0  0  0  0  0  0  0  0
   -0.4850    3.9172    1.9023 H   0  0  0  0  0  0  0  0  0  0  0  0
  5  6  2  0  0  0  0
  5  7  1  0  0  0  0
  2  3  1  0  0  0  0
  2  4  1  0  0  0  0
  2  5  1  0  0  0  0
  1  2  1  0  0  0  0
 27 28  2  0  0  0  0
 27 29  1  0  0  0  0
 23 24  1  0  0  0  0
 23 25  1  0  0  0  0
 23 26  1  0  0  0  0
 20 21  1  0  0  0  0
 20 22  1  0  0  0  0
 20 23  1  0  0  0  0
 17 18  1  0  0  0  0
 17 19  1  0  0  0  0
 17 20  1  0  0  0  0
 14 15  1  0  0  0  0
 14 16  1  0  0  0  0
 14 17  1  0  0  0  0
 11 12  1  0  0  0  0
 11 13  1  0  0  0  0
 11 14  1  0  0  0  0
  9 10  1  0  0  0  0
  9 11  1  0  0  0  0
  9 27  1  0  0  0  0
  7  8  1  0  0  0  0
  7  9  1  0  0  0  0
 31 32  1  0  0  0  0
 31 33  1  0  0  0  0
 31 34  1  0  0  0  0
 29 30  1  0  0  0  0
 29 31  1  0  0  0  0
M  CHG  1  23   1
M  END
$$$$
default_name
  -OEChem-02102213163D

 34 33  0     1  0  0  0  0  0999 V2000
   -3.8899   -3.6747    1.6490 H   0  0  0  0  0  0  0  0  0  0  0  0
   -3.9109   -2.6717    1.2250 C   0  0  0  0  0  0  0  0  0  0  0  0
   -4.6009   -2.0517    1.7950 H   0  0  0  0  0  0  0  0  0  0  0  0
   -4.2309   -2.7237    0.1860 H   0  0  0  0  0  0  0  0  0  0  0  0
   -2.5229   -2.0787    1.2980 C   0  0  0  0  0  0  0  0  0  0  0  0
   -1.5999   -2.7227    1.7810 O   0  0  0  0  0  0  0  0  0  0  0  0
   -2.3659   -0.8447    0.8120 N   0  0  0  0  0  0  0  0  0  0  0  0
   -3.1749   -0.3807    0.4220 H   0  0  0  0  0  0  0  0  0  0  0  0
   -1.0919   -0.1077    0.8170 C   0  0  1  0  0  0  0  0  0  0  0  0
   -0.4136   -0.6011    1.5155 H   0  0  0  0  0  0  0  0  0  0  0  0
   -0.4834   -0.1723   -0.5965 C   0  0  0  0  0  0  0  0  0  0  0  0
    0.1501   -1.0583   -0.6620 H   0  0  0  0  0  0  0  0  0  0  0  0
   -1.2868   -0.2738   -1.3287 H   0  0  0  0  0  0  0  0  0  0  0  0
    0.3684    1.0573   -0.9469 C   0  0  0  0  0  0  0  0  0  0  0  0
    0.9738    0.8455   -1.8293 H   0  0  0  0  0  0  0  0  0  0  0  0
   -0.2899    1.9016   -1.1605 H   0  0  0  0  0  0  0  0  0  0  0  0
    1.2936    1.4179    0.2236 C   0  0  0  0  0  0  0  0  0  0  0  0
    0.6852    1.6148    1.1095 H   0  0  0  0  0  0  0  0  0  0  0  0
    1.9559    0.5741    0.4270 H   0  0  0  0  0  0  0  0  0  0  0  0
    2.1268    2.6603   -0.1154 C   0  0  0  0  0  0  0  0  0  0  0  0
    2.7224    2.4456   -1.0087 H   0  0  0  0  0  0  0  0  0  0  0  0
    1.4447    3.4811   -0.3566 H   0  0  0  0  0  0  0  0  0  0  0  0
    3.0147    3.0459    1.0105 N   0  3  0  0  0  0  0  0  0  0  0  0
    3.6554    2.2940    1.2315 H   0  0  0  0  0  0  0  0  0  0  0  0
    3.5569    3.8667    0.7712 H   0  0  0  0  0  0  0  0  0  0  0  0
    2.4675    3.2542    1.8376 H   0  0  0  0  0  0  0  0  0  0  0  0
   -1.3103    1.3348    1.2791 C   0  0  0  0  0  0  0  0  0  0  0  0
   -2.2333    1.9891    0.8084 O   0  0  0  0  0  0  0  0  0  0  0  0
   -0.4429    1.8293    2.1683 N   0  0  0  0  0  0  0  0  0  0  0  0
    0.2668    1.2118    2.5263 H   0  0  0  0  0  0  0  0  0  0  0  0
   -0.5118    3.1863    2.7135 C   0  0  0  0  0  0  0  0  0  0  0  0
   -1.4470    3.3159    3.2625 H   0  0  0  0  0  0  0  0  0  0  0  0
    0.3243    3.3682    3.3896 H   0  0  0  0  0  0  0  0  0  0  0  0
   -0.4850    3.9172    1.9023 H   0  0  0  0  0  0  0  0  0  0  0  0
  5  6  2  0  0  0  0
  5  7  1  0  0  0  0
  2  3  1  0  0  0  0
  2  4  1  0  0  0  0
  2  5  1  0  0  0  0
  1  2  1  0  0  0  0
 27 28  2  0  0  0  0
 27 29  1  0  0  0  0
 23 24  1  0  0  0  0
 23 25  1  0  0  0  0
 23 26  1  0  0  0  0
 20 21  1  0  0  0  0
 20 22  1  0  0  0  0
 20 23  1  0  0  0  0
 17 18  1  0  0  0  0
 17 19  1  0  0  0  0
 17 20  1  0  0  0  0
 14 15  1  0  0  0  0
 14 16  1  0  0  0  0
 14 17  1  0  0  0  0
 11 12  1  0  0  0  0
 11 13  1  0  0  0  0
 11 14  1  0  0  0  0
  9 10  1  0  0  0  0
  9 11  1  0  0  0  0
  9 27  1  0  0  0  0
  7  8  1  0  0  0  0
  7  9  1  0  0  0  0
 31 32  1  0  0  0  0
 31 33  1  0  0  0  0
 31 34  1  0  0  0  0
 29 30  1  0  0  0  0
 29 31  1  0  0  0  0
M  CHG  1  23   1
M  END
$$$$
default_name
  -OEChem-02102213163D

 34 33  0     1  0  0  0  0  0999 V2000
   -3.8899   -3.6747    1.6490 H   0  0  0  0  0  0  0  0  0  0  0  0
   -3.9109   -2.6717    1.2250 C   0  0  0  0  0  0  0  0  0  0  0  0
   -4.6009   -2.0517    1.7950 H   0  0  0  0  0  0  0  0  0  0  0  0
   -4.2309   -2.7237    0.1860 H   0  0  0  0  0  0  0  0  0  0  0  0
   -2.5229   -2.0787    1.2980 C   0  0  0  0  0  0  0  0  0  0  0  0
   -1.5999   -2.7227    1.7810 O   0  0  0  0  0  0  0  0  0  0  0  0
   -2.3659   -0.8447    0.8120 N   0  0  0  0  0  0  0  0  0  0  0  0
   -3.1749   -0.3807    0.4220 H   0  0  0  0  0  0  0  0  0  0  0  0
   -1.0919   -0.1077    0.8170 C   0  0  1  0  0  0  0  0  0  0  0  0
   -0.4136   -0.6011    1.5155 H   0  0  0  0  0  0  0  0  0  0  0  0
   -0.4834   -0.1723   -0.5965 C   0  0  0  0  0  0  0  0  0  0  0  0
    0.1501   -1.0583   -0.6620 H   0  0  0  0  0  0  0  0  0  0  0  0
   -1.2868   -0.2738   -1.3287 H   0  0  0  0  0  0  0  0  0  0  0  0
    0.3684    1.0573   -0.9469 C   0  0  0  0  0  0  0  0  0  0  0  0
    0.7648    0.9537   -1.9579 H   0  0  0  0  0  0  0  0  0  0  0  0
   -0.2551    1.9522   -0.8985 H   0  0  0  0  0  0  0  0  0  0  0  0
    1.5359    1.1976    0.0396 C   0  0  0  0  0  0  0  0  0  0  0  0
    1.1362    1.2862    1.0526 H   0  0  0  0  0  0  0  0  0  0  0  0
    2.1613    0.3046   -0.0194 H   0  0  0  0  0  0  0  0  0  0  0  0
    2.3729    2.4389   -0.2940 C   0  0  0  0  0  0  0  0  0  0  0  0
    2.7572    2.3345   -1.3139 H   0  0  0  0  0  0  0  0  0  0  0  0
    1.7188    3.3158   -0.2705 H   0  0  0  0  0  0  0  0  0  0  0  0
    3.4967    2.6123    0.6607 N   0  3  0  0  0  0  0  0  0  0  0  0
    4.1115    1.8083    0.6359 H   0  0  0  0  0  0  0  0  0  0  0  0
    4.0385    3.4350    0.4272 H   0  0  0  0  0  0  0  0  0  0  0  0
    3.1457    2.7183    1.6054 H   0  0  0  0  0  0  0  0  0  0  0  0
   -1.3103    1.3348    1.2791 C   0  0  0  0  0  0  0  0  0  0  0  0
   -2.2333    1.9891    0.8084 O   0  0  0  0  0  0  0  0  0  0  0  0
   -0.4429    1.8293    2.1683 N   0  0  0  0  0  0  0  0  0  0  0  0
    0.2668    1.2118    2.5263 H   0  0  0  0  0  0  0  0  0  0  0  0
   -0.5118    3.1863    2.7135 C   0  0  0  0  0  0  0  0  0  0  0  0
   -1.4470    3.3159    3.2625 H   0  0  0  0  0  0  0  0  0  0  0  0
    0.3243    3.3682    3.3896 H   0  0  0  0  0  0  0  0  0  0  0  0
   -0.4850    3.9172    1.9023 H   0  0  0  0  0  0  0  0  0  0  0  0
  5  6  2  0  0  0  0
  5  7  1  0  0  0  0
  2  3  1  0  0  0  0
  2  4  1  0  0  0  0
  2  5  1  0  0  0  0
  1  2  1  0  0  0  0
 27 28  2  0  0  0  0
 27 29  1  0  0  0  0
 23 24  1  0  0  0  0
 23 25  1  0  0  0  0
 23 26  1  0  0  0  0
 20 21  1  0  0  0  0
 20 22  1  0  0  0  0
 20 23  1  0  0  0  0
 17 18  1  0  0  0  0
 17 19  1  0  0  0  0
 17 20  1  0  0  0  0
 14 15  1  0  0  0  0
 14 16  1  0  0  0  0
 14 17  1  0  0  0  0
 11 12  1  0  0  0  0
 11 13  1  0  0  0  0
 11 14  1  0  0  0  0
  9 10  1  0  0  0  0
  9 11  1  0  0  0  0
  9 27  1  0  0  0  0
  7  8  1  0  0  0  0
  7  9  1  0  0  0  0
 31 32  1  0  0  0  0
 31 33  1  0  0  0  0
 31 34  1  0  0  0  0
 29 30  1  0  0  0  0
 29 31  1  0  0  0  0
M  CHG  1  23   1
M  END
$$$$
default_name
  -OEChem-02102213163D

 34 33  0     1  0  0  0  0  0999 V2000
   -3.8899   -3.6747    1.6490 H   0  0  0  0  0  0  0  0  0  0  0  0
   -3.9109   -2.6717    1.2250 C   0  0  0  0  0  0  0  0  0  0  0  0
   -4.6009   -2.0517    1.7950 H   0  0  0  0  0  0  0  0  0  0  0  0
   -4.2309   -2.7237    0.1860 H   0  0  0  0  0  0  0  0  0  0  0  0
   -2.5229   -2.0787    1.2980 C   0  0  0  0  0  0  0  0  0  0  0  0
   -1.5999   -2.7227    1.7810 O   0  0  0  0  0  0  0  0  0  0  0  0
   -2.3659   -0.8447    0.8120 N   0  0  0  0  0  0  0  0  0  0  0  0
   -3.1749   -0.3807    0.4220 H   0  0  0  0  0  0  0  0  0  0  0  0
   -1.0919   -0.1077    0.8170 C   0  0  1  0  0  0  0  0  0  0  0  0
   -0.4136   -0.6011    1.5155 H   0  0  0  0  0  0  0  0  0  0  0  0
   -0.4834   -0.1723   -0.5965 C   0  0  0  0  0  0  0  0  0  0  0  0
    0.1501   -1.0583   -0.6620 H   0  0  0  0  0  0  0  0  0  0  0  0
   -1.2868   -0.2738   -1.3287 H   0  0  0  0  0  0  0  0  0  0  0  0
    0.3684    1.0573   -0.9469 C   0  0  0  0  0  0  0  0  0  0  0  0
    0.5427    1.0889   -2.0233 H   0  0  0  0  0  0  0  0  0  0  0  0
   -0.1642    1.9613   -0.6454 H   0  0  0  0  0  0  0  0  0  0  0  0
    1.7189    0.9969   -0.2199 C   0  0  0  0  0  0  0  0  0  0  0  0
    1.5406    0.9503    0.8571 H   0  0  0  0  0  0  0  0  0  0  0  0
    2.2513    0.0962   -0.5318 H   0  0  0  0  0  0  0  0  0  0  0  0
    2.5605    2.2362   -0.5493 C   0  0  0  0  0  0  0  0  0  0  0  0
    2.7211    2.2689   -1.6318 H   0  0  0  0  0  0  0  0  0  0  0  0
    1.9917    3.1276   -0.2679 H   0  0  0  0  0  0  0  0  0  0  0  0
    3.8643    2.2152    0.1607 N   0  3  0  0  0  0  0  0  0  0  0  0
    4.3999    1.3978   -0.1037 H   0  0  0  0  0  0  0  0  0  0  0  0
    4.4069    3.0390   -0.0669 H   0  0  0  0  0  0  0  0  0  0  0  0
    3.7211    2.1938    1.1636 H   0  0  0  0  0  0  0  0  0  0  0  0
   -1.3103    1.3348    1.2791 C   0  0  0  0  0  0  0  0  0  0  0  0
   -2.2333    1.9891    0.8084 O   0  0  0  0  0  0  0  0  0  0  0  0
   -0.4429    1.8293    2.1683 N   0  0  0  0  0  0  0  0  0  0  0  0
    0.2668    1.2118    2.5263 H   0  0  0  0  0  0  0  0  0  0  0  0
   -0.5118    3.1863    2.7135 C   0  0  0  0  0  0  0  0  0  0  0  0
   -1.4470    3.3159    3.2625 H   0  0  0  0  0  0  0  0  0  0  0  0
    0.3243    3.3682    3.3896 H   0  0  0  0  0  0  0  0  0  0  0  0
   -0.4850    3.9172    1.9023 H   0  0  0  0  0  0  0  0  0  0  0  0
  5  6  2  0  0  0  0
  5  7  1  0  0  0  0
  2  3  1  0  0  0  0
  2  4  1  0  0  0  0
  2  5  1  0  0  0  0
  1  2  1  0  0  0  0
 27 28  2  0  0  0  0
 27 29  1  0  0  0  0
 23 24  1  0  0  0  0
 23 25  1  0  0  0  0
 23 26  1  0  0  0  0
 20 21  1  0  0  0  0
 20 22  1  0  0  0  0
 20 23  1  0  0  0  0
 17 18  1  0  0  0  0
 17 19  1  0  0  0  0
 17 20  1  0  0  0  0
 14 15  1  0  0  0  0
 14 16  1  0  0  0  0
 14 17  1  0  0  0  0
 11 12  1  0  0  0  0
 11 13  1  0  0  0  0
 11 14  1  0  0  0  0
  9 10  1  0  0  0  0
  9 11  1  0  0  0  0
  9 27  1  0  0  0  0
  7  8  1  0  0  0  0
  7  9  1  0  0  0  0
 31 32  1  0  0  0  0
 31 33  1  0  0  0  0
 31 34  1  0  0  0  0
 29 30  1  0  0  0  0
 29 31  1  0  0  0  0
M  CHG  1  23   1
M  END
$$$$
default_name
  -OEChem-02102213163D

 34 33  0     1  0  0  0  0  0999 V2000
   -3.8899   -3.6747    1.6490 H   0  0  0  0  0  0  0  0  0  0  0  0
   -3.9109   -2.6717    1.2250 C   0  0  0  0  0  0  0  0  0  0  0  0
   -4.6009   -2.0517    1.7950 H   0  0  0  0  0  0  0  0  0  0  0  0
   -4.2309   -2.7237    0.1860 H   0  0  0  0  0  0  0  0  0  0  0  0
   -2.5229   -2.0787    1.2980 C   0  0  0  0  0  0  0  0  0  0  0  0
   -1.5999   -2.7227    1.7810 O   0  0  0  0  0  0  0  0  0  0  0  0
   -2.3659   -0.8447    0.8120 N   0  0  0  0  0  0  0  0  0  0  0  0
   -3.1749   -0.3807    0.4220 H   0  0  0  0  0  0  0  0  0  0  0  0
   -1.0919   -0.1077    0.8170 C   0  0  1  0  0  0  0  0  0  0  0  0
   -0.4136   -0.6011    1.5155 H   0  0  0  0  0  0  0  0  0  0  0  0
   -0.4834   -0.1723   -0.5965 C   0  0  0  0  0  0  0  0  0  0  0  0
    0.1501   -1.0583   -0.6620 H   0  0  0  0  0  0  0  0  0  0  0  0
   -1.2868   -0.2738   -1.3287 H   0  0  0  0  0  0  0  0  0  0  0  0
    0.3684    1.0573   -0.9469 C   0  0  0  0  0  0  0  0  0  0  0  0
    0.3226    1.2420   -2.0210 H   0  0  0  0  0  0  0  0  0  0  0  0
   -0.0234    1.9285   -0.4184 H   0  0  0  0  0  0  0  0  0  0  0  0
    1.8300    0.8295   -0.5372 C   0  0  0  0  0  0  0  0  0  0  0  0
    1.8710    0.6300    0.5363 H   0  0  0  0  0  0  0  0  0  0  0  0
    2.2198   -0.0369   -1.0753 H   0  0  0  0  0  0  0  0  0  0  0  0
    2.6768    2.0660   -0.8638 C   0  0  0  0  0  0  0  0  0  0  0  0
    2.6165    2.2532   -1.9409 H   0  0  0  0  0  0  0  0  0  0  0  0
    2.2446    2.9293   -0.3489 H   0  0  0  0  0  0  0  0  0  0  0  0
    4.0923    1.8816   -0.4554 N   0  3  0  0  0  0  0  0  0  0  0  0
    4.5010    1.0903   -0.9366 H   0  0  0  0  0  0  0  0  0  0  0  0
    4.6371    2.7056   -0.6772 H   0  0  0  0  0  0  0  0  0  0  0  0
    4.1543    1.7167    0.5425 H   0  0  0  0  0  0  0  0  0  0  0  0
   -1.3103    1.3348    1.2791 C   0  0  0  0  0  0  0  0  0  0  0  0
   -2.2333    1.9891    0.8084 O   0  0  0  0  0  0  0  0  0  0  0  0
   -0.4429    1.8293    2.1683 N   0  0  0  0  0  0  0  0  0  0  0  0
    0.2668    1.2118    2.5263 H   0  0  0  0  0  0  0  0  0  0  0  0
   -0.5118    3.1863    2.7135 C   0  0  0  0  0  0  0  0  0  0  0  0
   -1.4470    3.3159    3.2625 H   0  0  0  0  0  0  0  0  0  0  0  0
    0.3243    3.3682    3.3896 H   0  0  0  0  0  0  0  0  0  0  0  0
   -0.4850    3.9172    1.9023 H   0  0  0  0  0  0  0  0  0  0  0  0
  5  6  2  0  0  0  0
  5  7  1  0  0  0  0
  2  3  1  0  0  0  0
  2  4  1  0  0  0  0
  2  5  1  0  0  0  0
  1  2  1  0  0  0  0
 27 28  2  0  0  0  0
 27 29  1  0  0  0  0
 23 24  1  0  0  0  0
 23 25  1  0  0  0  0
 23 26  1  0  0  0  0
 20 21  1  0  0  0  0
 20 22  1  0  0  0  0
 20 23  1  0  0  0  0
 17 18  1  0  0  0  0
 17 19  1  0  0  0  0
 17 20  1  0  0  0  0
 14 15  1  0  0  0  0
 14 16  1  0  0  0  0
 14 17  1  0  0  0  0
 11 12  1  0  0  0  0
 11 13  1  0  0  0  0
 11 14  1  0  0  0  0
  9 10  1  0  0  0  0
  9 11  1  0  0  0  0
  9 27  1  0  0  0  0
  7  8  1  0  0  0  0
  7  9  1  0  0  0  0
 31 32  1  0  0  0  0
 31 33  1  0  0  0  0
 31 34  1  0  0  0  0
 29 30  1  0  0  0  0
 29 31  1  0  0  0  0
M  CHG  1  23   1
M  END
$$$$
default_name
  -OEChem-02102213163D

 34 33  0     1  0  0  0  0  0999 V2000
   -3.8899   -3.6747    1.6490 H   0  0  0  0  0  0  0  0  0  0  0  0
   -3.9109   -2.6717    1.2250 C   0  0  0  0  0  0  0  0  0  0  0  0
   -4.6009   -2.0517    1.7950 H   0  0  0  0  0  0  0  0  0  0  0  0
   -4.2309   -2.7237    0.1860 H   0  0  0  0  0  0  0  0  0  0  0  0
   -2.5229   -2.0787    1.2980 C   0  0  0  0  0  0  0  0  0  0  0  0
   -1.5999   -2.7227    1.7810 O   0  0  0  0  0  0  0  0  0  0  0  0
   -2.3659   -0.8447    0.8120 N   0  0  0  0  0  0  0  0  0  0  0  0
   -3.1749   -0.3807    0.4220 H   0  0  0  0  0  0  0  0  0  0  0  0
   -1.0919   -0.1077    0.8170 C   0  0  1  0  0  0  0  0  0  0  0  0
   -0.4136   -0.6011    1.5155 H   0  0  0  0  0  0  0  0  0  0  0  0
   -0.4834   -0.1723   -0.5965 C   0  0  0  0  0  0  0  0  0  0  0  0
    0.1501   -1.0583   -0.6620 H   0  0  0  0  0  0  0  0  0  0  0  0
   -1.2868   -0.2738   -1.3287 H   0  0  0  0  0  0  0  0  0  0  0  0
    0.3684    1.0573   -0.9469 C   0  0  0  0  0  0  0  0  0  0  0  0
    0.1195    1.4026   -1.9513 H   0  0  0  0  0  0  0  0  0  0  0  0
    0.1576    1.8559   -0.2330 H   0  0  0  0  0  0  0  0  0  0  0  0
    1.8618    0.7068   -0.8908 C   0  0  0  0  0  0  0  0  0  0  0  0
    2.1047    0.3472    0.1120 H   0  0  0  0  0  0  0  0  0  0  0  0
    2.0689   -0.0855   -1.6128 H   0  0  0  0  0  0  0  0  0  0  0  0
    2.7140    1.9398   -1.2162 C   0  0  0  0  0  0  0  0  0  0  0  0
    2.4506    2.2887   -2.2200 H   0  0  0  0  0  0  0  0  0  0  0  0
    2.4605    2.7344   -0.5079 H   0  0  0  0  0  0  0  0  0  0  0  0
    4.1653    1.6344   -1.1455 N   0  3  0  0  0  0  0  0  0  0  0  0
    4.4080    0.9069   -1.8063 H   0  0  0  0  0  0  0  0  0  0  0  0
    4.7133    2.4576   -1.3623 H   0  0  0  0  0  0  0  0  0  0  0  0
    4.4160    1.3193   -0.2156 H   0  0  0  0  0  0  0  0  0  0  0  0
   -1.3103    1.3348    1.2791 C   0  0  0  0  0  0  0  0  0  0  0  0
   -2.2333    1.9891    0.8084 O   0  0  0  0  0  0  0  0  0  0  0  0
   -0.4429    1.8293    2.1683 N   0  0  0  0  0  0  0  0  0  0  0  0
    0.2668    1.2118    2.5263 H   0  0  0  0  0  0  0  0  0  0  0  0
   -0.5118    3.1863    2.7135 C   0  0  0  0  0  0  0  0  0  0  0  0
   -1.4470    3.3159    3.2625 H   0  0  0  0  0  0  0  0  0  0  0  0
    0.3243    3.3682    3.3896 H   0  0  0  0  0  0  0  0  0  0  0  0
   -0.4850    3.9172    1.9023 H   0  0  0  0  0  0  0  0  0  0  0  0
  5  6  2  0  0  0  0
  5  7  1  0  0  0  0
  2  3  1  0  0  0  0
  2  4  1  0  0  0  0
  2  5  1  0  0  0  0
  1  2  1  0  0  0  0
 27 28  2  0  0  0  0
 27 29  1  0  0  0  0
 23 24  1  0  0  0  0
 23 25  1  0  0  0  0
 23 26  1  0  0  0  0
 20 21  1  0  0  0  0
 20 22  1  0  0  0  0
 20 23  1  0  0  0  0
 17 18  1  0  0  0  0
 17 19  1  0  0  0  0
 17 20  1  0  0  0  0
 14 15  1  0  0  0  0
 14 16  1  0  0  0  0
 14 17  1  0  0  0  0
 11 12  1  0  0  0  0
 11 13  1  0  0  0  0
 11 14  1  0  0  0  0
  9 10  1  0  0  0  0
  9 11  1  0  0  0  0
  9 27  1  0  0  0  0
  7  8  1  0  0  0  0
  7  9  1  0  0  0  0
 31 32  1  0  0  0  0
 31 33  1  0  0  0  0
 31 34  1  0  0  0  0
 29 30  1  0  0  0  0
 29 31  1  0  0  0  0
M  CHG  1  23   1
M  END
$$$$
default_name
  -OEChem-02102213163D

 34 33  0     1  0  0  0  0  0999 V2000
   -3.8899   -3.6747    1.6490 H   0  0  0  0  0  0  0  0  0  0  0  0
   -3.9109   -2.6717    1.2250 C   0  0  0  0  0  0  0  0  0  0  0  0
   -4.6009   -2.0517    1.7950 H   0  0  0  0  0  0  0  0  0  0  0  0
   -4.2309   -2.7237    0.1860 H   0  0  0  0  0  0  0  0  0  0  0  0
   -2.5229   -2.0787    1.2980 C   0  0  0  0  0  0  0  0  0  0  0  0
   -1.5999   -2.7227    1.7810 O   0  0  0  0  0  0  0  0  0  0  0  0
   -2.3659   -0.8447    0.8120 N   0  0  0  0  0  0  0  0  0  0  0  0
   -3.1749   -0.3807    0.4220 H   0  0  0  0  0  0  0  0  0  0  0  0
   -1.0919   -0.1077    0.8170 C   0  0  1  0  0  0  0  0  0  0  0  0
   -0.4136   -0.6011    1.5155 H   0  0  0  0  0  0  0  0  0  0  0  0
   -0.4834   -0.1723   -0.5965 C   0  0  0  0  0  0  0  0  0  0  0  0
    0.1501   -1.0583   -0.6620 H   0  0  0  0  0  0  0  0  0  0  0  0
   -1.2868   -0.2738   -1.3287 H   0  0  0  0  0  0  0  0  0  0  0  0
    0.3684    1.0573   -0.9469 C   0  0  0  0  0  0  0  0  0  0  0  0
   -0.0527    1.5596   -1.8188 H   0  0  0  0  0  0  0  0  0  0  0  0
    0.3666    1.7485   -0.1019 H   0  0  0  0  0  0  0  0  0  0  0  0
    1.8119    0.6371   -1.2565 C   0  0  0  0  0  0  0  0  0  0  0  0
    2.2259    0.1211   -0.3868 H   0  0  0  0  0  0  0  0  0  0  0  0
    1.8090   -0.0465   -2.1078 H   0  0  0  0  0  0  0  0  0  0  0  0
    2.6695    1.8663   -1.5823 C   0  0  0  0  0  0  0  0  0  0  0  0
    2.2345    2.3727   -2.4501 H   0  0  0  0  0  0  0  0  0  0  0  0
    2.6245    2.5562   -0.7343 H   0  0  0  0  0  0  0  0  0  0  0  0
    4.0782    1.4903   -1.8628 N   0  3  0  0  0  0  0  0  0  0  0  0
    4.1272    0.8599   -2.6534 H   0  0  0  0  0  0  0  0  0  0  0  0
    4.6303    2.3118   -2.0754 H   0  0  0  0  0  0  0  0  0  0  0  0
    4.4882    1.0289   -1.0592 H   0  0  0  0  0  0  0  0  0  0  0  0
   -1.3103    1.3348    1.2791 C   0  0  0  0  0  0  0  0  0  0  0  0
   -2.2333    1.9891    0.8084 O   0  0  0  0  0  0  0  0  0  0  0  0
   -0.4429    1.8293    2.1683 N   0  0  0  0  0  0  0  0  0  0  0  0
    0.2668    1.2118    2.5263 H   0  0  0  0  0  0  0  0  0  0  0  0
   -0.5118    3.1863    2.7135 C   0  0  0  0  0  0  0  0  0  0  0  0
   -1.4470    3.3159    3.2625 H   0  0  0  0  0  0  0  0  0  0  0  0
    0.3243    3.3682    3.3896 H   0  0  0  0  0  0  0  0  0  0  0  0
   -0.4850    3.9172    1.9023 H   0  0  0  0  0  0  0  0  0  0  0  0
  5  6  2  0  0  0  0
  5  7  1  0  0  0  0
  2  3  1  0  0  0  0
  2  4  1  0  0  0  0
  2  5  1  0  0  0  0
  1  2  1  0  0  0  0
 27 28  2  0  0  0  0
 27 29  1  0  0  0  0
 23 24  1  0  0  0  0
 23 25  1  0  0  0  0
 23 26  1  0  0  0  0
 20 21  1  0  0  0  0
 20 22  1  0  0  0  0
 20 23  1  0  0  0  0
 17 18  1  0  0  0  0
 17 19  1  0  0  0  0
 17 20  1  0  0  0  0
 14 15  1  0  0  0  0
 14 16  1  0  0  0  0
 14 17  1  0  0  0  0
 11 12  1  0  0  0  0
 11 13  1  0  0  0  0
 11 14  1  0  0  0  0
  9 10  1  0  0  0  0
  9 11  1  0  0  0  0
  9 27  1  0  0  0  0
  7  8  1  0  0  0  0
  7  9  1  0  0  0  0
 31 32  1  0  0  0  0
 31 33  1  0  0  0  0
 31 34  1  0  0  0  0
 29 30  1  0  0  0  0
 29 31  1  0  0  0  0
M  CHG  1  23   1
M  END
$$$$
default_name
  -OEChem-02102213163D

 34 33  0     1  0  0  0  0  0999 V2000
   -3.8899   -3.6747    1.6490 H   0  0  0  0  0  0  0  0  0  0  0  0
   -3.9109   -2.6717    1.2250 C   0  0  0  0  0  0  0  0  0  0  0  0
   -4.6009   -2.0517    1.7950 H   0  0  0  0  0  0  0  0  0  0  0  0
   -4.2309   -2.7237    0.1860 H   0  0  0  0  0  0  0  0  0  0  0  0
   -2.5229   -2.0787    1.2980 C   0  0  0  0  0  0  0  0  0  0  0  0
   -1.5999   -2.7227    1.7810 O   0  0  0  0  0  0  0  0  0  0  0  0
   -2.3659   -0.8447    0.8120 N   0  0  0  0  0  0  0  0  0  0  0  0
   -3.1749   -0.3807    0.4220 H   0  0  0  0  0  0  0  0  0  0  0  0
   -1.0919   -0.1077    0.8170 C   0  0  1  0  0  0  0  0  0  0  0  0
   -0.4136   -0.6011    1.5155 H   0  0  0  0  0  0  0  0  0  0  0  0
   -0.4834   -0.1723   -0.5965 C   0  0  0  0  0  0  0  0  0  0  0  0
    0.1501   -1.0583   -0.6620 H   0  0  0  0  0  0  0  0  0  0  0  0
   -1.2868   -0.2738   -1.3287 H   0  0  0  0  0  0  0  0  0  0  0  0
    0.3684    1.0573   -0.9469 C   0  0  0  0  0  0  0  0  0  0  0  0
   -0.1824    1.7025   -1.6326 H   0  0  0  0  0  0  0  0  0  0  0  0
    0.5894    1.6136   -0.0339 H   0  0  0  0  0  0  0  0  0  0  0  0
    1.6839    0.6252   -1.6094 C   0  0  0  0  0  0  0  0  0  0  0  0
    2.2262   -0.0328   -0.9262 H   0  0  0  0  0  0  0  0  0  0  0  0
    1.4577    0.0775   -2.5265 H   0  0  0  0  0  0  0  0  0  0  0  0
    2.5463    1.8504   -1.9373 C   0  0  0  0  0  0  0  0  0  0  0  0
    1.9831    2.4997   -2.6156 H   0  0  0  0  0  0  0  0  0  0  0  0
    2.7256    2.4070   -1.0124 H   0  0  0  0  0  0  0  0  0  0  0  0
    3.8370    1.4592   -2.5582 N   0  3  0  0  0  0  0  0  0  0  0  0
    3.6777    0.9528   -3.4202 H   0  0  0  0  0  0  0  0  0  0  0  0
    4.3939    2.2782   -2.7680 H   0  0  0  0  0  0  0  0  0  0  0  0
    4.3661    0.8651   -1.9306 H   0  0  0  0  0  0  0  0  0  0  0  0
   -1.3103    1.3348    1.2791 C   0  0  0  0  0  0  0  0  0  0  0  0
   -2.2333    1.9891    0.8084 O   0  0  0  0  0  0  0  0  0  0  0  0
   -0.4429    1.8293    2.1683 N   0  0  0  0  0  0  0  0  0  0  0  0
    0.2668    1.2118    2.5263 H   0  0  0  0  0  0  0  0  0  0  0  0
   -0.5118    3.1863    2.7135 C   0  0  0  0  0  0  0  0  0  0  0  0
   -1.4470    3.3159    3.2625 H   0  0  0  0  0  0  0  0  0  0  0  0
    0.3243    3.3682    3.3896 H   0  0  0  0  0  0  0  0  0  0  0  0
   -0.4850    3.9172    1.9023 H   0  0  0  0  0  0  0  0  0  0  0  0
  5  6  2  0  0  0  0
  5  7  1  0  0  0  0
  2  3  1  0  0  0  0
  2  4  1  0  0  0  0
  2  5  1  0  0  0  0
  1  2  1  0  0  0  0
 27 28  2  0  0  0  0
 27 29  1  0  0  0  0
 23 24  1  0  0  0  0
 23 25  1  0  0  0  0
 23 26  1  0  0  0  0
 20 21  1  0  0  0  0
 20 22  1  0  0  0  0
 20 23  1  0  0  0  0
 17 18  1  0  0  0  0
 17 19  1  0  0  0  0
 17 20  1  0  0  0  0
 14 15  1  0  0  0  0
 14 16  1  0  0  0  0
 14 17  1  0  0  0  0
 11 12  1  0  0  0  0
 11 13  1  0  0  0  0
 11 14  1  0  0  0  0
  9 10  1  0  0  0  0
  9 11  1  0  0  0  0
  9 27  1  0  0  0  0
  7  8  1  0  0  0  0
  7  9  1  0  0  0  0
 31 32  1  0  0  0  0
 31 33  1  0  0  0  0
 31 34  1  0  0  0  0
 29 30  1  0  0  0  0
 29 31  1  0  0  0  0
M  CHG  1  23   1
M  END
$$$$
default_name
  -OEChem-02102213163D

 34 33  0     1  0  0  0  0  0999 V2000
   -3.8899   -3.6747    1.6490 H   0  0  0  0  0  0  0  0  0  0  0  0
   -3.9109   -2.6717    1.2250 C   0  0  0  0  0  0  0  0  0  0  0  0
   -4.6009   -2.0517    1.7950 H   0  0  0  0  0  0  0  0  0  0  0  0
   -4.2309   -2.7237    0.1860 H   0  0  0  0  0  0  0  0  0  0  0  0
   -2.5229   -2.0787    1.2980 C   0  0  0  0  0  0  0  0  0  0  0  0
   -1.5999   -2.7227    1.7810 O   0  0  0  0  0  0  0  0  0  0  0  0
   -2.3659   -0.8447    0.8120 N   0  0  0  0  0  0  0  0  0  0  0  0
   -3.1749   -0.3807    0.4220 H   0  0  0  0  0  0  0  0  0  0  0  0
   -1.0919   -0.1077    0.8170 C   0  0  1  0  0  0  0  0  0  0  0  0
   -0.4136   -0.6011    1.5155 H   0  0  0  0  0  0  0  0  0  0  0  0
   -0.4834   -0.1723   -0.5965 C   0  0  0  0  0  0  0  0  0  0  0  0
    0.1501   -1.0583   -0.6620 H   0  0  0  0  0  0  0  0  0  0  0  0
   -1.2868   -0.2738   -1.3287 H   0  0  0  0  0  0  0  0  0  0  0  0
    0.3684    1.0573   -0.9469 C   0  0  0  0  0  0  0  0  0  0  0  0
   -0.2606    1.8215   -1.4054 H   0  0  0  0  0  0  0  0  0  0  0  0
    0.8106    1.4604   -0.0337 H   0  0  0  0  0  0  0  0  0  0  0  0
    1.4864    0.6719   -1.9255 C   0  0  0  0  0  0  0  0  0  0  0  0
    2.1057   -0.1042   -1.4694 H   0  0  0  0  0  0  0  0  0  0  0  0
    1.0389    0.2782   -2.8403 H   0  0  0  0  0  0  0  0  0  0  0  0
    2.3528    1.8934   -2.2570 C   0  0  0  0  0  0  0  0  0  0  0  0
    1.7135    2.6610   -2.7051 H   0  0  0  0  0  0  0  0  0  0  0  0
    2.7567    2.2967   -1.3235 H   0  0  0  0  0  0  0  0  0  0  0  0
    3.4581    1.5432   -3.1845 N   0  3  0  0  0  0  0  0  0  0  0  0
    3.0902    1.1790   -4.0544 H   0  0  0  0  0  0  0  0  0  0  0  0
    4.0200    2.3591   -3.3927 H   0  0  0  0  0  0  0  0  0  0  0  0
    4.0580    0.8391   -2.7706 H   0  0  0  0  0  0  0  0  0  0  0  0
   -1.3103    1.3348    1.2791 C   0  0  0  0  0  0  0  0  0  0  0  0
   -2.2333    1.9891    0.8084 O   0  0  0  0  0  0  0  0  0  0  0  0
   -0.4429    1.8293    2.1683 N   0  0  0  0  0  0  0  0  0  0  0  0
    0.2668    1.2118    2.5263 H   0  0  0  0  0  0  0  0  0  0  0  0
   -0.5118    3.1863    2.7135 C   0  0  0  0  0  0  0  0  0  0  0  0
   -1.4470    3.3159    3.2625 H   0  0  0  0  0  0  0  0  0  0  0  0
    0.3243    3.3682    3.3896 H   0  0  0  0  0  0  0  0  0  0  0  0
   -0.4850    3.9172    1.9023 H   0  0  0  0  0  0  0  0  0  0  0  0
  5  6  2  0  0  0  0
  5  7  1  0  0  0  0
  2  3  1  0  0  0  0
  2  4  1  0  0  0  0
  2  5  1  0  0  0  0
  1  2  1  0  0  0  0
 27 28  2  0  0  0  0
 27 29  1  0  0  0  0
 23 24  1  0  0  0  0
 23 25  1  0  0  0  0
 23 26  1  0  0  0  0
 20 21  1  0  0  0  0
 20 22  1  0  0  0  0
 20 23  1  0  0  0  0
 17 18  1  0  0  0  0
 17 19  1  0  0  0  0
 17 20  1  0  0  0  0
 14 15  1  0  0  0  0
 14 16  1  0  0  0  0
 14 17  1  0  0  0  0
 11 12  1  0  0  0  0
 11 13  1  0  0  0  0
 11 14  1  0  0  0  0
  9 10  1  0  0  0  0
  9 11  1  0  0  0  0
  9 27  1  0  0  0  0
  7  8  1  0  0  0  0
  7  9  1  0  0  0  0
 31 32  1  0  0  0  0
 31 33  1  0  0  0  0
 31 34  1  0  0  0  0
 29 30  1  0  0  0  0
 29 31  1  0  0  0  0
M  CHG  1  23   1
M  END
$$$$
default_name
  -OEChem-02102213163D

 34 33  0     1  0  0  0  0  0999 V2000
   -3.8899   -3.6747    1.6490 H   0  0  0  0  0  0  0  0  0  0  0  0
   -3.9109   -2.6717    1.2250 C   0  0  0  0  0  0  0  0  0  0  0  0
   -4.6009   -2.0517    1.7950 H   0  0  0  0  0  0  0  0  0  0  0  0
   -4.2309   -2.7237    0.1860 H   0  0  0  0  0  0  0  0  0  0  0  0
   -2.5229   -2.0787    1.2980 C   0  0  0  0  0  0  0  0  0  0  0  0
   -1.5999   -2.7227    1.7810 O   0  0  0  0  0  0  0  0  0  0  0  0
   -2.3659   -0.8447    0.8120 N   0  0  0  0  0  0  0  0  0  0  0  0
   -3.1749   -0.3807    0.4220 H   0  0  0  0  0  0  0  0  0  0  0  0
   -1.0919   -0.1077    0.8170 C   0  0  1  0  0  0  0  0  0  0  0  0
   -0.4136   -0.6011    1.5155 H   0  0  0  0  0  0  0  0  0  0  0  0
   -0.4834   -0.1723   -0.5965 C   0  0  0  0  0  0  0  0  0  0  0  0
    0.1501   -1.0583   -0.6620 H   0  0  0  0  0  0  0  0  0  0  0  0
   -1.2868   -0.2738   -1.3287 H   0  0  0  0  0  0  0  0  0  0  0  0
    0.3684    1.0573   -0.9469 C   0  0  0  0  0  0  0  0  0  0  0  0
   -0.2821    1.9084   -1.1527 H   0  0  0  0  0  0  0  0  0  0  0  0
    1.0153    1.2993   -0.1014 H   0  0  0  0  0  0  0  0  0  0  0  0
    1.2330    0.7740   -2.1832 C   0  0  0  0  0  0  0  0  0  0  0  0
    1.8726   -0.0880   -1.9793 H   0  0  0  0  0  0  0  0  0  0  0  0
    0.5813    0.5417   -3.0278 H   0  0  0  0  0  0  0  0  0  0  0  0
    2.1023    1.9921   -2.5195 C   0  0  0  0  0  0  0  0  0  0  0  0
    1.4441    2.8455   -2.7126 H   0  0  0  0  0  0  0  0  0  0  0  0
    2.7159    2.2330   -1.6462 H   0  0  0  0  0  0  0  0  0  0  0  0
    2.9674    1.7365   -3.6988 N   0  3  0  0  0  0  0  0  0  0  0  0
    2.4047    1.5232   -4.5129 H   0  0  0  0  0  0  0  0  0  0  0  0
    3.5343    2.5490   -3.9072 H   0  0  0  0  0  0  0  0  0  0  0  0
    3.5849    0.9528   -3.5218 H   0  0  0  0  0  0  0  0  0  0  0  0
   -1.3103    1.3348    1.2791 C   0  0  0  0  0  0  0  0  0  0  0  0
   -2.2333    1.9891    0.8084 O   0  0  0  0  0  0  0  0  0  0  0  0
   -0.4429    1.8293    2.1683 N   0  0  0  0  0  0  0  0  0  0  0  0
    0.2668    1.2118    2.5263 H   0  0  0  0  0  0  0  0  0  0  0  0
   -0.5118    3.1863    2.7135 C   0  0  0  0  0  0  0  0  0  0  0  0
   -1.4470    3.3159    3.2625 H   0  0  0  0  0  0  0  0  0  0  0  0
    0.3243    3.3682    3.3896 H   0  0  0  0  0  0  0  0  0  0  0  0
   -0.4850    3.9172    1.9023 H   0  0  0  0  0  0  0  0  0  0  0  0
  5  6  2  0  0  0  0
  5  7  1  0  0  0  0
  2  3  1  0  0  0  0
  2  4  1  0  0  0  0
  2  5  1  0  0  0  0
  1  2  1  0  0  0  0
 27 28  2  0  0  0  0
 27 29  1  0  0  0  0
 23 24  1  0  0  0  0
 23 25  1  0  0  0  0
 23 26  1  0  0  0  0
 20 21  1  0  0  0  0
 20 22  1  0  0  0  0
 20 23  1  0  0  0  0
 17 18  1  0  0  0  0
 17 19  1  0  0  0  0
 17 20  1  0  0  0  0
 14 15  1  0  0  0  0
 14 16  1  0  0  0  0
 14 17  1  0  0  0  0
 11 12  1  0  0  0  0
 11 13  1  0  0  0  0
 11 14  1  0  0  0  0
  9 10  1  0  0  0  0
  9 11  1  0  0  0  0
  9 27  1  0  0  0  0
  7  8  1  0  0  0  0
  7  9  1  0  0  0  0
 31 32  1  0  0  0  0
 31 33  1  0  0  0  0
 31 34  1  0  0  0  0
 29 30  1  0  0  0  0
 29 31  1  0  0  0  0
M  CHG  1  23   1
M  END
$$$$
default_name
  -OEChem-02102213163D

 34 33  0     1  0  0  0  0  0999 V2000
   -3.8899   -3.6747    1.6490 H   0  0  0  0  0  0  0  0  0  0  0  0
   -3.9109   -2.6717    1.2250 C   0  0  0  0  0  0  0  0  0  0  0  0
   -4.6009   -2.0517    1.7950 H   0  0  0  0  0  0  0  0  0  0  0  0
   -4.2309   -2.7237    0.1860 H   0  0  0  0  0  0  0  0  0  0  0  0
   -2.5229   -2.0787    1.2980 C   0  0  0  0  0  0  0  0  0  0  0  0
   -1.5999   -2.7227    1.7810 O   0  0  0  0  0  0  0  0  0  0  0  0
   -2.3659   -0.8447    0.8120 N   0  0  0  0  0  0  0  0  0  0  0  0
   -3.1749   -0.3807    0.4220 H   0  0  0  0  0  0  0  0  0  0  0  0
   -1.0919   -0.1077    0.8170 C   0  0  1  0  0  0  0  0  0  0  0  0
   -0.4136   -0.6011    1.5155 H   0  0  0  0  0  0  0  0  0  0  0  0
   -0.4834   -0.1723   -0.5965 C   0  0  0  0  0  0  0  0  0  0  0  0
   -0.0765   -1.1724   -0.7543 H   0  0  0  0  0  0  0  0  0  0  0  0
   -1.2707   -0.0051   -1.3341 H   0  0  0  0  0  0  0  0  0  0  0  0
    0.6434    0.8481   -0.8190 C   0  0  0  0  0  0  0  0  0  0  0  0
    0.2592    1.8580   -0.6698 H   0  0  0  0  0  0  0  0  0  0  0  0
    1.4442    0.6616   -0.1007 H   0  0  0  0  0  0  0  0  0  0  0  0
    1.2008    0.7268   -2.2440 C   0  0  0  0  0  0  0  0  0  0  0  0
    1.5711   -0.2900   -2.3951 H   0  0  0  0  0  0  0  0  0  0  0  0
    0.3985    0.9231   -2.9580 H   0  0  0  0  0  0  0  0  0  0  0  0
    2.3426    1.7280   -2.4596 C   0  0  0  0  0  0  0  0  0  0  0  0
    1.9536    2.7383   -2.2963 H   0  0  0  0  0  0  0  0  0  0  0  0
    3.1155    1.5409   -1.7081 H   0  0  0  0  0  0  0  0  0  0  0  0
    2.9168    1.6155   -3.8242 N   0  3  0  0  0  0  0  0  0  0  0  0
    2.2085    1.7980   -4.5241 H   0  0  0  0  0  0  0  0  0  0  0  0
    3.6684    2.2820   -3.9501 H   0  0  0  0  0  0  0  0  0  0  0  0
    3.2862    0.6844   -3.9773 H   0  0  0  0  0  0  0  0  0  0  0  0
   -1.3103    1.3348    1.2791 C   0  0  0  0  0  0  0  0  0  0  0  0
   -2.2333    1.9891    0.8084 O   0  0  0  0  0  0  0  0  0  0  0  0
   -0.4429    1.8293    2.1683 N   0  0  0  0  0  0  0  0  0  0  0  0
    0.2668    1.2118    2.5263 H   0  0  0  0  0  0  0  0  0  0  0  0
   -0.5118    3.1863    2.7135 C   0  0  0  0  0  0  0  0  0  0  0  0
   -1.4470    3.3159    3.2625 H   0  0  0  0  0  0  0  0  0  0  0  0
    0.3243    3.3682    3.3896 H   0  0  0  0  0  0  0  0  0  0  0  0
   -0.4850    3.9172    1.9023 H   0  0  0  0  0  0  0  0  0  0  0  0
  5  6  2  0  0  0  0
  5  7  1  0  0  0  0
  2  3  1  0  0  0  0
  2  4  1  0  0  0  0
  2  5  1  0  0  0  0
  1  2  1  0  0  0  0
 27 28  2  0  0  0  0
 27 29  1  0  0  0  0
 23 24  1  0  0  0  0
 23 25  1  0  0  0  0
 23 26  1  0  0  0  0
 20 21  1  0  0  0  0
 20 22  1  0  0  0  0
 20 23  1  0  0  0  0
 17 18  1  0  0  0  0
 17 19  1  0  0  0  0
 17 20  1  0  0  0  0
 14 15  1  0  0  0  0
 14 16  1  0  0  0  0
 14 17  1  0  0  0  0
 11 12  1  0  0  0  0
 11 13  1  0  0  0  0
 11 14  1  0  0  0  0
  9 10  1  0  0  0  0
  9 11  1  0  0  0  0
  9 27  1  0  0  0  0
  7  8  1  0  0  0  0
  7  9  1  0  0  0  0
 31 32  1  0  0  0  0
 31 33  1  0  0  0  0
 31 34  1  0  0  0  0
 29 30  1  0  0  0  0
 29 31  1  0  0  0  0
M  CHG  1  23   1
M  END
$$$$
default_name
  -OEChem-02102213163D

 34 33  0     1  0  0  0  0  0999 V2000
   -3.8899   -3.6747    1.6490 H   0  0  0  0  0  0  0  0  0  0  0  0
   -3.9109   -2.6717    1.2250 C   0  0  0  0  0  0  0  0  0  0  0  0
   -4.6009   -2.0517    1.7950 H   0  0  0  0  0  0  0  0  0  0  0  0
   -4.2309   -2.7237    0.1860 H   0  0  0  0  0  0  0  0  0  0  0  0
   -2.5229   -2.0787    1.2980 C   0  0  0  0  0  0  0  0  0  0  0  0
   -1.5999   -2.7227    1.7810 O   0  0  0  0  0  0  0  0  0  0  0  0
   -2.3659   -0.8447    0.8120 N   0  0  0  0  0  0  0  0  0  0  0  0
   -3.1749   -0.3807    0.4220 H   0  0  0  0  0  0  0  0  0  0  0  0
   -1.0919   -0.1077    0.8170 C   0  0  1  0  0  0  0  0  0  0  0  0
   -0.4136   -0.6011    1.5155 H   0  0  0  0  0  0  0  0  0  0  0  0
   -0.4834   -0.1723   -0.5965 C   0  0  0  0  0  0  0  0  0  0  0  0
   -0.0765   -1.1724   -0.7543 H   0  0  0  0  0  0  0  0  0  0  0  0
   -1.2707   -0.0051   -1.3341 H   0  0  0  0  0  0  0  0  0  0  0  0
    0.6434    0.8481   -0.8190 C   0  0  0  0  0  0  0  0  0  0  0  0
    0.3450    1.8180   -0.4190 H   0  0  0  0  0  0  0  0  0  0  0  0
    1.5424    0.5098   -0.3000 H   0  0  0  0  0  0  0  0  0  0  0  0
    0.9457    0.9926   -2.3169 C   0  0  0  0  0  0  0  0  0  0  0  0
    1.2298    0.0166   -2.7177 H   0  0  0  0  0  0  0  0  0  0  0  0
    0.0465    1.3399   -2.8297 H   0  0  0  0  0  0  0  0  0  0  0  0
    2.0873    1.9925   -2.5390 C   0  0  0  0  0  0  0  0  0  0  0  0
    1.7866    2.9602   -2.1244 H   0  0  0  0  0  0  0  0  0  0  0  0
    2.9645    1.6478   -1.9831 H   0  0  0  0  0  0  0  0  0  0  0  0
    2.4168    2.1338   -3.9798 N   0  3  0  0  0  0  0  0  0  0  0  0
    1.6117    2.4627   -4.4980 H   0  0  0  0  0  0  0  0  0  0  0  0
    3.1714    2.7961   -4.1091 H   0  0  0  0  0  0  0  0  0  0  0  0
    2.7043    1.2422   -4.3663 H   0  0  0  0  0  0  0  0  0  0  0  0
   -1.3103    1.3348    1.2791 C   0  0  0  0  0  0  0  0  0  0  0  0
   -2.2333    1.9891    0.8084 O   0  0  0  0  0  0  0  0  0  0  0  0
   -0.4429    1.8293    2.1683 N   0  0  0  0  0  0  0  0  0  0  0  0
    0.2668    1.2118    2.5263 H   0  0  0  0  0  0  0  0  0  0  0  0
   -0.5118    3.1863    2.7135 C   0  0  0  0  0  0  0  0  0  0  0  0
   -1.4470    3.3159    3.2625 H   0  0  0  0  0  0  0  0  0  0  0  0
    0.3243    3.3682    3.3896 H   0  0  0  0  0  0  0  0  0  0  0  0
   -0.4850    3.9172    1.9023 H   0  0  0  0  0  0  0  0  0  0  0  0
  5  6  2  0  0  0  0
  5  7  1  0  0  0  0
  2  3  1  0  0  0  0
  2  4  1  0  0  0  0
  2  5  1  0  0  0  0
  1  2  1  0  0  0  0
 27 28  2  0  0  0  0
 27 29  1  0  0  0  0
 23 24  1  0  0  0  0
 23 25  1  0  0  0  0
 23 26  1  0  0  0  0
 20 21  1  0  0  0  0
 20 22  1  0  0  0  0
 20 23  1  0  0  0  0
 17 18  1  0  0  0  0
 17 19  1  0  0  0  0
 17 20  1  0  0  0  0
 14 15  1  0  0  0  0
 14 16  1  0  0  0  0
 14 17  1  0  0  0  0
 11 12  1  0  0  0  0
 11 13  1  0  0  0  0
 11 14  1  0  0  0  0
  9 10  1  0  0  0  0
  9 11  1  0  0  0  0
  9 27  1  0  0  0  0
  7  8  1  0  0  0  0
  7  9  1  0  0  0  0
 31 32  1  0  0  0  0
 31 33  1  0  0  0  0
 31 34  1  0  0  0  0
 29 30  1  0  0  0  0
 29 31  1  0  0  0  0
M  CHG  1  23   1
M  END
$$$$
default_name
  -OEChem-02102213163D

 34 33  0     1  0  0  0  0  0999 V2000
   -3.8899   -3.6747    1.6490 H   0  0  0  0  0  0  0  0  0  0  0  0
   -3.9109   -2.6717    1.2250 C   0  0  0  0  0  0  0  0  0  0  0  0
   -4.6009   -2.0517    1.7950 H   0  0  0  0  0  0  0  0  0  0  0  0
   -4.2309   -2.7237    0.1860 H   0  0  0  0  0  0  0  0  0  0  0  0
   -2.5229   -2.0787    1.2980 C   0  0  0  0  0  0  0  0  0  0  0  0
   -1.5999   -2.7227    1.7810 O   0  0  0  0  0  0  0  0  0  0  0  0
   -2.3659   -0.8447    0.8120 N   0  0  0  0  0  0  0  0  0  0  0  0
   -3.1749   -0.3807    0.4220 H   0  0  0  0  0  0  0  0  0  0  0  0
   -1.0919   -0.1077    0.8170 C   0  0  1  0  0  0  0  0  0  0  0  0
   -0.4136   -0.6011    1.5155 H   0  0  0  0  0  0  0  0  0  0  0  0
   -0.4834   -0.1723   -0.5965 C   0  0  0  0  0  0  0  0  0  0  0  0
   -0.0765   -1.1724   -0.7543 H   0  0  0  0  0  0  0  0  0  0  0  0
   -1.2707   -0.0051   -1.3341 H   0  0  0  0  0  0  0  0  0  0  0  0
    0.6434    0.8481   -0.8190 C   0  0  0  0  0  0  0  0  0  0  0  0
    0.4694    1.7286   -0.1990 H   0  0  0  0  0  0  0  0  0  0  0  0
    1.5973    0.3972   -0.5382 H   0  0  0  0  0  0  0  0  0  0  0  0
    0.6967    1.2728   -2.2930 C   0  0  0  0  0  0  0  0  0  0  0  0
    0.8560    0.3869   -2.9123 H   0  0  0  0  0  0  0  0  0  0  0  0
   -0.2559    1.7313   -2.5661 H   0  0  0  0  0  0  0  0  0  0  0  0
    1.8370    2.2727   -2.5215 C   0  0  0  0  0  0  0  0  0  0  0  0
    1.6632    3.1482   -1.8874 H   0  0  0  0  0  0  0  0  0  0  0  0
    2.7753    1.8089   -2.2025 H   0  0  0  0  0  0  0  0  0  0  0  0
    1.9265    2.6826   -3.9458 N   0  3  0  0  0  0  0  0  0  0  0  0
    1.0647    3.1221   -4.2440 H   0  0  0  0  0  0  0  0  0  0  0  0
    2.6833    3.3416   -4.0797 H   0  0  0  0  0  0  0  0  0  0  0  0
    2.0962    1.8767   -4.5362 H   0  0  0  0  0  0  0  0  0  0  0  0
   -1.3103    1.3348    1.2791 C   0  0  0  0  0  0  0  0  0  0  0  0
   -2.2333    1.9891    0.8084 O   0  0  0  0  0  0  0  0  0  0  0  0
   -0.4429    1.8293    2.1683 N   0  0  0  0  0  0  0  0  0  0  0  0
    0.2668    1.2118    2.5263 H   0  0  0  0  0  0  0  0  0  0  0  0
   -0.5118    3.1863    2.7135 C   0  0  0  0  0  0  0  0  0  0  0  0
   -1.4470    3.3159    3.2625 H   0  0  0  0  0  0  0  0  0  0  0  0
    0.3243    3.3682    3.3896 H   0  0  0  0  0  0  0  0  0  0  0  0
   -0.4850    3.9172    1.9023 H   0  0  0  0  0  0  0  0  0  0  0  0
  5  6  2  0  0  0  0
  5  7  1  0  0  0  0
  2  3  1  0  0  0  0
  2  4  1  0  0  0  0
  2  5  1  0  0  0  0
  1  2  1  0  0  0  0
 27 28  2  0  0  0  0
 27 29  1  0  0  0  0
 23 24  1  0  0  0  0
 23 25  1  0  0  0  0
 23 26  1  0  0  0  0
 20 21  1  0  0  0  0
 20 22  1  0  0  0  0
 20 23  1  0  0  0  0
 17 18  1  0  0  0  0
 17 19  1  0  0  0  0
 17 20  1  0  0  0  0
 14 15  1  0  0  0  0
 14 16  1  0  0  0  0
 14 17  1  0  0  0  0
 11 12  1  0  0  0  0
 11 13  1  0  0  0  0
 11 14  1  0  0  0  0
  9 10  1  0  0  0  0
  9 11  1  0  0  0  0
  9 27  1  0  0  0  0
  7  8  1  0  0  0  0
  7  9  1  0  0  0  0
 31 32  1  0  0  0  0
 31 33  1  0  0  0  0
 31 34  1  0  0  0  0
 29 30  1  0  0  0  0
 29 31  1  0  0  0  0
M  CHG  1  23   1
M  END
$$$$
default_name
  -OEChem-02102213163D

 34 33  0     1  0  0  0  0  0999 V2000
   -3.8899   -3.6747    1.6490 H   0  0  0  0  0  0  0  0  0  0  0  0
   -3.9109   -2.6717    1.2250 C   0  0  0  0  0  0  0  0  0  0  0  0
   -4.6009   -2.0517    1.7950 H   0  0  0  0  0  0  0  0  0  0  0  0
   -4.2309   -2.7237    0.1860 H   0  0  0  0  0  0  0  0  0  0  0  0
   -2.5229   -2.0787    1.2980 C   0  0  0  0  0  0  0  0  0  0  0  0
   -1.5999   -2.7227    1.7810 O   0  0  0  0  0  0  0  0  0  0  0  0
   -2.3659   -0.8447    0.8120 N   0  0  0  0  0  0  0  0  0  0  0  0
   -3.1749   -0.3807    0.4220 H   0  0  0  0  0  0  0  0  0  0  0  0
   -1.0919   -0.1077    0.8170 C   0  0  1  0  0  0  0  0  0  0  0  0
   -0.4136   -0.6011    1.5155 H   0  0  0  0  0  0  0  0  0  0  0  0
   -0.4834   -0.1723   -0.5965 C   0  0  0  0  0  0  0  0  0  0  0  0
   -0.0765   -1.1724   -0.7543 H   0  0  0  0  0  0  0  0  0  0  0  0
   -1.2707   -0.0051   -1.3341 H   0  0  0  0  0  0  0  0  0  0  0  0
    0.6434    0.8481   -0.8190 C   0  0  0  0  0  0  0  0  0  0  0  0
    0.6241    1.5957   -0.0249 H   0  0  0  0  0  0  0  0  0  0  0  0
    1.6051    0.3317   -0.7991 H   0  0  0  0  0  0  0  0  0  0  0  0
    0.4707    1.5482   -2.1740 C   0  0  0  0  0  0  0  0  0  0  0  0
    0.4755    0.7954   -2.9659 H   0  0  0  0  0  0  0  0  0  0  0  0
   -0.4880    2.0706   -2.1852 H   0  0  0  0  0  0  0  0  0  0  0  0
    1.6088    2.5494   -2.4085 C   0  0  0  0  0  0  0  0  0  0  0  0
    1.5917    3.2894   -1.6017 H   0  0  0  0  0  0  0  0  0  0  0  0
    2.5608    2.0132   -2.3512 H   0  0  0  0  0  0  0  0  0  0  0  0
    1.4793    3.2247   -3.7244 N   0  3  0  0  0  0  0  0  0  0  0  0
    0.6046    3.7314   -3.7794 H   0  0  0  0  0  0  0  0  0  0  0  0
    2.2373    3.8812   -3.8638 H   0  0  0  0  0  0  0  0  0  0  0  0
    1.5034    2.5446   -4.4753 H   0  0  0  0  0  0  0  0  0  0  0  0
   -1.3103    1.3348    1.2791 C   0  0  0  0  0  0  0  0  0  0  0  0
   -2.2333    1.9891    0.8084 O   0  0  0  0  0  0  0  0  0  0  0  0
   -0.4429    1.8293    2.1683 N   0  0  0  0  0  0  0  0  0  0  0  0
    0.2668    1.2118    2.5263 H   0  0  0  0  0  0  0  0  0  0  0  0
   -0.5118    3.1863    2.7135 C   0  0  0  0  0  0  0  0  0  0  0  0
   -1.4470    3.3159    3.2625 H   0  0  0  0  0  0  0  0  0  0  0  0
    0.3243    3.3682    3.3896 H   0  0  0  0  0  0  0  0  0  0  0  0
   -0.4850    3.9172    1.9023 H   0  0  0  0  0  0  0  0  0  0  0  0
  5  6  2  0  0  0  0
  5  7  1  0  0  0  0
  2  3  1  0  0  0  0
  2  4  1  0  0  0  0
  2  5  1  0  0  0  0
  1  2  1  0  0  0  0
 27 28  2  0  0  0  0
 27 29  1  0  0  0  0
 23 24  1  0  0  0  0
 23 25  1  0  0  0  0
 23 26  1  0  0  0  0
 20 21  1  0  0  0  0
 20 22  1  0  0  0  0
 20 23  1  0  0  0  0
 17 18  1  0  0  0  0
 17 19  1  0  0  0  0
 17 20  1  0  0  0  0
 14 15  1  0  0  0  0
 14 16  1  0  0  0  0
 14 17  1  0  0  0  0
 11 12  1  0  0  0  0
 11 13  1  0  0  0  0
 11 14  1  0  0  0  0
  9 10  1  0  0  0  0
  9 11  1  0  0  0  0
  9 27  1  0  0  0  0
  7  8  1  0  0  0  0
  7  9  1  0  0  0  0
 31 32  1  0  0  0  0
 31 33  1  0  0  0  0
 31 34  1  0  0  0  0
 29 30  1  0  0  0  0
 29 31  1  0  0  0  0
M  CHG  1  23   1
M  END
$$$$
default_name
  -OEChem-02102213163D

 34 33  0     1  0  0  0  0  0999 V2000
   -3.8899   -3.6747    1.6490 H   0  0  0  0  0  0  0  0  0  0  0  0
   -3.9109   -2.6717    1.2250 C   0  0  0  0  0  0  0  0  0  0  0  0
   -4.6009   -2.0517    1.7950 H   0  0  0  0  0  0  0  0  0  0  0  0
   -4.2309   -2.7237    0.1860 H   0  0  0  0  0  0  0  0  0  0  0  0
   -2.5229   -2.0787    1.2980 C   0  0  0  0  0  0  0  0  0  0  0  0
   -1.5999   -2.7227    1.7810 O   0  0  0  0  0  0  0  0  0  0  0  0
   -2.3659   -0.8447    0.8120 N   0  0  0  0  0  0  0  0  0  0  0  0
   -3.1749   -0.3807    0.4220 H   0  0  0  0  0  0  0  0  0  0  0  0
   -1.0919   -0.1077    0.8170 C   0  0  1  0  0  0  0  0  0  0  0  0
   -0.4136   -0.6011    1.5155 H   0  0  0  0  0  0  0  0  0  0  0  0
   -0.4834   -0.1723   -0.5965 C   0  0  0  0  0  0  0  0  0  0  0  0
   -0.0765   -1.1724   -0.7543 H   0  0  0  0  0  0  0  0  0  0  0  0
   -1.2707   -0.0051   -1.3341 H   0  0  0  0  0  0  0  0  0  0  0  0
    0.6434    0.8481   -0.8190 C   0  0  0  0  0  0  0  0  0  0  0  0
    0.7985    1.4285    0.0915 H   0  0  0  0  0  0  0  0  0  0  0  0
    1.5654    0.3176   -1.0648 H   0  0  0  0  0  0  0  0  0  0  0  0
    0.2833    1.8002   -1.9678 C   0  0  0  0  0  0  0  0  0  0  0  0
    0.1140    1.2145   -2.8746 H   0  0  0  0  0  0  0  0  0  0  0  0
   -0.6340    2.3348   -1.7130 H   0  0  0  0  0  0  0  0  0  0  0  0
    1.4181    2.8038   -2.2075 C   0  0  0  0  0  0  0  0  0  0  0  0
    1.5771    3.3743   -1.2866 H   0  0  0  0  0  0  0  0  0  0  0  0
    2.3358    2.2469   -2.4193 H   0  0  0  0  0  0  0  0  0  0  0  0
    1.1057    3.7230   -3.3309 N   0  3  0  0  0  0  0  0  0  0  0  0
    0.2630    4.2490   -3.1360 H   0  0  0  0  0  0  0  0  0  0  0  0
    1.8638    4.3781   -3.4761 H   0  0  0  0  0  0  0  0  0  0  0  0
    0.9663    3.2003   -4.1878 H   0  0  0  0  0  0  0  0  0  0  0  0
   -1.3103    1.3348    1.2791 C   0  0  0  0  0  0  0  0  0  0  0  0
   -2.2333    1.9891    0.8084 O   0  0  0  0  0  0  0  0  0  0  0  0
   -0.4429    1.8293    2.1683 N   0  0  0  0  0  0  0  0  0  0  0  0
    0.2668    1.2118    2.5263 H   0  0  0  0  0  0  0  0  0  0  0  0
   -0.5118    3.1863    2.7135 C   0  0  0  0  0  0  0  0  0  0  0  0
   -1.4470    3.3159    3.2625 H   0  0  0  0  0  0  0  0  0  0  0  0
    0.3243    3.3682    3.3896 H   0  0  0  0  0  0  0  0  0  0  0  0
   -0.4850    3.9172    1.9023 H   0  0  0  0  0  0  0  0  0  0  0  0
  5  6  2  0  0  0  0
  5  7  1  0  0  0  0
  2  3  1  0  0  0  0
  2  4  1  0  0  0  0
  2  5  1  0  0  0  0
  1  2  1  0  0  0  0
 27 28  2  0  0  0  0
 27 29  1  0  0  0  0
 23 24  1  0  0  0  0
 23 25  1  0  0  0  0
 23 26  1  0  0  0  0
 20 21  1  0  0  0  0
 20 22  1  0  0  0  0
 20 23  1  0  0  0  0
 17 18  1  0  0  0  0
 17 19  1  0  0  0  0
 17 20  1  0  0  0  0
 14 15  1  0  0  0  0
 14 16  1  0  0  0  0
 14 17  1  0  0  0  0
 11 12  1  0  0  0  0
 11 13  1  0  0  0  0
 11 14  1  0  0  0  0
  9 10  1  0  0  0  0
  9 11  1  0  0  0  0
  9 27  1  0  0  0  0
  7  8  1  0  0  0  0
  7  9  1  0  0  0  0
 31 32  1  0  0  0  0
 31 33  1  0  0  0  0
 31 34  1  0  0  0  0
 29 30  1  0  0  0  0
 29 31  1  0  0  0  0
M  CHG  1  23   1
M  END
$$$$
default_name
  -OEChem-02102213163D

 34 33  0     1  0  0  0  0  0999 V2000
   -3.8899   -3.6747    1.6490 H   0  0  0  0  0  0  0  0  0  0  0  0
   -3.9109   -2.6717    1.2250 C   0  0  0  0  0  0  0  0  0  0  0  0
   -4.6009   -2.0517    1.7950 H   0  0  0  0  0  0  0  0  0  0  0  0
   -4.2309   -2.7237    0.1860 H   0  0  0  0  0  0  0  0  0  0  0  0
   -2.5229   -2.0787    1.2980 C   0  0  0  0  0  0  0  0  0  0  0  0
   -1.5999   -2.7227    1.7810 O   0  0  0  0  0  0  0  0  0  0  0  0
   -2.3659   -0.8447    0.8120 N   0  0  0  0  0  0  0  0  0  0  0  0
   -3.1749   -0.3807    0.4220 H   0  0  0  0  0  0  0  0  0  0  0  0
   -1.0919   -0.1077    0.8170 C   0  0  1  0  0  0  0  0  0  0  0  0
   -0.4136   -0.6011    1.5155 H   0  0  0  0  0  0  0  0  0  0  0  0
   -0.4834   -0.1723   -0.5965 C   0  0  0  0  0  0  0  0  0  0  0  0
   -0.0765   -1.1724   -0.7543 H   0  0  0  0  0  0  0  0  0  0  0  0
   -1.2707   -0.0051   -1.3341 H   0  0  0  0  0  0  0  0  0  0  0  0
    0.6434    0.8481   -0.8190 C   0  0  0  0  0  0  0  0  0  0  0  0
    0.9807    1.2384    0.1422 H   0  0  0  0  0  0  0  0  0  0  0  0
    1.4808    0.3559   -1.3174 H   0  0  0  0  0  0  0  0  0  0  0  0
    0.1471    2.0114   -1.6887 C   0  0  0  0  0  0  0  0  0  0  0  0
   -0.2038    1.6155   -2.6447 H   0  0  0  0  0  0  0  0  0  0  0  0
   -0.6839    2.5058   -1.1816 H   0  0  0  0  0  0  0  0  0  0  0  0
    1.2780    3.0185   -1.9323 C   0  0  0  0  0  0  0  0  0  0  0  0
    1.6203    3.3970   -0.9636 H   0  0  0  0  0  0  0  0  0  0  0  0
    2.1155    2.4939   -2.4020 H   0  0  0  0  0  0  0  0  0  0  0  0
    0.8312    4.1436   -2.7919 N   0  3  0  0  0  0  0  0  0  0  0  0
    0.0630    4.6396   -2.3575 H   0  0  0  0  0  0  0  0  0  0  0  0
    1.5883    4.7985   -2.9432 H   0  0  0  0  0  0  0  0  0  0  0  0
    0.5215    3.7993   -3.6932 H   0  0  0  0  0  0  0  0  0  0  0  0
   -1.3103    1.3348    1.2791 C   0  0  0  0  0  0  0  0  0  0  0  0
   -2.2333    1.9891    0.8084 O   0  0  0  0  0  0  0  0  0  0  0  0
   -0.4429    1.8293    2.1683 N   0  0  0  0  0  0  0  0  0  0  0  0
    0.2668    1.2118    2.5263 H   0  0  0  0  0  0  0  0  0  0  0  0
   -0.5118    3.1863    2.7135 C   0  0  0  0  0  0  0  0  0  0  0  0
   -1.4470    3.3159    3.2625 H   0  0  0  0  0  0  0  0  0  0  0  0
    0.3243    3.3682    3.3896 H   0  0  0  0  0  0  0  0  0  0  0  0
   -0.4850    3.9172    1.9023 H   0  0  0  0  0  0  0  0  0  0  0  0
  5  6  2  0  0  0  0
  5  7  1  0  0  0  0
  2  3  1  0  0  0  0
  2  4  1  0  0  0  0
  2  5  1  0  0  0  0
  1  2  1  0  0  0  0
 27 28  2  0  0  0  0
 27 29  1  0  0  0  0
 23 24  1  0  0  0  0
 23 25  1  0  0  0  0
 23 26  1  0  0  0  0
 20 21  1  0  0  0  0
 20 22  1  0  0  0  0
 20 23  1  0  0  0  0
 17 18  1  0  0  0  0
 17 19  1  0  0  0  0
 17 20  1  0  0  0  0
 14 15  1  0  0  0  0
 14 16  1  0  0  0  0
 14 17  1  0  0  0  0
 11 12  1  0  0  0  0
 11 13  1  0  0  0  0
 11 14  1  0  0  0  0
  9 10  1  0  0  0  0
  9 11  1  0  0  0  0
  9 27  1  0  0  0  0
  7  8  1  0  0  0  0
  7  9  1  0  0  0  0
 31 32  1  0  0  0  0
 31 33  1  0  0  0  0
 31 34  1  0  0  0  0
 29 30  1  0  0  0  0
 29 31  1  0  0  0  0
M  CHG  1  23   1
M  END
$$$$
default_name
  -OEChem-02102213163D

 34 33  0     1  0  0  0  0  0999 V2000
   -3.8899   -3.6747    1.6490 H   0  0  0  0  0  0  0  0  0  0  0  0
   -3.9109   -2.6717    1.2250 C   0  0  0  0  0  0  0  0  0  0  0  0
   -4.6009   -2.0517    1.7950 H   0  0  0  0  0  0  0  0  0  0  0  0
   -4.2309   -2.7237    0.1860 H   0  0  0  0  0  0  0  0  0  0  0  0
   -2.5229   -2.0787    1.2980 C   0  0  0  0  0  0  0  0  0  0  0  0
   -1.5999   -2.7227    1.7810 O   0  0  0  0  0  0  0  0  0  0  0  0
   -2.3659   -0.8447    0.8120 N   0  0  0  0  0  0  0  0  0  0  0  0
   -3.1749   -0.3807    0.4220 H   0  0  0  0  0  0  0  0  0  0  0  0
   -1.0919   -0.1077    0.8170 C   0  0  1  0  0  0  0  0  0  0  0  0
   -0.4136   -0.6011    1.5155 H   0  0  0  0  0  0  0  0  0  0  0  0
   -0.4834   -0.1723   -0.5965 C   0  0  0  0  0  0  0  0  0  0  0  0
   -0.0765   -1.1724   -0.7543 H   0  0  0  0  0  0  0  0  0  0  0  0
   -1.2707   -0.0051   -1.3341 H   0  0  0  0  0  0  0  0  0  0  0  0
    0.6434    0.8481   -0.8190 C   0  0  0  0  0  0  0  0  0  0  0  0
    1.1582    1.0384    0.1238 H   0  0  0  0  0  0  0  0  0  0  0  0
    1.3571    0.4440   -1.5396 H   0  0  0  0  0  0  0  0  0  0  0  0
    0.0715    2.1675   -1.3555 C   0  0  0  0  0  0  0  0  0  0  0  0
   -0.4562    1.9712   -2.2920 H   0  0  0  0  0  0  0  0  0  0  0  0
   -0.6344    2.5719   -0.6273 H   0  0  0  0  0  0  0  0  0  0  0  0
    1.1980    3.1789   -1.6016 C   0  0  0  0  0  0  0  0  0  0  0  0
    1.7184    3.3560   -0.6547 H   0  0  0  0  0  0  0  0  0  0  0  0
    1.9149    2.7375   -2.3006 H   0  0  0  0  0  0  0  0  0  0  0  0
    0.6745    4.4579   -2.1443 N   0  3  0  0  0  0  0  0  0  0  0  0
    0.0182    4.8766   -1.4970 H   0  0  0  0  0  0  0  0  0  0  0  0
    1.4296    5.1137   -2.3013 H   0  0  0  0  0  0  0  0  0  0  0  0
    0.1994    4.3007   -3.0254 H   0  0  0  0  0  0  0  0  0  0  0  0
   -1.3103    1.3348    1.2791 C   0  0  0  0  0  0  0  0  0  0  0  0
   -2.2333    1.9891    0.8084 O   0  0  0  0  0  0  0  0  0  0  0  0
   -0.4429    1.8293    2.1683 N   0  0  0  0  0  0  0  0  0  0  0  0
    0.2668    1.2118    2.5263 H   0  0  0  0  0  0  0  0  0  0  0  0
   -0.5118    3.1863    2.7135 C   0  0  0  0  0  0  0  0  0  0  0  0
   -1.4470    3.3159    3.2625 H   0  0  0  0  0  0  0  0  0  0  0  0
    0.3243    3.3682    3.3896 H   0  0  0  0  0  0  0  0  0  0  0  0
   -0.4850    3.9172    1.9023 H   0  0  0  0  0  0  0  0  0  0  0  0
  5  6  2  0  0  0  0
  5  7  1  0  0  0  0
  2  3  1  0  0  0  0
  2  4  1  0  0  0  0
  2  5  1  0  0  0  0
  1  2  1  0  0  0  0
 27 28  2  0  0  0  0
 27 29  1  0  0  0  0
 23 24  1  0  0  0  0
 23 25  1  0  0  0  0
 23 26  1  0  0  0  0
 20 21  1  0  0  0  0
 20 22  1  0  0  0  0
 20 23  1  0  0  0  0
 17 18  1  0  0  0  0
 17 19  1  0  0  0  0
 17 20  1  0  0  0  0
 14 15  1  0  0  0  0
 14 16  1  0  0  0  0
 14 17  1  0  0  0  0
 11 12  1  0  0  0  0
 11 13  1  0  0  0  0
 11 14  1  0  0  0  0
  9 10  1  0  0  0  0
  9 11  1  0  0  0  0
  9 27  1  0  0  0  0
  7  8  1  0  0  0  0
  7  9  1  0  0  0  0
 31 32  1  0  0  0  0
 31 33  1  0  0  0  0
 31 34  1  0  0  0  0
 29 30  1  0  0  0  0
 29 31  1  0  0  0  0
M  CHG  1  23   1
M  END
$$$$
default_name
  -OEChem-02102213163D

 34 33  0     1  0  0  0  0  0999 V2000
   -3.8899   -3.6747    1.6490 H   0  0  0  0  0  0  0  0  0  0  0  0
   -3.9109   -2.6717    1.2250 C   0  0  0  0  0  0  0  0  0  0  0  0
   -4.6009   -2.0517    1.7950 H   0  0  0  0  0  0  0  0  0  0  0  0
   -4.2309   -2.7237    0.1860 H   0  0  0  0  0  0  0  0  0  0  0  0
   -2.5229   -2.0787    1.2980 C   0  0  0  0  0  0  0  0  0  0  0  0
   -1.5999   -2.7227    1.7810 O   0  0  0  0  0  0  0  0  0  0  0  0
   -2.3659   -0.8447    0.8120 N   0  0  0  0  0  0  0  0  0  0  0  0
   -3.1749   -0.3807    0.4220 H   0  0  0  0  0  0  0  0  0  0  0  0
   -1.0919   -0.1077    0.8170 C   0  0  1  0  0  0  0  0  0  0  0  0
   -0.4136   -0.6011    1.5155 H   0  0  0  0  0  0  0  0  0  0  0  0
   -0.4834   -0.1723   -0.5965 C   0  0  0  0  0  0  0  0  0  0  0  0
   -0.0765   -1.1724   -0.7543 H   0  0  0  0  0  0  0  0  0  0  0  0
   -1.2707   -0.0051   -1.3341 H   0  0  0  0  0  0  0  0  0  0  0  0
    0.6434    0.8481   -0.8190 C   0  0  0  0  0  0  0  0  0  0  0  0
    1.3190    0.8420    0.0375 H   0  0  0  0  0  0  0  0  0  0  0  0
    1.2028    0.5760   -1.7162 H   0  0  0  0  0  0  0  0  0  0  0  0
    0.0615    2.2580   -0.9911 C   0  0  0  0  0  0  0  0  0  0  0  0
   -0.6260    2.2572   -1.8403 H   0  0  0  0  0  0  0  0  0  0  0  0
   -0.4888    2.5288   -0.0879 H   0  0  0  0  0  0  0  0  0  0  0  0
    1.1836    3.2741   -1.2381 C   0  0  0  0  0  0  0  0  0  0  0  0
    1.8647    3.2541   -0.3811 H   0  0  0  0  0  0  0  0  0  0  0  0
    1.7477    2.9611   -2.1218 H   0  0  0  0  0  0  0  0  0  0  0  0
    0.6462    4.6445   -1.4321 N   0  3  0  0  0  0  0  0  0  0  0  0
    0.1318    4.9438   -0.6131 H   0  0  0  0  0  0  0  0  0  0  0  0
    1.3985    5.3023   -1.5941 H   0  0  0  0  0  0  0  0  0  0  0  0
    0.0218    4.6703   -2.2298 H   0  0  0  0  0  0  0  0  0  0  0  0
   -1.3103    1.3348    1.2791 C   0  0  0  0  0  0  0  0  0  0  0  0
   -2.2333    1.9891    0.8084 O   0  0  0  0  0  0  0  0  0  0  0  0
   -0.4429    1.8293    2.1683 N   0  0  0  0  0  0  0  0  0  0  0  0
    0.2668    1.2118    2.5263 H   0  0  0  0  0  0  0  0  0  0  0  0
   -0.5118    3.1863    2.7135 C   0  0  0  0  0  0  0  0  0  0  0  0
   -1.4470    3.3159    3.2625 H   0  0  0  0  0  0  0  0  0  0  0  0
    0.3243    3.3682    3.3896 H   0  0  0  0  0  0  0  0  0  0  0  0
   -0.4850    3.9172    1.9023 H   0  0  0  0  0  0  0  0  0  0  0  0
  5  6  2  0  0  0  0
  5  7  1  0  0  0  0
  2  3  1  0  0  0  0
  2  4  1  0  0  0  0
  2  5  1  0  0  0  0
  1  2  1  0  0  0  0
 27 28  2  0  0  0  0
 27 29  1  0  0  0  0
 23 24  1  0  0  0  0
 23 25  1  0  0  0  0
 23 26  1  0  0  0  0
 20 21  1  0  0  0  0
 20 22  1  0  0  0  0
 20 23  1  0  0  0  0
 17 18  1  0  0  0  0
 17 19  1  0  0  0  0
 17 20  1  0  0  0  0
 14 15  1  0  0  0  0
 14 16  1  0  0  0  0
 14 17  1  0  0  0  0
 11 12  1  0  0  0  0
 11 13  1  0  0  0  0
 11 14  1  0  0  0  0
  9 10  1  0  0  0  0
  9 11  1  0  0  0  0
  9 27  1  0  0  0  0
  7  8  1  0  0  0  0
  7  9  1  0  0  0  0
 31 32  1  0  0  0  0
 31 33  1  0  0  0  0
 31 34  1  0  0  0  0
 29 30  1  0  0  0  0
 29 31  1  0  0  0  0
M  CHG  1  23   1
M  END
$$$$
default_name
  -OEChem-02102213163D

 34 33  0     1  0  0  0  0  0999 V2000
   -3.8899   -3.6747    1.6490 H   0  0  0  0  0  0  0  0  0  0  0  0
   -3.9109   -2.6717    1.2250 C   0  0  0  0  0  0  0  0  0  0  0  0
   -4.6009   -2.0517    1.7950 H   0  0  0  0  0  0  0  0  0  0  0  0
   -4.2309   -2.7237    0.1860 H   0  0  0  0  0  0  0  0  0  0  0  0
   -2.5229   -2.0787    1.2980 C   0  0  0  0  0  0  0  0  0  0  0  0
   -1.5999   -2.7227    1.7810 O   0  0  0  0  0  0  0  0  0  0  0  0
   -2.3659   -0.8447    0.8120 N   0  0  0  0  0  0  0  0  0  0  0  0
   -3.1749   -0.3807    0.4220 H   0  0  0  0  0  0  0  0  0  0  0  0
   -1.0919   -0.1077    0.8170 C   0  0  1  0  0  0  0  0  0  0  0  0
   -0.4136   -0.6011    1.5155 H   0  0  0  0  0  0  0  0  0  0  0  0
   -0.4834   -0.1723   -0.5965 C   0  0  0  0  0  0  0  0  0  0  0  0
   -0.0765   -1.1724   -0.7543 H   0  0  0  0  0  0  0  0  0  0  0  0
   -1.2707   -0.0051   -1.3341 H   0  0  0  0  0  0  0  0  0  0  0  0
    0.6434    0.8481   -0.8190 C   0  0  0  0  0  0  0  0  0  0  0  0
    1.4522    0.6626   -0.1108 H   0  0  0  0  0  0  0  0  0  0  0  0
    1.0283    0.7427   -1.8352 H   0  0  0  0  0  0  0  0  0  0  0  0
    0.1180    2.2765   -0.6202 C   0  0  0  0  0  0  0  0  0  0  0  0
   -0.7017    2.4541   -1.3206 H   0  0  0  0  0  0  0  0  0  0  0  0
   -0.2570    2.3793    0.4000 H   0  0  0  0  0  0  0  0  0  0  0  0
    1.2358    3.2975   -0.8663 C   0  0  0  0  0  0  0  0  0  0  0  0
    2.0493    3.0982   -0.1612 H   0  0  0  0  0  0  0  0  0  0  0  0
    1.6254    3.1494   -1.8780 H   0  0  0  0  0  0  0  0  0  0  0  0
    0.7482    4.6905   -0.7039 N   0  3  0  0  0  0  0  0  0  0  0  0
    0.3960    4.8368    0.2338 H   0  0  0  0  0  0  0  0  0  0  0  0
    1.4970    5.3514   -0.8698 H   0  0  0  0  0  0  0  0  0  0  0  0
    0.0008    4.8829   -1.3606 H   0  0  0  0  0  0  0  0  0  0  0  0
   -1.3103    1.3348    1.2791 C   0  0  0  0  0  0  0  0  0  0  0  0
   -2.2333    1.9891    0.8084 O   0  0  0  0  0  0  0  0  0  0  0  0
   -0.4429    1.8293    2.1683 N   0  0  0  0  0  0  0  0  0  0  0  0
    0.2668    1.2118    2.5263 H   0  0  0  0  0  0  0  0  0  0  0  0
   -0.5118    3.1863    2.7135 C   0  0  0  0  0  0  0  0  0  0  0  0
   -1.4470    3.3159    3.2625 H   0  0  0  0  0  0  0  0  0  0  0  0
    0.3243    3.3682    3.3896 H   0  0  0  0  0  0  0  0  0  0  0  0
   -0.4850    3.9172    1.9023 H   0  0  0  0  0  0  0  0  0  0  0  0
  5  6  2  0  0  0  0
  5  7  1  0  0  0  0
  2  3  1  0  0  0  0
  2  4  1  0  0  0  0
  2  5  1  0  0  0  0
  1  2  1  0  0  0  0
 27 28  2  0  0  0  0
 27 29  1  0  0  0  0
 23 24  1  0  0  0  0
 23 25  1  0  0  0  0
 23 26  1  0  0  0  0
 20 21  1  0  0  0  0
 20 22  1  0  0  0  0
 20 23  1  0  0  0  0
 17 18  1  0  0  0  0
 17 19  1  0  0  0  0
 17 20  1  0  0  0  0
 14 15  1  0  0  0  0
 14 16  1  0  0  0  0
 14 17  1  0  0  0  0
 11 12  1  0  0  0  0
 11 13  1  0  0  0  0
 11 14  1  0  0  0  0
  9 10  1  0  0  0  0
  9 11  1  0  0  0  0
  9 27  1  0  0  0  0
  7  8  1  0  0  0  0
  7  9  1  0  0  0  0
 31 32  1  0  0  0  0
 31 33  1  0  0  0  0
 31 34  1  0  0  0  0
 29 30  1  0  0  0  0
 29 31  1  0  0  0  0
M  CHG  1  23   1
M  END
$$$$
default_name
  -OEChem-02102213163D

 34 33  0     1  0  0  0  0  0999 V2000
   -3.8899   -3.6747    1.6490 H   0  0  0  0  0  0  0  0  0  0  0  0
   -3.9109   -2.6717    1.2250 C   0  0  0  0  0  0  0  0  0  0  0  0
   -4.6009   -2.0517    1.7950 H   0  0  0  0  0  0  0  0  0  0  0  0
   -4.2309   -2.7237    0.1860 H   0  0  0  0  0  0  0  0  0  0  0  0
   -2.5229   -2.0787    1.2980 C   0  0  0  0  0  0  0  0  0  0  0  0
   -1.5999   -2.7227    1.7810 O   0  0  0  0  0  0  0  0  0  0  0  0
   -2.3659   -0.8447    0.8120 N   0  0  0  0  0  0  0  0  0  0  0  0
   -3.1749   -0.3807    0.4220 H   0  0  0  0  0  0  0  0  0  0  0  0
   -1.0919   -0.1077    0.8170 C   0  0  1  0  0  0  0  0  0  0  0  0
   -0.4136   -0.6011    1.5155 H   0  0  0  0  0  0  0  0  0  0  0  0
   -0.4834   -0.1723   -0.5965 C   0  0  0  0  0  0  0  0  0  0  0  0
   -0.0765   -1.1724   -0.7543 H   0  0  0  0  0  0  0  0  0  0  0  0
   -1.2707   -0.0051   -1.3341 H   0  0  0  0  0  0  0  0  0  0  0  0
    0.6434    0.8481   -0.8190 C   0  0  0  0  0  0  0  0  0  0  0  0
    1.5486    0.5125   -0.3110 H   0  0  0  0  0  0  0  0  0  0  0  0
    0.8455    0.9329   -1.8885 H   0  0  0  0  0  0  0  0  0  0  0  0
    0.2369    2.2219   -0.2682 C   0  0  0  0  0  0  0  0  0  0  0  0
   -0.6781    2.5484   -0.7681 H   0  0  0  0  0  0  0  0  0  0  0  0
    0.0451    2.1335    0.8030 H   0  0  0  0  0  0  0  0  0  0  0  0
    1.3510    3.2477   -0.5118 C   0  0  0  0  0  0  0  0  0  0  0  0
    2.2595    2.8990   -0.0101 H   0  0  0  0  0  0  0  0  0  0  0  0
    1.5562    3.2896   -1.5857 H   0  0  0  0  0  0  0  0  0  0  0  0
    0.9737    4.5929   -0.0093 N   0  3  0  0  0  0  0  0  0  0  0  0
    0.7928    4.5627    0.9862 H   0  0  0  0  0  0  0  0  0  0  0  0
    1.7186    5.2576   -0.1779 H   0  0  0  0  0  0  0  0  0  0  0  0
    0.1380    4.9241   -0.4770 H   0  0  0  0  0  0  0  0  0  0  0  0
   -1.3103    1.3348    1.2791 C   0  0  0  0  0  0  0  0  0  0  0  0
   -2.2333    1.9891    0.8084 O   0  0  0  0  0  0  0  0  0  0  0  0
   -0.4429    1.8293    2.1683 N   0  0  0  0  0  0  0  0  0  0  0  0
    0.2668    1.2118    2.5263 H   0  0  0  0  0  0  0  0  0  0  0  0
   -0.5118    3.1863    2.7135 C   0  0  0  0  0  0  0  0  0  0  0  0
   -1.4470    3.3159    3.2625 H   0  0  0  0  0  0  0  0  0  0  0  0
    0.3243    3.3682    3.3896 H   0  0  0  0  0  0  0  0  0  0  0  0
   -0.4850    3.9172    1.9023 H   0  0  0  0  0  0  0  0  0  0  0  0
  5  6  2  0  0  0  0
  5  7  1  0  0  0  0
  2  3  1  0  0  0  0
  2  4  1  0  0  0  0
  2  5  1  0  0  0  0
  1  2  1  0  0  0  0
 27 28  2  0  0  0  0
 27 29  1  0  0  0  0
 23 24  1  0  0  0  0
 23 25  1  0  0  0  0
 23 26  1  0  0  0  0
 20 21  1  0  0  0  0
 20 22  1  0  0  0  0
 20 23  1  0  0  0  0
 17 18  1  0  0  0  0
 17 19  1  0  0  0  0
 17 20  1  0  0  0  0
 14 15  1  0  0  0  0
 14 16  1  0  0  0  0
 14 17  1  0  0  0  0
 11 12  1  0  0  0  0
 11 13  1  0  0  0  0
 11 14  1  0  0  0  0
  9 10  1  0  0  0  0
  9 11  1  0  0  0  0
  9 27  1  0  0  0  0
  7  8  1  0  0  0  0
  7  9  1  0  0  0  0
 31 32  1  0  0  0  0
 31 33  1  0  0  0  0
 31 34  1  0  0  0  0
 29 30  1  0  0  0  0
 29 31  1  0  0  0  0
M  CHG  1  23   1
M  END
$$$$
default_name
  -OEChem-02102213163D

 34 33  0     1  0  0  0  0  0999 V2000
   -3.8899   -3.6747    1.6490 H   0  0  0  0  0  0  0  0  0  0  0  0
   -3.9109   -2.6717    1.2250 C   0  0  0  0  0  0  0  0  0  0  0  0
   -4.6009   -2.0517    1.7950 H   0  0  0  0  0  0  0  0  0  0  0  0
   -4.2309   -2.7237    0.1860 H   0  0  0  0  0  0  0  0  0  0  0  0
   -2.5229   -2.0787    1.2980 C   0  0  0  0  0  0  0  0  0  0  0  0
   -1.5999   -2.7227    1.7810 O   0  0  0  0  0  0  0  0  0  0  0  0
   -2.3659   -0.8447    0.8120 N   0  0  0  0  0  0  0  0  0  0  0  0
   -3.1749   -0.3807    0.4220 H   0  0  0  0  0  0  0  0  0  0  0  0
   -1.0919   -0.1077    0.8170 C   0  0  1  0  0  0  0  0  0  0  0  0
   -0.4136   -0.6011    1.5155 H   0  0  0  0  0  0  0  0  0  0  0  0
   -0.4834   -0.1723   -0.5965 C   0  0  0  0  0  0  0  0  0  0  0  0
   -0.0765   -1.1724   -0.7543 H   0  0  0  0  0  0  0  0  0  0  0  0
   -1.2707   -0.0051   -1.3341 H   0  0  0  0  0  0  0  0  0  0  0  0
    0.6434    0.8481   -0.8190 C   0  0  0  0  0  0  0  0  0  0  0  0
    1.6017    0.4019   -0.5494 H   0  0  0  0  0  0  0  0  0  0  0  0
    0.6669    1.1336   -1.8724 H   0  0  0  0  0  0  0  0  0  0  0  0
    0.4103    2.0979    0.0411 C   0  0  0  0  0  0  0  0  0  0  0  0
   -0.5568    2.5338   -0.2207 H   0  0  0  0  0  0  0  0  0  0  0  0
    0.3970    1.8083    1.0937 H   0  0  0  0  0  0  0  0  0  0  0  0
    1.5213    3.1279   -0.1986 C   0  0  0  0  0  0  0  0  0  0  0  0
    2.4811    2.6700    0.0618 H   0  0  0  0  0  0  0  0  0  0  0  0
    1.5448    3.3721   -1.2649 H   0  0  0  0  0  0  0  0  0  0  0  0
    1.3073    4.3584    0.6043 N   0  3  0  0  0  0  0  0  0  0  0  0
    1.2951    4.1403    1.5927 H   0  0  0  0  0  0  0  0  0  0  0  0
    2.0480    5.0274    0.4346 H   0  0  0  0  0  0  0  0  0  0  0  0
    0.4239    4.7910    0.3606 H   0  0  0  0  0  0  0  0  0  0  0  0
   -1.3103    1.3348    1.2791 C   0  0  0  0  0  0  0  0  0  0  0  0
   -2.2333    1.9891    0.8084 O   0  0  0  0  0  0  0  0  0  0  0  0
   -0.4429    1.8293    2.1683 N   0  0  0  0  0  0  0  0  0  0  0  0
    0.2668    1.2118    2.5263 H   0  0  0  0  0  0  0  0  0  0  0  0
   -0.5118    3.1863    2.7135 C   0  0  0  0  0  0  0  0  0  0  0  0
   -1.4470    3.3159    3.2625 H   0  0  0  0  0  0  0  0  0  0  0  0
    0.3243    3.3682    3.3896 H   0  0  0  0  0  0  0  0  0  0  0  0
   -0.4850    3.9172    1.9023 H   0  0  0  0  0  0  0  0  0  0  0  0
  5  6  2  0  0  0  0
  5  7  1  0  0  0  0
  2  3  1  0  0  0  0
  2  4  1  0  0  0  0
  2  5  1  0  0  0  0
  1  2  1  0  0  0  0
 27 28  2  0  0  0  0
 27 29  1  0  0  0  0
 23 24  1  0  0  0  0
 23 25  1  0  0  0  0
 23 26  1  0  0  0  0
 20 21  1  0  0  0  0
 20 22  1  0  0  0  0
 20 23  1  0  0  0  0
 17 18  1  0  0  0  0
 17 19  1  0  0  0  0
 17 20  1  0  0  0  0
 14 15  1  0  0  0  0
 14 16  1  0  0  0  0
 14 17  1  0  0  0  0
 11 12  1  0  0  0  0
 11 13  1  0  0  0  0
 11 14  1  0  0  0  0
  9 10  1  0  0  0  0
  9 11  1  0  0  0  0
  9 27  1  0  0  0  0
  7  8  1  0  0  0  0
  7  9  1  0  0  0  0
 31 32  1  0  0  0  0
 31 33  1  0  0  0  0
 31 34  1  0  0  0  0
 29 30  1  0  0  0  0
 29 31  1  0  0  0  0
M  CHG  1  23   1
M  END
$$$$
default_name
  -OEChem-02102213163D

 34 33  0     1  0  0  0  0  0999 V2000
   -3.8899   -3.6747    1.6490 H   0  0  0  0  0  0  0  0  0  0  0  0
   -3.9109   -2.6717    1.2250 C   0  0  0  0  0  0  0  0  0  0  0  0
   -4.6009   -2.0517    1.7950 H   0  0  0  0  0  0  0  0  0  0  0  0
   -4.2309   -2.7237    0.1860 H   0  0  0  0  0  0  0  0  0  0  0  0
   -2.5229   -2.0787    1.2980 C   0  0  0  0  0  0  0  0  0  0  0  0
   -1.5999   -2.7227    1.7810 O   0  0  0  0  0  0  0  0  0  0  0  0
   -2.3659   -0.8447    0.8120 N   0  0  0  0  0  0  0  0  0  0  0  0
   -3.1749   -0.3807    0.4220 H   0  0  0  0  0  0  0  0  0  0  0  0
   -1.0919   -0.1077    0.8170 C   0  0  1  0  0  0  0  0  0  0  0  0
   -0.4136   -0.6011    1.5155 H   0  0  0  0  0  0  0  0  0  0  0  0
   -0.4834   -0.1723   -0.5965 C   0  0  0  0  0  0  0  0  0  0  0  0
   -0.0765   -1.1724   -0.7543 H   0  0  0  0  0  0  0  0  0  0  0  0
   -1.2707   -0.0051   -1.3341 H   0  0  0  0  0  0  0  0  0  0  0  0
    0.6434    0.8481   -0.8190 C   0  0  0  0  0  0  0  0  0  0  0  0
    1.6078    0.3383   -0.8098 H   0  0  0  0  0  0  0  0  0  0  0  0
    0.5047    1.3311   -1.7882 H   0  0  0  0  0  0  0  0  0  0  0  0
    0.6263    1.9129    0.2865 C   0  0  0  0  0  0  0  0  0  0  0  0
   -0.3460    2.4113    0.2845 H   0  0  0  0  0  0  0  0  0  0  0  0
    0.7746    1.4258    1.2523 H   0  0  0  0  0  0  0  0  0  0  0  0
    1.7351    2.9463    0.0519 C   0  0  0  0  0  0  0  0  0  0  0  0
    2.6989    2.4268    0.0497 H   0  0  0  0  0  0  0  0  0  0  0  0
    1.5920    3.3913   -0.9374 H   0  0  0  0  0  0  0  0  0  0  0  0
    1.7262    4.0029    1.0951 N   0  3  0  0  0  0  0  0  0  0  0  0
    1.8687    3.5983    2.0121 H   0  0  0  0  0  0  0  0  0  0  0  0
    2.4628    4.6764    0.9259 H   0  0  0  0  0  0  0  0  0  0  0  0
    0.8391    4.4927    1.0953 H   0  0  0  0  0  0  0  0  0  0  0  0
   -1.3103    1.3348    1.2791 C   0  0  0  0  0  0  0  0  0  0  0  0
   -2.2333    1.9891    0.8084 O   0  0  0  0  0  0  0  0  0  0  0  0
   -0.4429    1.8293    2.1683 N   0  0  0  0  0  0  0  0  0  0  0  0
    0.2668    1.2118    2.5263 H   0  0  0  0  0  0  0  0  0  0  0  0
   -0.5118    3.1863    2.7135 C   0  0  0  0  0  0  0  0  0  0  0  0
   -1.4470    3.3159    3.2625 H   0  0  0  0  0  0  0  0  0  0  0  0
    0.3243    3.3682    3.3896 H   0  0  0  0  0  0  0  0  0  0  0  0
   -0.4850    3.9172    1.9023 H   0  0  0  0  0  0  0  0  0  0  0  0
  5  6  2  0  0  0  0
  5  7  1  0  0  0  0
  2  3  1  0  0  0  0
  2  4  1  0  0  0  0
  2  5  1  0  0  0  0
  1  2  1  0  0  0  0
 27 28  2  0  0  0  0
 27 29  1  0  0  0  0
 23 24  1  0  0  0  0
 23 25  1  0  0  0  0
 23 26  1  0  0  0  0
 20 21  1  0  0  0  0
 20 22  1  0  0  0  0
 20 23  1  0  0  0  0
 17 18  1  0  0  0  0
 17 19  1  0  0  0  0
 17 20  1  0  0  0  0
 14 15  1  0  0  0  0
 14 16  1  0  0  0  0
 14 17  1  0  0  0  0
 11 12  1  0  0  0  0
 11 13  1  0  0  0  0
 11 14  1  0  0  0  0
  9 10  1  0  0  0  0
  9 11  1  0  0  0  0
  9 27  1  0  0  0  0
  7  8  1  0  0  0  0
  7  9  1  0  0  0  0
 31 32  1  0  0  0  0
 31 33  1  0  0  0  0
 31 34  1  0  0  0  0
 29 30  1  0  0  0  0
 29 31  1  0  0  0  0
M  CHG  1  23   1
M  END
$$$$
default_name
  -OEChem-02102213163D

 34 33  0     1  0  0  0  0  0999 V2000
   -3.8899   -3.6747    1.6490 H   0  0  0  0  0  0  0  0  0  0  0  0
   -3.9109   -2.6717    1.2250 C   0  0  0  0  0  0  0  0  0  0  0  0
   -4.6009   -2.0517    1.7950 H   0  0  0  0  0  0  0  0  0  0  0  0
   -4.2309   -2.7237    0.1860 H   0  0  0  0  0  0  0  0  0  0  0  0
   -2.5229   -2.0787    1.2980 C   0  0  0  0  0  0  0  0  0  0  0  0
   -1.5999   -2.7227    1.7810 O   0  0  0  0  0  0  0  0  0  0  0  0
   -2.3659   -0.8447    0.8120 N   0  0  0  0  0  0  0  0  0  0  0  0
   -3.1749   -0.3807    0.4220 H   0  0  0  0  0  0  0  0  0  0  0  0
   -1.0919   -0.1077    0.8170 C   0  0  1  0  0  0  0  0  0  0  0  0
   -0.4136   -0.6011    1.5155 H   0  0  0  0  0  0  0  0  0  0  0  0
   -0.4834   -0.1723   -0.5965 C   0  0  0  0  0  0  0  0  0  0  0  0
   -0.0765   -1.1724   -0.7543 H   0  0  0  0  0  0  0  0  0  0  0  0
   -1.2707   -0.0051   -1.3341 H   0  0  0  0  0  0  0  0  0  0  0  0
    0.6434    0.8481   -0.8190 C   0  0  0  0  0  0  0  0  0  0  0  0
    1.5666    0.3261   -1.0745 H   0  0  0  0  0  0  0  0  0  0  0  0
    0.3699    1.5120   -1.6414 H   0  0  0  0  0  0  0  0  0  0  0  0
    0.8702    1.6795    0.4512 C   0  0  0  0  0  0  0  0  0  0  0  0
   -0.0602    2.1891    0.7129 H   0  0  0  0  0  0  0  0  0  0  0  0
    1.1524    1.0121    1.2680 H   0  0  0  0  0  0  0  0  0  0  0  0
    1.9780    2.7154    0.2227 C   0  0  0  0  0  0  0  0  0  0  0  0
    2.8981    2.1861   -0.0455 H   0  0  0  0  0  0  0  0  0  0  0  0
    1.6947    3.3459   -0.6255 H   0  0  0  0  0  0  0  0  0  0  0  0
    2.2018    3.5506    1.4297 N   0  3  0  0  0  0  0  0  0  0  0  0
    2.4746    2.9736    2.2156 H   0  0  0  0  0  0  0  0  0  0  0  0
    2.9348    4.2286    1.2625 H   0  0  0  0  0  0  0  0  0  0  0  0
    1.3553    4.0496    1.6770 H   0  0  0  0  0  0  0  0  0  0  0  0
   -1.3103    1.3348    1.2791 C   0  0  0  0  0  0  0  0  0  0  0  0
   -2.2333    1.9891    0.8084 O   0  0  0  0  0  0  0  0  0  0  0  0
   -0.4429    1.8293    2.1683 N   0  0  0  0  0  0  0  0  0  0  0  0
    0.2668    1.2118    2.5263 H   0  0  0  0  0  0  0  0  0  0  0  0
   -0.5118    3.1863    2.7135 C   0  0  0  0  0  0  0  0  0  0  0  0
   -1.4470    3.3159    3.2625 H   0  0  0  0  0  0  0  0  0  0  0  0
    0.3243    3.3682    3.3896 H   0  0  0  0  0  0  0  0  0  0  0  0
   -0.4850    3.9172    1.9023 H   0  0  0  0  0  0  0  0  0  0  0  0
  5  6  2  0  0  0  0
  5  7  1  0  0  0  0
  2  3  1  0  0  0  0
  2  4  1  0  0  0  0
  2  5  1  0  0  0  0
  1  2  1  0  0  0  0
 27 28  2  0  0  0  0
 27 29  1  0  0  0  0
 23 24  1  0  0  0  0
 23 25  1  0  0  0  0
 23 26  1  0  0  0  0
 20 21  1  0  0  0  0
 20 22  1  0  0  0  0
 20 23  1  0  0  0  0
 17 18  1  0  0  0  0
 17 19  1  0  0  0  0
 17 20  1  0  0  0  0
 14 15  1  0  0  0  0
 14 16  1  0  0  0  0
 14 17  1  0  0  0  0
 11 12  1  0  0  0  0
 11 13  1  0  0  0  0
 11 14  1  0  0  0  0
  9 10  1  0  0  0  0
  9 11  1  0  0  0  0
  9 27  1  0  0  0  0
  7  8  1  0  0  0  0
  7  9  1  0  0  0  0
 31 32  1  0  0  0  0
 31 33  1  0  0  0  0
 31 34  1  0  0  0  0
 29 30  1  0  0  0  0
 29 31  1  0  0  0  0
M  CHG  1  23   1
M  END
$$$$
default_name
  -OEChem-02102213163D

 34 33  0     1  0  0  0  0  0999 V2000
   -3.8899   -3.6747    1.6490 H   0  0  0  0  0  0  0  0  0  0  0  0
   -3.9109   -2.6717    1.2250 C   0  0  0  0  0  0  0  0  0  0  0  0
   -4.6009   -2.0517    1.7950 H   0  0  0  0  0  0  0  0  0  0  0  0
   -4.2309   -2.7237    0.1860 H   0  0  0  0  0  0  0  0  0  0  0  0
   -2.5229   -2.0787    1.2980 C   0  0  0  0  0  0  0  0  0  0  0  0
   -1.5999   -2.7227    1.7810 O   0  0  0  0  0  0  0  0  0  0  0  0
   -2.3659   -0.8447    0.8120 N   0  0  0  0  0  0  0  0  0  0  0  0
   -3.1749   -0.3807    0.4220 H   0  0  0  0  0  0  0  0  0  0  0  0
   -1.0919   -0.1077    0.8170 C   0  0  1  0  0  0  0  0  0  0  0  0
   -0.4136   -0.6011    1.5155 H   0  0  0  0  0  0  0  0  0  0  0  0
   -0.4834   -0.1723   -0.5965 C   0  0  0  0  0  0  0  0  0  0  0  0
   -0.0765   -1.1724   -0.7543 H   0  0  0  0  0  0  0  0  0  0  0  0
   -1.2707   -0.0051   -1.3341 H   0  0  0  0  0  0  0  0  0  0  0  0
    0.6434    0.8481   -0.8190 C   0  0  0  0  0  0  0  0  0  0  0  0
    1.4808    0.3661   -1.3254 H   0  0  0  0  0  0  0  0  0  0  0  0
    0.2718    1.6639   -1.4421 H   0  0  0  0  0  0  0  0  0  0  0  0
    1.1253    1.4136    0.5242 C   0  0  0  0  0  0  0  0  0  0  0  0
    0.2812    1.8824    1.0355 H   0  0  0  0  0  0  0  0  0  0  0  0
    1.5044    0.5954    1.1396 H   0  0  0  0  0  0  0  0  0  0  0  0
    2.2332    2.4508    0.3021 C   0  0  0  0  0  0  0  0  0  0  0  0
    3.0651    1.9642   -0.2174 H   0  0  0  0  0  0  0  0  0  0  0  0
    1.8458    3.2391   -0.3505 H   0  0  0  0  0  0  0  0  0  0  0  0
    2.7019    3.0323    1.5853 N   0  3  0  0  0  0  0  0  0  0  0  0
    3.0713    2.3089    2.1895 H   0  0  0  0  0  0  0  0  0  0  0  0
    3.4318    3.7144    1.4215 H   0  0  0  0  0  0  0  0  0  0  0  0
    1.9372    3.4918    2.0661 H   0  0  0  0  0  0  0  0  0  0  0  0
   -1.3103    1.3348    1.2791 C   0  0  0  0  0  0  0  0  0  0  0  0
   -2.2333    1.9891    0.8084 O   0  0  0  0  0  0  0  0  0  0  0  0
   -0.4429    1.8293    2.1683 N   0  0  0  0  0  0  0  0  0  0  0  0
    0.2668    1.2118    2.5263 H   0  0  0  0  0  0  0  0  0  0  0  0
   -0.5118    3.1863    2.7135 C   0  0  0  0  0  0  0  0  0  0  0  0
   -1.4470    3.3159    3.2625 H   0  0  0  0  0  0  0  0  0  0  0  0
    0.3243    3.3682    3.3896 H   0  0  0  0  0  0  0  0  0  0  0  0
   -0.4850    3.9172    1.9023 H   0  0  0  0  0  0  0  0  0  0  0  0
  5  6  2  0  0  0  0
  5  7  1  0  0  0  0
  2  3  1  0  0  0  0
  2  4  1  0  0  0  0
  2  5  1  0  0  0  0
  1  2  1  0  0  0  0
 27 28  2  0  0  0  0
 27 29  1  0  0  0  0
 23 24  1  0  0  0  0
 23 25  1  0  0  0  0
 23 26  1  0  0  0  0
 20 21  1  0  0  0  0
 20 22  1  0  0  0  0
 20 23  1  0  0  0  0
 17 18  1  0  0  0  0
 17 19  1  0  0  0  0
 17 20  1  0  0  0  0
 14 15  1  0  0  0  0
 14 16  1  0  0  0  0
 14 17  1  0  0  0  0
 11 12  1  0  0  0  0
 11 13  1  0  0  0  0
 11 14  1  0  0  0  0
  9 10  1  0  0  0  0
  9 11  1  0  0  0  0
  9 27  1  0  0  0  0
  7  8  1  0  0  0  0
  7  9  1  0  0  0  0
 31 32  1  0  0  0  0
 31 33  1  0  0  0  0
 31 34  1  0  0  0  0
 29 30  1  0  0  0  0
 29 31  1  0  0  0  0
M  CHG  1  23   1
M  END
$$$$
default_name
  -OEChem-02102213163D

 34 33  0     1  0  0  0  0  0999 V2000
   -3.8899   -3.6747    1.6490 H   0  0  0  0  0  0  0  0  0  0  0  0
   -3.9109   -2.6717    1.2250 C   0  0  0  0  0  0  0  0  0  0  0  0
   -4.6009   -2.0517    1.7950 H   0  0  0  0  0  0  0  0  0  0  0  0
   -4.2309   -2.7237    0.1860 H   0  0  0  0  0  0  0  0  0  0  0  0
   -2.5229   -2.0787    1.2980 C   0  0  0  0  0  0  0  0  0  0  0  0
   -1.5999   -2.7227    1.7810 O   0  0  0  0  0  0  0  0  0  0  0  0
   -2.3659   -0.8447    0.8120 N   0  0  0  0  0  0  0  0  0  0  0  0
   -3.1749   -0.3807    0.4220 H   0  0  0  0  0  0  0  0  0  0  0  0
   -1.0919   -0.1077    0.8170 C   0  0  1  0  0  0  0  0  0  0  0  0
   -0.4136   -0.6011    1.5155 H   0  0  0  0  0  0  0  0  0  0  0  0
   -0.4834   -0.1723   -0.5965 C   0  0  0  0  0  0  0  0  0  0  0  0
   -0.0765   -1.1724   -0.7543 H   0  0  0  0  0  0  0  0  0  0  0  0
   -1.2707   -0.0051   -1.3341 H   0  0  0  0  0  0  0  0  0  0  0  0
    0.6434    0.8481   -0.8190 C   0  0  0  0  0  0  0  0  0  0  0  0
    1.3564    0.4556   -1.5453 H   0  0  0  0  0  0  0  0  0  0  0  0
    0.2169    1.7764   -1.2039 H   0  0  0  0  0  0  0  0  0  0  0  0
    1.3744    1.1335    0.5003 C   0  0  0  0  0  0  0  0  0  0  0  0
    0.6549    1.5122    1.2302 H   0  0  0  0  0  0  0  0  0  0  0  0
    1.8068    0.2040    0.8760 H   0  0  0  0  0  0  0  0  0  0  0  0
    2.4835    2.1707    0.2846 C   0  0  0  0  0  0  0  0  0  0  0  0
    3.1886    1.7762   -0.4544 H   0  0  0  0  0  0  0  0  0  0  0  0
    2.0350    3.0780   -0.1311 H   0  0  0  0  0  0  0  0  0  0  0  0
    3.1922    2.4835    1.5513 N   0  3  0  0  0  0  0  0  0  0  0  0
    3.6184    1.6495    1.9355 H   0  0  0  0  0  0  0  0  0  0  0  0
    3.9200    3.1690    1.3921 H   0  0  0  0  0  0  0  0  0  0  0  0
    2.5453    2.8573    2.2359 H   0  0  0  0  0  0  0  0  0  0  0  0
   -1.3103    1.3348    1.2791 C   0  0  0  0  0  0  0  0  0  0  0  0
   -2.2333    1.9891    0.8084 O   0  0  0  0  0  0  0  0  0  0  0  0
   -0.4429    1.8293    2.1683 N   0  0  0  0  0  0  0  0  0  0  0  0
    0.2668    1.2118    2.5263 H   0  0  0  0  0  0  0  0  0  0  0  0
   -0.5118    3.1863    2.7135 C   0  0  0  0  0  0  0  0  0  0  0  0
   -1.4470    3.3159    3.2625 H   0  0  0  0  0  0  0  0  0  0  0  0
    0.3243    3.3682    3.3896 H   0  0  0  0  0  0  0  0  0  0  0  0
   -0.4850    3.9172    1.9023 H   0  0  0  0  0  0  0  0  0  0  0  0
  5  6  2  0  0  0  0
  5  7  1  0  0  0  0
  2  3  1  0  0  0  0
  2  4  1  0  0  0  0
  2  5  1  0  0  0  0
  1  2  1  0  0  0  0
 27 28  2  0  0  0  0
 27 29  1  0  0  0  0
 23 24  1  0  0  0  0
 23 25  1  0  0  0  0
 23 26  1  0  0  0  0
 20 21  1  0  0  0  0
 20 22  1  0  0  0  0
 20 23  1  0  0  0  0
 17 18  1  0  0  0  0
 17 19  1  0  0  0  0
 17 20  1  0  0  0  0
 14 15  1  0  0  0  0
 14 16  1  0  0  0  0
 14 17  1  0  0  0  0
 11 12  1  0  0  0  0
 11 13  1  0  0  0  0
 11 14  1  0  0  0  0
  9 10  1  0  0  0  0
  9 11  1  0  0  0  0
  9 27  1  0  0  0  0
  7  8  1  0  0  0  0
  7  9  1  0  0  0  0
 31 32  1  0  0  0  0
 31 33  1  0  0  0  0
 31 34  1  0  0  0  0
 29 30  1  0  0  0  0
 29 31  1  0  0  0  0
M  CHG  1  23   1
M  END
$$$$
default_name
  -OEChem-02102213163D

 34 33  0     1  0  0  0  0  0999 V2000
   -3.8899   -3.6747    1.6490 H   0  0  0  0  0  0  0  0  0  0  0  0
   -3.9109   -2.6717    1.2250 C   0  0  0  0  0  0  0  0  0  0  0  0
   -4.6009   -2.0517    1.7950 H   0  0  0  0  0  0  0  0  0  0  0  0
   -4.2309   -2.7237    0.1860 H   0  0  0  0  0  0  0  0  0  0  0  0
   -2.5229   -2.0787    1.2980 C   0  0  0  0  0  0  0  0  0  0  0  0
   -1.5999   -2.7227    1.7810 O   0  0  0  0  0  0  0  0  0  0  0  0
   -2.3659   -0.8447    0.8120 N   0  0  0  0  0  0  0  0  0  0  0  0
   -3.1749   -0.3807    0.4220 H   0  0  0  0  0  0  0  0  0  0  0  0
   -1.0919   -0.1077    0.8170 C   0  0  1  0  0  0  0  0  0  0  0  0
   -0.4136   -0.6011    1.5155 H   0  0  0  0  0  0  0  0  0  0  0  0
   -0.4834   -0.1723   -0.5965 C   0  0  0  0  0  0  0  0  0  0  0  0
   -0.0765   -1.1724   -0.7543 H   0  0  0  0  0  0  0  0  0  0  0  0
   -1.2707   -0.0051   -1.3341 H   0  0  0  0  0  0  0  0  0  0  0  0
    0.6434    0.8481   -0.8190 C   0  0  0  0  0  0  0  0  0  0  0  0
    1.2017    0.5885   -1.7195 H   0  0  0  0  0  0  0  0  0  0  0  0
    0.2090    1.8420   -0.9430 H   0  0  0  0  0  0  0  0  0  0  0  0
    1.6003    0.8580    0.3812 C   0  0  0  0  0  0  0  0  0  0  0  0
    1.0355    1.1036    1.2837 H   0  0  0  0  0  0  0  0  0  0  0  0
    2.0389   -0.1353    0.4952 H   0  0  0  0  0  0  0  0  0  0  0  0
    2.7118    1.8939    0.1715 C   0  0  0  0  0  0  0  0  0  0  0  0
    3.2601    1.6350   -0.7401 H   0  0  0  0  0  0  0  0  0  0  0  0
    2.2494    2.8736    0.0176 H   0  0  0  0  0  0  0  0  0  0  0  0
    3.6393    1.9414    1.3299 N   0  3  0  0  0  0  0  0  0  0  0  0
    4.0784    1.0402    1.4710 H   0  0  0  0  0  0  0  0  0  0  0  0
    4.3660    2.6294    1.1762 H   0  0  0  0  0  0  0  0  0  0  0  0
    3.1381    2.1894    2.1750 H   0  0  0  0  0  0  0  0  0  0  0  0
   -1.3103    1.3348    1.2791 C   0  0  0  0  0  0  0  0  0  0  0  0
   -2.2333    1.9891    0.8084 O   0  0  0  0  0  0  0  0  0  0  0  0
   -0.4429    1.8293    2.1683 N   0  0  0  0  0  0  0  0  0  0  0  0
    0.2668    1.2118    2.5263 H   0  0  0  0  0  0  0  0  0  0  0  0
   -0.5118    3.1863    2.7135 C   0  0  0  0  0  0  0  0  0  0  0  0
   -1.4470    3.3159    3.2625 H   0  0  0  0  0  0  0  0  0  0  0  0
    0.3243    3.3682    3.3896 H   0  0  0  0  0  0  0  0  0  0  0  0
   -0.4850    3.9172    1.9023 H   0  0  0  0  0  0  0  0  0  0  0  0
  5  6  2  0  0  0  0
  5  7  1  0  0  0  0
  2  3  1  0  0  0  0
  2  4  1  0  0  0  0
  2  5  1  0  0  0  0
  1  2  1  0  0  0  0
 27 28  2  0  0  0  0
 27 29  1  0  0  0  0
 23 24  1  0  0  0  0
 23 25  1  0  0  0  0
 23 26  1  0  0  0  0
 20 21  1  0  0  0  0
 20 22  1  0  0  0  0
 20 23  1  0  0  0  0
 17 18  1  0  0  0  0
 17 19  1  0  0  0  0
 17 20  1  0  0  0  0
 14 15  1  0  0  0  0
 14 16  1  0  0  0  0
 14 17  1  0  0  0  0
 11 12  1  0  0  0  0
 11 13  1  0  0  0  0
 11 14  1  0  0  0  0
  9 10  1  0  0  0  0
  9 11  1  0  0  0  0
  9 27  1  0  0  0  0
  7  8  1  0  0  0  0
  7  9  1  0  0  0  0
 31 32  1  0  0  0  0
 31 33  1  0  0  0  0
 31 34  1  0  0  0  0
 29 30  1  0  0  0  0
 29 31  1  0  0  0  0
M  CHG  1  23   1
M  END
$$$$
default_name
  -OEChem-02102213163D

 34 33  0     1  0  0  0  0  0999 V2000
   -3.8899   -3.6747    1.6490 H   0  0  0  0  0  0  0  0  0  0  0  0
   -3.9109   -2.6717    1.2250 C   0  0  0  0  0  0  0  0  0  0  0  0
   -4.6009   -2.0517    1.7950 H   0  0  0  0  0  0  0  0  0  0  0  0
   -4.2309   -2.7237    0.1860 H   0  0  0  0  0  0  0  0  0  0  0  0
   -2.5229   -2.0787    1.2980 C   0  0  0  0  0  0  0  0  0  0  0  0
   -1.5999   -2.7227    1.7810 O   0  0  0  0  0  0  0  0  0  0  0  0
   -2.3659   -0.8447    0.8120 N   0  0  0  0  0  0  0  0  0  0  0  0
   -3.1749   -0.3807    0.4220 H   0  0  0  0  0  0  0  0  0  0  0  0
   -1.0919   -0.1077    0.8170 C   0  0  1  0  0  0  0  0  0  0  0  0
   -0.4136   -0.6011    1.5155 H   0  0  0  0  0  0  0  0  0  0  0  0
   -0.4834   -0.1723   -0.5965 C   0  0  0  0  0  0  0  0  0  0  0  0
   -0.0765   -1.1724   -0.7543 H   0  0  0  0  0  0  0  0  0  0  0  0
   -1.2707   -0.0051   -1.3341 H   0  0  0  0  0  0  0  0  0  0  0  0
    0.6434    0.8481   -0.8190 C   0  0  0  0  0  0  0  0  0  0  0  0
    1.0273    0.7556   -1.8358 H   0  0  0  0  0  0  0  0  0  0  0  0
    0.2487    1.8560   -0.6772 H   0  0  0  0  0  0  0  0  0  0  0  0
    1.7877    0.6061    0.1751 C   0  0  0  0  0  0  0  0  0  0  0  0
    1.3969    0.6845    1.1924 H   0  0  0  0  0  0  0  0  0  0  0  0
    2.1849   -0.3995    0.0229 H   0  0  0  0  0  0  0  0  0  0  0  0
    2.9025    1.6396   -0.0294 C   0  0  0  0  0  0  0  0  0  0  0  0
    3.2747    1.5501   -1.0552 H   0  0  0  0  0  0  0  0  0  0  0  0
    2.4744    2.6400    0.0857 H   0  0  0  0  0  0  0  0  0  0  0  0
    4.0129    1.4431    0.9364 N   0  3  0  0  0  0  0  0  0  0  0  0
    4.4200    0.5226    0.8275 H   0  0  0  0  0  0  0  0  0  0  0  0
    4.7394    2.1325    0.7885 H   0  0  0  0  0  0  0  0  0  0  0  0
    3.6752    1.5337    1.8875 H   0  0  0  0  0  0  0  0  0  0  0  0
   -1.3103    1.3348    1.2791 C   0  0  0  0  0  0  0  0  0  0  0  0
   -2.2333    1.9891    0.8084 O   0  0  0  0  0  0  0  0  0  0  0  0
   -0.4429    1.8293    2.1683 N   0  0  0  0  0  0  0  0  0  0  0  0
    0.2668    1.2118    2.5263 H   0  0  0  0  0  0  0  0  0  0  0  0
   -0.5118    3.1863    2.7135 C   0  0  0  0  0  0  0  0  0  0  0  0
   -1.4470    3.3159    3.2625 H   0  0  0  0  0  0  0  0  0  0  0  0
    0.3243    3.3682    3.3896 H   0  0  0  0  0  0  0  0  0  0  0  0
   -0.4850    3.9172    1.9023 H   0  0  0  0  0  0  0  0  0  0  0  0
  5  6  2  0  0  0  0
  5  7  1  0  0  0  0
  2  3  1  0  0  0  0
  2  4  1  0  0  0  0
  2  5  1  0  0  0  0
  1  2  1  0  0  0  0
 27 28  2  0  0  0  0
 27 29  1  0  0  0  0
 23 24  1  0  0  0  0
 23 25  1  0  0  0  0
 23 26  1  0  0  0  0
 20 21  1  0  0  0  0
 20 22  1  0  0  0  0
 20 23  1  0  0  0  0
 17 18  1  0  0  0  0
 17 19  1  0  0  0  0
 17 20  1  0  0  0  0
 14 15  1  0  0  0  0
 14 16  1  0  0  0  0
 14 17  1  0  0  0  0
 11 12  1  0  0  0  0
 11 13  1  0  0  0  0
 11 14  1  0  0  0  0
  9 10  1  0  0  0  0
  9 11  1  0  0  0  0
  9 27  1  0  0  0  0
  7  8  1  0  0  0  0
  7  9  1  0  0  0  0
 31 32  1  0  0  0  0
 31 33  1  0  0  0  0
 31 34  1  0  0  0  0
 29 30  1  0  0  0  0
 29 31  1  0  0  0  0
M  CHG  1  23   1
M  END
$$$$
default_name
  -OEChem-02102213163D

 34 33  0     1  0  0  0  0  0999 V2000
   -3.8899   -3.6747    1.6490 H   0  0  0  0  0  0  0  0  0  0  0  0
   -3.9109   -2.6717    1.2250 C   0  0  0  0  0  0  0  0  0  0  0  0
   -4.6009   -2.0517    1.7950 H   0  0  0  0  0  0  0  0  0  0  0  0
   -4.2309   -2.7237    0.1860 H   0  0  0  0  0  0  0  0  0  0  0  0
   -2.5229   -2.0787    1.2980 C   0  0  0  0  0  0  0  0  0  0  0  0
   -1.5999   -2.7227    1.7810 O   0  0  0  0  0  0  0  0  0  0  0  0
   -2.3659   -0.8447    0.8120 N   0  0  0  0  0  0  0  0  0  0  0  0
   -3.1749   -0.3807    0.4220 H   0  0  0  0  0  0  0  0  0  0  0  0
   -1.0919   -0.1077    0.8170 C   0  0  1  0  0  0  0  0  0  0  0  0
   -0.4136   -0.6011    1.5155 H   0  0  0  0  0  0  0  0  0  0  0  0
   -0.4834   -0.1723   -0.5965 C   0  0  0  0  0  0  0  0  0  0  0  0
   -0.0765   -1.1724   -0.7543 H   0  0  0  0  0  0  0  0  0  0  0  0
   -1.2707   -0.0051   -1.3341 H   0  0  0  0  0  0  0  0  0  0  0  0
    0.6434    0.8481   -0.8190 C   0  0  0  0  0  0  0  0  0  0  0  0
    0.8452    0.9457   -1.8865 H   0  0  0  0  0  0  0  0  0  0  0  0
    0.3333    1.8177   -0.4246 H   0  0  0  0  0  0  0  0  0  0  0  0
    1.9239    0.3948   -0.1041 C   0  0  0  0  0  0  0  0  0  0  0  0
    1.7147    0.2835    0.9626 H   0  0  0  0  0  0  0  0  0  0  0  0
    2.2348   -0.5705   -0.5084 H   0  0  0  0  0  0  0  0  0  0  0  0
    3.0426    1.4249   -0.3046 C   0  0  0  0  0  0  0  0  0  0  0  0
    3.2315    1.5274   -1.3782 H   0  0  0  0  0  0  0  0  0  0  0  0
    2.6948    2.3929    0.0684 H   0  0  0  0  0  0  0  0  0  0  0  0
    4.2874    1.0224    0.3974 N   0  3  0  0  0  0  0  0  0  0  0  0
    4.6200    0.1320    0.0490 H   0  0  0  0  0  0  0  0  0  0  0  0
    5.0149    1.7121    0.2556 H   0  0  0  0  0  0  0  0  0  0  0  0
    4.1199    0.9347    1.3930 H   0  0  0  0  0  0  0  0  0  0  0  0
   -1.3103    1.3348    1.2791 C   0  0  0  0  0  0  0  0  0  0  0  0
   -2.2333    1.9891    0.8084 O   0  0  0  0  0  0  0  0  0  0  0  0
   -0.4429    1.8293    2.1683 N   0  0  0  0  0  0  0  0  0  0  0  0
    0.2668    1.2118    2.5263 H   0  0  0  0  0  0  0  0  0  0  0  0
   -0.5118    3.1863    2.7135 C   0  0  0  0  0  0  0  0  0  0  0  0
   -1.4470    3.3159    3.2625 H   0  0  0  0  0  0  0  0  0  0  0  0
    0.3243    3.3682    3.3896 H   0  0  0  0  0  0  0  0  0  0  0  0
   -0.4850    3.9172    1.9023 H   0  0  0  0  0  0  0  0  0  0  0  0
  5  6  2  0  0  0  0
  5  7  1  0  0  0  0
  2  3  1  0  0  0  0
  2  4  1  0  0  0  0
  2  5  1  0  0  0  0
  1  2  1  0  0  0  0
 27 28  2  0  0  0  0
 27 29  1  0  0  0  0
 23 24  1  0  0  0  0
 23 25  1  0  0  0  0
 23 26  1  0  0  0  0
 20 21  1  0  0  0  0
 20 22  1  0  0  0  0
 20 23  1  0  0  0  0
 17 18  1  0  0  0  0
 17 19  1  0  0  0  0
 17 20  1  0  0  0  0
 14 15  1  0  0  0  0
 14 16  1  0  0  0  0
 14 17  1  0  0  0  0
 11 12  1  0  0  0  0
 11 13  1  0  0  0  0
 11 14  1  0  0  0  0
  9 10  1  0  0  0  0
  9 11  1  0  0  0  0
  9 27  1  0  0  0  0
  7  8  1  0  0  0  0
  7  9  1  0  0  0  0
 31 32  1  0  0  0  0
 31 33  1  0  0  0  0
 31 34  1  0  0  0  0
 29 30  1  0  0  0  0
 29 31  1  0  0  0  0
M  CHG  1  23   1
M  END
$$$$
default_name
  -OEChem-02102213163D

 34 33  0     1  0  0  0  0  0999 V2000
   -3.8899   -3.6747    1.6490 H   0  0  0  0  0  0  0  0  0  0  0  0
   -3.9109   -2.6717    1.2250 C   0  0  0  0  0  0  0  0  0  0  0  0
   -4.6009   -2.0517    1.7950 H   0  0  0  0  0  0  0  0  0  0  0  0
   -4.2309   -2.7237    0.1860 H   0  0  0  0  0  0  0  0  0  0  0  0
   -2.5229   -2.0787    1.2980 C   0  0  0  0  0  0  0  0  0  0  0  0
   -1.5999   -2.7227    1.7810 O   0  0  0  0  0  0  0  0  0  0  0  0
   -2.3659   -0.8447    0.8120 N   0  0  0  0  0  0  0  0  0  0  0  0
   -3.1749   -0.3807    0.4220 H   0  0  0  0  0  0  0  0  0  0  0  0
   -1.0919   -0.1077    0.8170 C   0  0  1  0  0  0  0  0  0  0  0  0
   -0.4136   -0.6011    1.5155 H   0  0  0  0  0  0  0  0  0  0  0  0
   -0.4834   -0.1723   -0.5965 C   0  0  0  0  0  0  0  0  0  0  0  0
   -0.0765   -1.1724   -0.7543 H   0  0  0  0  0  0  0  0  0  0  0  0
   -1.2707   -0.0051   -1.3341 H   0  0  0  0  0  0  0  0  0  0  0  0
    0.6434    0.8481   -0.8190 C   0  0  0  0  0  0  0  0  0  0  0  0
    0.6676    1.1458   -1.8681 H   0  0  0  0  0  0  0  0  0  0  0  0
    0.4570    1.7296   -0.2024 H   0  0  0  0  0  0  0  0  0  0  0  0
    1.9995    0.2387   -0.4372 C   0  0  0  0  0  0  0  0  0  0  0  0
    1.9671   -0.0721    0.6098 H   0  0  0  0  0  0  0  0  0  0  0  0
    2.1853   -0.6367   -1.0627 H   0  0  0  0  0  0  0  0  0  0  0  0
    3.1225    1.2645   -0.6353 C   0  0  0  0  0  0  0  0  0  0  0  0
    3.1333    1.5684   -1.6870 H   0  0  0  0  0  0  0  0  0  0  0  0
    2.8953    2.1493   -0.0330 H   0  0  0  0  0  0  0  0  0  0  0  0
    4.4442    0.7081   -0.2502 N   0  3  0  0  0  0  0  0  0  0  0  0
    4.6648   -0.1050   -0.8115 H   0  0  0  0  0  0  0  0  0  0  0  0
    5.1736    1.3968   -0.3864 H   0  0  0  0  0  0  0  0  0  0  0  0
    4.4421    0.4333    0.7251 H   0  0  0  0  0  0  0  0  0  0  0  0
   -1.3103    1.3348    1.2791 C   0  0  0  0  0  0  0  0  0  0  0  0
   -2.2333    1.9891    0.8084 O   0  0  0  0  0  0  0  0  0  0  0  0
   -0.4429    1.8293    2.1683 N   0  0  0  0  0  0  0  0  0  0  0  0
    0.2668    1.2118    2.5263 H   0  0  0  0  0  0  0  0  0  0  0  0
   -0.5118    3.1863    2.7135 C   0  0  0  0  0  0  0  0  0  0  0  0
   -1.4470    3.3159    3.2625 H   0  0  0  0  0  0  0  0  0  0  0  0
    0.3243    3.3682    3.3896 H   0  0  0  0  0  0  0  0  0  0  0  0
   -0.4850    3.9172    1.9023 H   0  0  0  0  0  0  0  0  0  0  0  0
  5  6  2  0  0  0  0
  5  7  1  0  0  0  0
  2  3  1  0  0  0  0
  2  4  1  0  0  0  0
  2  5  1  0  0  0  0
  1  2  1  0  0  0  0
 27 28  2  0  0  0  0
 27 29  1  0  0  0  0
 23 24  1  0  0  0  0
 23 25  1  0  0  0  0
 23 26  1  0  0  0  0
 20 21  1  0  0  0  0
 20 22  1  0  0  0  0
 20 23  1  0  0  0  0
 17 18  1  0  0  0  0
 17 19  1  0  0  0  0
 17 20  1  0  0  0  0
 14 15  1  0  0  0  0
 14 16  1  0  0  0  0
 14 17  1  0  0  0  0
 11 12  1  0  0  0  0
 11 13  1  0  0  0  0
 11 14  1  0  0  0  0
  9 10  1  0  0  0  0
  9 11  1  0  0  0  0
  9 27  1  0  0  0  0
  7  8  1  0  0  0  0
  7  9  1  0  0  0  0
 31 32  1  0  0  0  0
 31 33  1  0  0  0  0
 31 34  1  0  0  0  0
 29 30  1  0  0  0  0
 29 31  1  0  0  0  0
M  CHG  1  23   1
M  END
$$$$
default_name
  -OEChem-02102213163D

 34 33  0     1  0  0  0  0  0999 V2000
   -3.8899   -3.6747    1.6490 H   0  0  0  0  0  0  0  0  0  0  0  0
   -3.9109   -2.6717    1.2250 C   0  0  0  0  0  0  0  0  0  0  0  0
   -4.6009   -2.0517    1.7950 H   0  0  0  0  0  0  0  0  0  0  0  0
   -4.2309   -2.7237    0.1860 H   0  0  0  0  0  0  0  0  0  0  0  0
   -2.5229   -2.0787    1.2980 C   0  0  0  0  0  0  0  0  0  0  0  0
   -1.5999   -2.7227    1.7810 O   0  0  0  0  0  0  0  0  0  0  0  0
   -2.3659   -0.8447    0.8120 N   0  0  0  0  0  0  0  0  0  0  0  0
   -3.1749   -0.3807    0.4220 H   0  0  0  0  0  0  0  0  0  0  0  0
   -1.0919   -0.1077    0.8170 C   0  0  1  0  0  0  0  0  0  0  0  0
   -0.4136   -0.6011    1.5155 H   0  0  0  0  0  0  0  0  0  0  0  0
   -0.4834   -0.1723   -0.5965 C   0  0  0  0  0  0  0  0  0  0  0  0
   -0.0765   -1.1724   -0.7543 H   0  0  0  0  0  0  0  0  0  0  0  0
   -1.2707   -0.0051   -1.3341 H   0  0  0  0  0  0  0  0  0  0  0  0
    0.6434    0.8481   -0.8190 C   0  0  0  0  0  0  0  0  0  0  0  0
    0.5068    1.3422   -1.7818 H   0  0  0  0  0  0  0  0  0  0  0  0
    0.6113    1.5976   -0.0258 H   0  0  0  0  0  0  0  0  0  0  0  0
    2.0095    0.1483   -0.8016 C   0  0  0  0  0  0  0  0  0  0  0  0
    2.1369   -0.3581    0.1581 H   0  0  0  0  0  0  0  0  0  0  0  0
    2.0397   -0.5935   -1.6022 H   0  0  0  0  0  0  0  0  0  0  0  0
    3.1369    1.1693   -0.9989 C   0  0  0  0  0  0  0  0  0  0  0  0
    2.9870    1.6703   -1.9607 H   0  0  0  0  0  0  0  0  0  0  0  0
    3.0625    1.9257   -0.2118 H   0  0  0  0  0  0  0  0  0  0  0  0
    4.4725    0.5216   -0.9624 N   0  3  0  0  0  0  0  0  0  0  0  0
    4.5512   -0.1722   -1.6953 H   0  0  0  0  0  0  0  0  0  0  0  0
    5.2048    1.2083   -1.0936 H   0  0  0  0  0  0  0  0  0  0  0  0
    4.6197    0.0637   -0.0705 H   0  0  0  0  0  0  0  0  0  0  0  0
   -1.3103    1.3348    1.2791 C   0  0  0  0  0  0  0  0  0  0  0  0
   -2.2333    1.9891    0.8084 O   0  0  0  0  0  0  0  0  0  0  0  0
   -0.4429    1.8293    2.1683 N   0  0  0  0  0  0  0  0  0  0  0  0
    0.2668    1.2118    2.5263 H   0  0  0  0  0  0  0  0  0  0  0  0
   -0.5118    3.1863    2.7135 C   0  0  0  0  0  0  0  0  0  0  0  0
   -1.4470    3.3159    3.2625 H   0  0  0  0  0  0  0  0  0  0  0  0
    0.3243    3.3682    3.3896 H   0  0  0  0  0  0  0  0  0  0  0  0
   -0.4850    3.9172    1.9023 H   0  0  0  0  0  0  0  0  0  0  0  0
  5  6  2  0  0  0  0
  5  7  1  0  0  0  0
  2  3  1  0  0  0  0
  2  4  1  0  0  0  0
  2  5  1  0  0  0  0
  1  2  1  0  0  0  0
 27 28  2  0  0  0  0
 27 29  1  0  0  0  0
 23 24  1  0  0  0  0
 23 25  1  0  0  0  0
 23 26  1  0  0  0  0
 20 21  1  0  0  0  0
 20 22  1  0  0  0  0
 20 23  1  0  0  0  0
 17 18  1  0  0  0  0
 17 19  1  0  0  0  0
 17 20  1  0  0  0  0
 14 15  1  0  0  0  0
 14 16  1  0  0  0  0
 14 17  1  0  0  0  0
 11 12  1  0  0  0  0
 11 13  1  0  0  0  0
 11 14  1  0  0  0  0
  9 10  1  0  0  0  0
  9 11  1  0  0  0  0
  9 27  1  0  0  0  0
  7  8  1  0  0  0  0
  7  9  1  0  0  0  0
 31 32  1  0  0  0  0
 31 33  1  0  0  0  0
 31 34  1  0  0  0  0
 29 30  1  0  0  0  0
 29 31  1  0  0  0  0
M  CHG  1  23   1
M  END
$$$$
default_name
  -OEChem-02102213163D

 34 33  0     1  0  0  0  0  0999 V2000
   -3.8899   -3.6747    1.6490 H   0  0  0  0  0  0  0  0  0  0  0  0
   -3.9109   -2.6717    1.2250 C   0  0  0  0  0  0  0  0  0  0  0  0
   -4.6009   -2.0517    1.7950 H   0  0  0  0  0  0  0  0  0  0  0  0
   -4.2309   -2.7237    0.1860 H   0  0  0  0  0  0  0  0  0  0  0  0
   -2.5229   -2.0787    1.2980 C   0  0  0  0  0  0  0  0  0  0  0  0
   -1.5999   -2.7227    1.7810 O   0  0  0  0  0  0  0  0  0  0  0  0
   -2.3659   -0.8447    0.8120 N   0  0  0  0  0  0  0  0  0  0  0  0
   -3.1749   -0.3807    0.4220 H   0  0  0  0  0  0  0  0  0  0  0  0
   -1.0919   -0.1077    0.8170 C   0  0  1  0  0  0  0  0  0  0  0  0
   -0.4136   -0.6011    1.5155 H   0  0  0  0  0  0  0  0  0  0  0  0
   -0.4834   -0.1723   -0.5965 C   0  0  0  0  0  0  0  0  0  0  0  0
   -0.0765   -1.1724   -0.7543 H   0  0  0  0  0  0  0  0  0  0  0  0
   -1.2707   -0.0051   -1.3341 H   0  0  0  0  0  0  0  0  0  0  0  0
    0.6434    0.8481   -0.8190 C   0  0  0  0  0  0  0  0  0  0  0  0
    0.3736    1.5216   -1.6335 H   0  0  0  0  0  0  0  0  0  0  0  0
    0.7859    1.4309    0.0932 H   0  0  0  0  0  0  0  0  0  0  0  0
    1.9530    0.1297   -1.1725 C   0  0  0  0  0  0  0  0  0  0  0  0
    2.2126   -0.5550   -0.3616 H   0  0  0  0  0  0  0  0  0  0  0  0
    1.8080   -0.4440   -2.0901 H   0  0  0  0  0  0  0  0  0  0  0  0
    3.0848    1.1458   -1.3706 C   0  0  0  0  0  0  0  0  0  0  0  0
    2.8024    1.8262   -2.1806 H   0  0  0  0  0  0  0  0  0  0  0  0
    3.1849    1.7374   -0.4556 H   0  0  0  0  0  0  0  0  0  0  0  0
    4.3704    0.4756   -1.6906 N   0  3  0  0  0  0  0  0  0  0  0  0
    4.2870   -0.0652   -2.5423 H   0  0  0  0  0  0  0  0  0  0  0  0
    5.1062    1.1592   -1.8178 H   0  0  0  0  0  0  0  0  0  0  0  0
    4.6406   -0.1489   -0.9397 H   0  0  0  0  0  0  0  0  0  0  0  0
   -1.3103    1.3348    1.2791 C   0  0  0  0  0  0  0  0  0  0  0  0
   -2.2333    1.9891    0.8084 O   0  0  0  0  0  0  0  0  0  0  0  0
   -0.4429    1.8293    2.1683 N   0  0  0  0  0  0  0  0  0  0  0  0
    0.2668    1.2118    2.5263 H   0  0  0  0  0  0  0  0  0  0  0  0
   -0.5118    3.1863    2.7135 C   0  0  0  0  0  0  0  0  0  0  0  0
   -1.4470    3.3159    3.2625 H   0  0  0  0  0  0  0  0  0  0  0  0
    0.3243    3.3682    3.3896 H   0  0  0  0  0  0  0  0  0  0  0  0
   -0.4850    3.9172    1.9023 H   0  0  0  0  0  0  0  0  0  0  0  0
  5  6  2  0  0  0  0
  5  7  1  0  0  0  0
  2  3  1  0  0  0  0
  2  4  1  0  0  0  0
  2  5  1  0  0  0  0
  1  2  1  0  0  0  0
 27 28  2  0  0  0  0
 27 29  1  0  0  0  0
 23 24  1  0  0  0  0
 23 25  1  0  0  0  0
 23 26  1  0  0  0  0
 20 21  1  0  0  0  0
 20 22  1  0  0  0  0
 20 23  1  0  0  0  0
 17 18  1  0  0  0  0
 17 19  1  0  0  0  0
 17 20  1  0  0  0  0
 14 15  1  0  0  0  0
 14 16  1  0  0  0  0
 14 17  1  0  0  0  0
 11 12  1  0  0  0  0
 11 13  1  0  0  0  0
 11 14  1  0  0  0  0
  9 10  1  0  0  0  0
  9 11  1  0  0  0  0
  9 27  1  0  0  0  0
  7  8  1  0  0  0  0
  7  9  1  0  0  0  0
 31 32  1  0  0  0  0
 31 33  1  0  0  0  0
 31 34  1  0  0  0  0
 29 30  1  0  0  0  0
 29 31  1  0  0  0  0
M  CHG  1  23   1
M  END
$$$$
default_name
  -OEChem-02102213163D

 34 33  0     1  0  0  0  0  0999 V2000
   -3.8899   -3.6747    1.6490 H   0  0  0  0  0  0  0  0  0  0  0  0
   -3.9109   -2.6717    1.2250 C   0  0  0  0  0  0  0  0  0  0  0  0
   -4.6009   -2.0517    1.7950 H   0  0  0  0  0  0  0  0  0  0  0  0
   -4.2309   -2.7237    0.1860 H   0  0  0  0  0  0  0  0  0  0  0  0
   -2.5229   -2.0787    1.2980 C   0  0  0  0  0  0  0  0  0  0  0  0
   -1.5999   -2.7227    1.7810 O   0  0  0  0  0  0  0  0  0  0  0  0
   -2.3659   -0.8447    0.8120 N   0  0  0  0  0  0  0  0  0  0  0  0
   -3.1749   -0.3807    0.4220 H   0  0  0  0  0  0  0  0  0  0  0  0
   -1.0919   -0.1077    0.8170 C   0  0  1  0  0  0  0  0  0  0  0  0
   -0.4136   -0.6011    1.5155 H   0  0  0  0  0  0  0  0  0  0  0  0
   -0.4834   -0.1723   -0.5965 C   0  0  0  0  0  0  0  0  0  0  0  0
   -0.0765   -1.1724   -0.7543 H   0  0  0  0  0  0  0  0  0  0  0  0
   -1.2707   -0.0051   -1.3341 H   0  0  0  0  0  0  0  0  0  0  0  0
    0.6434    0.8481   -0.8190 C   0  0  0  0  0  0  0  0  0  0  0  0
    0.2772    1.6717   -1.4333 H   0  0  0  0  0  0  0  0  0  0  0  0
    0.9686    1.2407    0.1465 H   0  0  0  0  0  0  0  0  0  0  0  0
    1.8341    0.1843   -1.5246 C   0  0  0  0  0  0  0  0  0  0  0  0
    2.1890   -0.6494   -0.9140 H   0  0  0  0  0  0  0  0  0  0  0  0
    1.5059   -0.1983   -2.4931 H   0  0  0  0  0  0  0  0  0  0  0  0
    2.9696    1.1957   -1.7251 C   0  0  0  0  0  0  0  0  0  0  0  0
    2.5922    2.0254   -2.3316 H   0  0  0  0  0  0  0  0  0  0  0  0
    3.2541    1.5973   -0.7479 H   0  0  0  0  0  0  0  0  0  0  0  0
    4.1449    0.5731   -2.3851 N   0  3  0  0  0  0  0  0  0  0  0  0
    3.8902    0.2089   -3.2947 H   0  0  0  0  0  0  0  0  0  0  0  0
    4.8847    1.2529   -2.5098 H   0  0  0  0  0  0  0  0  0  0  0  0
    4.5035   -0.1901   -1.8232 H   0  0  0  0  0  0  0  0  0  0  0  0
   -1.3103    1.3348    1.2791 C   0  0  0  0  0  0  0  0  0  0  0  0
   -2.2333    1.9891    0.8084 O   0  0  0  0  0  0  0  0  0  0  0  0
   -0.4429    1.8293    2.1683 N   0  0  0  0  0  0  0  0  0  0  0  0
    0.2668    1.2118    2.5263 H   0  0  0  0  0  0  0  0  0  0  0  0
   -0.5118    3.1863    2.7135 C   0  0  0  0  0  0  0  0  0  0  0  0
   -1.4470    3.3159    3.2625 H   0  0  0  0  0  0  0  0  0  0  0  0
    0.3243    3.3682    3.3896 H   0  0  0  0  0  0  0  0  0  0  0  0
   -0.4850    3.9172    1.9023 H   0  0  0  0  0  0  0  0  0  0  0  0
  5  6  2  0  0  0  0
  5  7  1  0  0  0  0
  2  3  1  0  0  0  0
  2  4  1  0  0  0  0
  2  5  1  0  0  0  0
  1  2  1  0  0  0  0
 27 28  2  0  0  0  0
 27 29  1  0  0  0  0
 23 24  1  0  0  0  0
 23 25  1  0  0  0  0
 23 26  1  0  0  0  0
 20 21  1  0  0  0  0
 20 22  1  0  0  0  0
 20 23  1  0  0  0  0
 17 18  1  0  0  0  0
 17 19  1  0  0  0  0
 17 20  1  0  0  0  0
 14 15  1  0  0  0  0
 14 16  1  0  0  0  0
 14 17  1  0  0  0  0
 11 12  1  0  0  0  0
 11 13  1  0  0  0  0
 11 14  1  0  0  0  0
  9 10  1  0  0  0  0
  9 11  1  0  0  0  0
  9 27  1  0  0  0  0
  7  8  1  0  0  0  0
  7  9  1  0  0  0  0
 31 32  1  0  0  0  0
 31 33  1  0  0  0  0
 31 34  1  0  0  0  0
 29 30  1  0  0  0  0
 29 31  1  0  0  0  0
M  CHG  1  23   1
M  END
$$$$
default_name
  -OEChem-02102213163D

 34 33  0     1  0  0  0  0  0999 V2000
   -3.8899   -3.6747    1.6490 H   0  0  0  0  0  0  0  0  0  0  0  0
   -3.9109   -2.6717    1.2250 C   0  0  0  0  0  0  0  0  0  0  0  0
   -4.6009   -2.0517    1.7950 H   0  0  0  0  0  0  0  0  0  0  0  0
   -4.2309   -2.7237    0.1860 H   0  0  0  0  0  0  0  0  0  0  0  0
   -2.5229   -2.0787    1.2980 C   0  0  0  0  0  0  0  0  0  0  0  0
   -1.5999   -2.7227    1.7810 O   0  0  0  0  0  0  0  0  0  0  0  0
   -2.3659   -0.8447    0.8120 N   0  0  0  0  0  0  0  0  0  0  0  0
   -3.1749   -0.3807    0.4220 H   0  0  0  0  0  0  0  0  0  0  0  0
   -1.0919   -0.1077    0.8170 C   0  0  1  0  0  0  0  0  0  0  0  0
   -0.4136   -0.6011    1.5155 H   0  0  0  0  0  0  0  0  0  0  0  0
   -0.4834   -0.1723   -0.5965 C   0  0  0  0  0  0  0  0  0  0  0  0
   -0.0765   -1.1724   -0.7543 H   0  0  0  0  0  0  0  0  0  0  0  0
   -1.2707   -0.0051   -1.3341 H   0  0  0  0  0  0  0  0  0  0  0  0
    0.6434    0.8481   -0.8190 C   0  0  0  0  0  0  0  0  0  0  0  0
    0.2242    1.7823   -1.1949 H   0  0  0  0  0  0  0  0  0  0  0  0
    1.1472    1.0400    0.1304 H   0  0  0  0  0  0  0  0  0  0  0  0
    1.6607    0.3084   -1.8339 C   0  0  0  0  0  0  0  0  0  0  0  0
    2.0677   -0.6348   -1.4615 H   0  0  0  0  0  0  0  0  0  0  0  0
    1.1540    0.1269   -2.7838 H   0  0  0  0  0  0  0  0  0  0  0  0
    2.7993    1.3155   -2.0383 C   0  0  0  0  0  0  0  0  0  0  0  0
    2.3706    2.2544   -2.4036 H   0  0  0  0  0  0  0  0  0  0  0  0
    3.2655    1.5148   -1.0687 H   0  0  0  0  0  0  0  0  0  0  0  0
    3.8113    0.8077   -2.9988 N   0  3  0  0  0  0  0  0  0  0  0  0
    3.3879    0.6314   -3.9012 H   0  0  0  0  0  0  0  0  0  0  0  0
    4.5553    1.4832   -3.1222 H   0  0  0  0  0  0  0  0  0  0  0  0
    4.2176   -0.0570   -2.6609 H   0  0  0  0  0  0  0  0  0  0  0  0
   -1.3103    1.3348    1.2791 C   0  0  0  0  0  0  0  0  0  0  0  0
   -2.2333    1.9891    0.8084 O   0  0  0  0  0  0  0  0  0  0  0  0
   -0.4429    1.8293    2.1683 N   0  0  0  0  0  0  0  0  0  0  0  0
    0.2668    1.2118    2.5263 H   0  0  0  0  0  0  0  0  0  0  0  0
   -0.5118    3.1863    2.7135 C   0  0  0  0  0  0  0  0  0  0  0  0
   -1.4470    3.3159    3.2625 H   0  0  0  0  0  0  0  0  0  0  0  0
    0.3243    3.3682    3.3896 H   0  0  0  0  0  0  0  0  0  0  0  0
   -0.4850    3.9172    1.9023 H   0  0  0  0  0  0  0  0  0  0  0  0
  5  6  2  0  0  0  0
  5  7  1  0  0  0  0
  2  3  1  0  0  0  0
  2  4  1  0  0  0  0
  2  5  1  0  0  0  0
  1  2  1  0  0  0  0
 27 28  2  0  0  0  0
 27 29  1  0  0  0  0
 23 24  1  0  0  0  0
 23 25  1  0  0  0  0
 23 26  1  0  0  0  0
 20 21  1  0  0  0  0
 20 22  1  0  0  0  0
 20 23  1  0  0  0  0
 17 18  1  0  0  0  0
 17 19  1  0  0  0  0
 17 20  1  0  0  0  0
 14 15  1  0  0  0  0
 14 16  1  0  0  0  0
 14 17  1  0  0  0  0
 11 12  1  0  0  0  0
 11 13  1  0  0  0  0
 11 14  1  0  0  0  0
  9 10  1  0  0  0  0
  9 11  1  0  0  0  0
  9 27  1  0  0  0  0
  7  8  1  0  0  0  0
  7  9  1  0  0  0  0
 31 32  1  0  0  0  0
 31 33  1  0  0  0  0
 31 34  1  0  0  0  0
 29 30  1  0  0  0  0
 29 31  1  0  0  0  0
M  CHG  1  23   1
M  END
$$$$
default_name
  -OEChem-02102213163D

 34 33  0     1  0  0  0  0  0999 V2000
   -3.8899   -3.6747    1.6490 H   0  0  0  0  0  0  0  0  0  0  0  0
   -3.9109   -2.6717    1.2250 C   0  0  0  0  0  0  0  0  0  0  0  0
   -4.6009   -2.0517    1.7950 H   0  0  0  0  0  0  0  0  0  0  0  0
   -4.2309   -2.7237    0.1860 H   0  0  0  0  0  0  0  0  0  0  0  0
   -2.5229   -2.0787    1.2980 C   0  0  0  0  0  0  0  0  0  0  0  0
   -1.5999   -2.7227    1.7810 O   0  0  0  0  0  0  0  0  0  0  0  0
   -2.3659   -0.8447    0.8120 N   0  0  0  0  0  0  0  0  0  0  0  0
   -3.1749   -0.3807    0.4220 H   0  0  0  0  0  0  0  0  0  0  0  0
   -1.0919   -0.1077    0.8170 C   0  0  1  0  0  0  0  0  0  0  0  0
   -0.4136   -0.6011    1.5155 H   0  0  0  0  0  0  0  0  0  0  0  0
   -0.4834   -0.1723   -0.5965 C   0  0  0  0  0  0  0  0  0  0  0  0
   -0.0765   -1.1724   -0.7543 H   0  0  0  0  0  0  0  0  0  0  0  0
   -1.2707   -0.0051   -1.3341 H   0  0  0  0  0  0  0  0  0  0  0  0
    0.6434    0.8481   -0.8190 C   0  0  0  0  0  0  0  0  0  0  0  0
    0.2180    1.8459   -0.9345 H   0  0  0  0  0  0  0  0  0  0  0  0
    1.3094    0.8425    0.0461 H   0  0  0  0  0  0  0  0  0  0  0  0
    1.4447    0.4934   -2.0792 C   0  0  0  0  0  0  0  0  0  0  0  0
    1.8569   -0.5122   -1.9666 H   0  0  0  0  0  0  0  0  0  0  0  0
    0.7763    0.5094   -2.9424 H   0  0  0  0  0  0  0  0  0  0  0  0
    2.5854    1.4970   -2.2888 C   0  0  0  0  0  0  0  0  0  0  0  0
    2.1528    2.4976   -2.3915 H   0  0  0  0  0  0  0  0  0  0  0  0
    3.2182    1.4955   -1.3962 H   0  0  0  0  0  0  0  0  0  0  0  0
    3.3924    1.1632   -3.4896 N   0  3  0  0  0  0  0  0  0  0  0  0
    2.8143    1.1734   -4.3205 H   0  0  0  0  0  0  0  0  0  0  0  0
    4.1404    1.8341   -3.6135 H   0  0  0  0  0  0  0  0  0  0  0  0
    3.8024    0.2413   -3.3956 H   0  0  0  0  0  0  0  0  0  0  0  0
   -1.3103    1.3348    1.2791 C   0  0  0  0  0  0  0  0  0  0  0  0
   -2.2333    1.9891    0.8084 O   0  0  0  0  0  0  0  0  0  0  0  0
   -0.4429    1.8293    2.1683 N   0  0  0  0  0  0  0  0  0  0  0  0
    0.2668    1.2118    2.5263 H   0  0  0  0  0  0  0  0  0  0  0  0
   -0.5118    3.1863    2.7135 C   0  0  0  0  0  0  0  0  0  0  0  0
   -1.4470    3.3159    3.2625 H   0  0  0  0  0  0  0  0  0  0  0  0
    0.3243    3.3682    3.3896 H   0  0  0  0  0  0  0  0  0  0  0  0
   -0.4850    3.9172    1.9023 H   0  0  0  0  0  0  0  0  0  0  0  0
  5  6  2  0  0  0  0
  5  7  1  0  0  0  0
  2  3  1  0  0  0  0
  2  4  1  0  0  0  0
  2  5  1  0  0  0  0
  1  2  1  0  0  0  0
 27 28  2  0  0  0  0
 27 29  1  0  0  0  0
 23 24  1  0  0  0  0
 23 25  1  0  0  0  0
 23 26  1  0  0  0  0
 20 21  1  0  0  0  0
 20 22  1  0  0  0  0
 20 23  1  0  0  0  0
 17 18  1  0  0  0  0
 17 19  1  0  0  0  0
 17 20  1  0  0  0  0
 14 15  1  0  0  0  0
 14 16  1  0  0  0  0
 14 17  1  0  0  0  0
 11 12  1  0  0  0  0
 11 13  1  0  0  0  0
 11 14  1  0  0  0  0
  9 10  1  0  0  0  0
  9 11  1  0  0  0  0
  9 27  1  0  0  0  0
  7  8  1  0  0  0  0
  7  9  1  0  0  0  0
 31 32  1  0  0  0  0
 31 33  1  0  0  0  0
 31 34  1  0  0  0  0
 29 30  1  0  0  0  0
 29 31  1  0  0  0  0
M  CHG  1  23   1
M  END
$$$$
