
  -OEChem-02102214153D

 34 33  0     1  0  0  0  0  0999 V2000
   -3.7201   -4.0576    1.7791 H   0  0  0  0  0  0  0  0  0  0  0  0
   -3.7475   -3.0507    1.3527 C   0  0  0  0  0  0  0  0  0  0  0  0
   -4.3861   -2.4222    1.9783 H   0  0  0  0  0  0  0  0  0  0  0  0
   -4.1734   -3.1054    0.3480 H   0  0  0  0  0  0  0  0  0  0  0  0
   -2.3473   -2.4709    1.2917 C   0  0  0  0  0  0  0  0  0  0  0  0
   -1.3876   -3.1360    1.6482 O   0  0  0  0  0  0  0  0  0  0  0  0
   -2.1465   -1.1901    0.8185 N   0  0  0  0  0  0  0  0  0  0  0  0
   -2.9759   -0.6341    0.6112 H   0  0  0  0  0  0  0  0  0  0  0  0
   -0.8586   -0.4844    0.8812 C   0  0  1  0  0  0  0  0  0  0  0  0
   -0.1828   -0.9790    1.5871 H   0  0  0  0  0  0  0  0  0  0  0  0
   -0.2510   -0.5427   -0.5320 C   0  0  0  0  0  0  0  0  0  0  0  0
   -0.1390   -1.5937   -0.8209 H   0  0  0  0  0  0  0  0  0  0  0  0
   -0.9496   -0.0770   -1.2364 H   0  0  0  0  0  0  0  0  0  0  0  0
    1.1128    0.1581   -0.6334 C   0  0  0  0  0  0  0  0  0  0  0  0
    1.0118    1.2141   -0.3591 H   0  0  0  0  0  0  0  0  0  0  0  0
    1.8163   -0.3089    0.0649 H   0  0  0  0  0  0  0  0  0  0  0  0
    1.6493    0.0562   -2.0659 C   0  0  0  0  0  0  0  0  0  0  0  0
    1.7738   -0.9995   -2.3321 H   0  0  0  0  0  0  0  0  0  0  0  0
    0.9218    0.4971   -2.7567 H   0  0  0  0  0  0  0  0  0  0  0  0
    2.9845    0.7860   -2.1861 C   0  0  0  0  0  0  0  0  0  0  0  0
    2.8507    1.8362   -1.8874 H   0  0  0  0  0  0  0  0  0  0  0  0
    3.7070    0.3390   -1.4875 H   0  0  0  0  0  0  0  0  0  0  0  0
    3.4596    0.6865   -3.5833 N   0  3  0  0  0  0  0  0  0  0  0  0
    2.7755    1.1084   -4.2146 H   0  0  0  0  0  0  0  0  0  0  0  0
    4.3521    1.1739   -3.6883 H   0  0  0  0  0  0  0  0  0  0  0  0
    3.5854   -0.2947   -3.8403 H   0  0  0  0  0  0  0  0  0  0  0  0
   -1.0610    0.9649    1.3674 C   0  0  0  0  0  0  0  0  0  0  0  0
   -1.9075    1.6663    0.8291 O   0  0  0  0  0  0  0  0  0  0  0  0
   -0.2283    1.5141    2.3257 N   0  0  0  0  0  0  0  0  0  0  0  0
    0.3566    0.8701    2.8521 H   0  0  0  0  0  0  0  0  0  0  0  0
   -0.4345    2.8551    2.8652 C   0  0  0  0  0  0  0  0  0  0  0  0
   -1.4052    2.9211    3.3684 H   0  0  0  0  0  0  0  0  0  0  0  0
    0.3484    3.0977    3.5906 H   0  0  0  0  0  0  0  0  0  0  0  0
   -0.4035    3.6020    2.0647 H   0  0  0  0  0  0  0  0  0  0  0  0
  1  2  1  0  0  0  0
  2  3  1  0  0  0  0
  2  4  1  0  0  0  0
  2  5  1  0  0  0  0
  5  6  2  0  0  0  0
  5  7  1  0  0  0  0
  7  8  1  0  0  0  0
  7  9  1  0  0  0  0
  9 10  1  0  0  0  0
  9 11  1  0  0  0  0
  9 27  1  0  0  0  0
 11 12  1  0  0  0  0
 11 13  1  0  0  0  0
 11 14  1  0  0  0  0
 14 15  1  0  0  0  0
 14 16  1  0  0  0  0
 14 17  1  0  0  0  0
 17 18  1  0  0  0  0
 17 19  1  0  0  0  0
 17 20  1  0  0  0  0
 20 21  1  0  0  0  0
 20 22  1  0  0  0  0
 20 23  1  0  0  0  0
 23 24  1  0  0  0  0
 23 25  1  0  0  0  0
 23 26  1  0  0  0  0
 27 28  2  0  0  0  0
 27 29  1  0  0  0  0
 29 30  1  0  0  0  0
 29 31  1  0  0  0  0
 31 32  1  0  0  0  0
 31 33  1  0  0  0  0
 31 34  1  0  0  0  0
M  CHG  1  23   1
M  END
$$$$

  -OEChem-02102214153D

 34 33  0     1  0  0  0  0  0999 V2000
   -3.7174   -4.0534    1.7660 H   0  0  0  0  0  0  0  0  0  0  0  0
   -3.7425   -3.0449    1.3433 C   0  0  0  0  0  0  0  0  0  0  0  0
   -4.3829   -2.4182    1.9688 H   0  0  0  0  0  0  0  0  0  0  0  0
   -4.1646   -3.0954    0.3368 H   0  0  0  0  0  0  0  0  0  0  0  0
   -2.3417   -2.4660    1.2904 C   0  0  0  0  0  0  0  0  0  0  0  0
   -1.3847   -3.1310    1.6533 O   0  0  0  0  0  0  0  0  0  0  0  0
   -2.1385   -1.1841    0.8218 N   0  0  0  0  0  0  0  0  0  0  0  0
   -2.9666   -0.6278    0.6111 H   0  0  0  0  0  0  0  0  0  0  0  0
   -0.8506   -0.4794    0.8903 C   0  0  1  0  0  0  0  0  0  0  0  0
   -0.1734   -0.9750    1.5943 H   0  0  0  0  0  0  0  0  0  0  0  0
   -0.2466   -0.5384   -0.5256 C   0  0  0  0  0  0  0  0  0  0  0  0
   -0.1431   -1.5863   -0.8285 H   0  0  0  0  0  0  0  0  0  0  0  0
   -0.9549   -0.0645   -1.2146 H   0  0  0  0  0  0  0  0  0  0  0  0
    1.1207    0.1566   -0.6464 C   0  0  0  0  0  0  0  0  0  0  0  0
    1.0980    1.1306   -0.1470 H   0  0  0  0  0  0  0  0  0  0  0  0
    1.8851   -0.4561   -0.1555 H   0  0  0  0  0  0  0  0  0  0  0  0
    1.4697    0.3765   -2.1233 C   0  0  0  0  0  0  0  0  0  0  0  0
    1.5083   -0.5925   -2.6336 H   0  0  0  0  0  0  0  0  0  0  0  0
    0.6841    0.9781   -2.5945 H   0  0  0  0  0  0  0  0  0  0  0  0
    2.8128    1.0899   -2.2544 C   0  0  0  0  0  0  0  0  0  0  0  0
    2.7724    2.0413   -1.7037 H   0  0  0  0  0  0  0  0  0  0  0  0
    3.5972    0.4768   -1.7868 H   0  0  0  0  0  0  0  0  0  0  0  0
    3.0937    1.3174   -3.6887 N   0  3  0  0  0  0  0  0  0  0  0  0
    2.3503    1.8830   -4.1034 H   0  0  0  0  0  0  0  0  0  0  0  0
    3.9841    1.8069   -3.8005 H   0  0  0  0  0  0  0  0  0  0  0  0
    3.1425    0.4233   -4.1812 H   0  0  0  0  0  0  0  0  0  0  0  0
   -1.0619    0.9674    1.3810 C   0  0  0  0  0  0  0  0  0  0  0  0
   -1.9003    1.6708    0.8322 O   0  0  0  0  0  0  0  0  0  0  0  0
   -0.2366    1.5174    2.3454 N   0  0  0  0  0  0  0  0  0  0  0  0
    0.3419    0.8719    2.8774 H   0  0  0  0  0  0  0  0  0  0  0  0
   -0.4533    2.8548    2.8892 C   0  0  0  0  0  0  0  0  0  0  0  0
   -1.4293    2.9147    3.3830 H   0  0  0  0  0  0  0  0  0  0  0  0
    0.3214    3.0968    3.6235 H   0  0  0  0  0  0  0  0  0  0  0  0
   -0.4175    3.6057    2.0927 H   0  0  0  0  0  0  0  0  0  0  0  0
  1  2  1  0  0  0  0
  2  3  1  0  0  0  0
  2  4  1  0  0  0  0
  2  5  1  0  0  0  0
  5  6  2  0  0  0  0
  5  7  1  0  0  0  0
  7  8  1  0  0  0  0
  7  9  1  0  0  0  0
  9 10  1  0  0  0  0
  9 11  1  0  0  0  0
  9 27  1  0  0  0  0
 11 12  1  0  0  0  0
 11 13  1  0  0  0  0
 11 14  1  0  0  0  0
 14 15  1  0  0  0  0
 14 16  1  0  0  0  0
 14 17  1  0  0  0  0
 17 18  1  0  0  0  0
 17 19  1  0  0  0  0
 17 20  1  0  0  0  0
 20 21  1  0  0  0  0
 20 22  1  0  0  0  0
 20 23  1  0  0  0  0
 23 24  1  0  0  0  0
 23 25  1  0  0  0  0
 23 26  1  0  0  0  0
 27 28  2  0  0  0  0
 27 29  1  0  0  0  0
 29 30  1  0  0  0  0
 29 31  1  0  0  0  0
 31 32  1  0  0  0  0
 31 33  1  0  0  0  0
 31 34  1  0  0  0  0
M  CHG  1  23   1
M  END
$$$$

  -OEChem-02102214153D

 34 33  0     1  0  0  0  0  0999 V2000
   -3.7167   -4.0608    1.7608 H   0  0  0  0  0  0  0  0  0  0  0  0
   -3.7416   -3.0533    1.3359 C   0  0  0  0  0  0  0  0  0  0  0  0
   -4.3946   -2.4292    1.9506 H   0  0  0  0  0  0  0  0  0  0  0  0
   -4.1483   -3.1086    0.3233 H   0  0  0  0  0  0  0  0  0  0  0  0
   -2.3437   -2.4661    1.3024 C   0  0  0  0  0  0  0  0  0  0  0  0
   -1.3888   -3.1248    1.6818 O   0  0  0  0  0  0  0  0  0  0  0  0
   -2.1400   -1.1845    0.8323 N   0  0  0  0  0  0  0  0  0  0  0  0
   -2.9671   -0.6326    0.6073 H   0  0  0  0  0  0  0  0  0  0  0  0
   -0.8513   -0.4805    0.8987 C   0  0  1  0  0  0  0  0  0  0  0  0
   -0.1698   -0.9764    1.5984 H   0  0  0  0  0  0  0  0  0  0  0  0
   -0.2578   -0.5381   -0.5224 C   0  0  0  0  0  0  0  0  0  0  0  0
   -0.1611   -1.5841   -0.8337 H   0  0  0  0  0  0  0  0  0  0  0  0
   -0.9772   -0.0630   -1.1990 H   0  0  0  0  0  0  0  0  0  0  0  0
    1.1122    0.1536   -0.6618 C   0  0  0  0  0  0  0  0  0  0  0  0
    1.1998    0.9859    0.0429 H   0  0  0  0  0  0  0  0  0  0  0  0
    1.9048   -0.5648   -0.4239 H   0  0  0  0  0  0  0  0  0  0  0  0
    1.2877    0.7070   -2.0814 C   0  0  0  0  0  0  0  0  0  0  0  0
    1.2214   -0.1163   -2.8015 H   0  0  0  0  0  0  0  0  0  0  0  0
    0.4775    1.4135   -2.2963 H   0  0  0  0  0  0  0  0  0  0  0  0
    2.6343    1.4130   -2.2144 C   0  0  0  0  0  0  0  0  0  0  0  0
    2.7012    2.2087   -1.4578 H   0  0  0  0  0  0  0  0  0  0  0  0
    3.4422    0.6964   -2.0050 H   0  0  0  0  0  0  0  0  0  0  0  0
    2.7497    1.9680   -3.5804 N   0  3  0  0  0  0  0  0  0  0  0  0
    1.9848    2.6232   -3.7551 H   0  0  0  0  0  0  0  0  0  0  0  0
    3.6391    2.4605   -3.6871 H   0  0  0  0  0  0  0  0  0  0  0  0
    2.7029    1.2143   -4.2688 H   0  0  0  0  0  0  0  0  0  0  0  0
   -1.0618    0.9674    1.3885 C   0  0  0  0  0  0  0  0  0  0  0  0
   -1.8813    1.6800    0.8227 O   0  0  0  0  0  0  0  0  0  0  0  0
   -0.2346    1.5162    2.3523 N   0  0  0  0  0  0  0  0  0  0  0  0
    0.3298    0.8666    2.8948 H   0  0  0  0  0  0  0  0  0  0  0  0
   -0.4390    2.8595    2.8863 C   0  0  0  0  0  0  0  0  0  0  0  0
   -1.4127    2.9307    3.3832 H   0  0  0  0  0  0  0  0  0  0  0  0
    0.3405    3.1006    3.6160 H   0  0  0  0  0  0  0  0  0  0  0  0
   -0.3998    3.6042    2.0841 H   0  0  0  0  0  0  0  0  0  0  0  0
  1  2  1  0  0  0  0
  2  3  1  0  0  0  0
  2  4  1  0  0  0  0
  2  5  1  0  0  0  0
  5  6  2  0  0  0  0
  5  7  1  0  0  0  0
  7  8  1  0  0  0  0
  7  9  1  0  0  0  0
  9 10  1  0  0  0  0
  9 11  1  0  0  0  0
  9 27  1  0  0  0  0
 11 12  1  0  0  0  0
 11 13  1  0  0  0  0
 11 14  1  0  0  0  0
 14 15  1  0  0  0  0
 14 16  1  0  0  0  0
 14 17  1  0  0  0  0
 17 18  1  0  0  0  0
 17 19  1  0  0  0  0
 17 20  1  0  0  0  0
 20 21  1  0  0  0  0
 20 22  1  0  0  0  0
 20 23  1  0  0  0  0
 23 24  1  0  0  0  0
 23 25  1  0  0  0  0
 23 26  1  0  0  0  0
 27 28  2  0  0  0  0
 27 29  1  0  0  0  0
 29 30  1  0  0  0  0
 29 31  1  0  0  0  0
 31 32  1  0  0  0  0
 31 33  1  0  0  0  0
 31 34  1  0  0  0  0
M  CHG  1  23   1
M  END
$$$$

  -OEChem-02102214153D

 34 33  0     1  0  0  0  0  0999 V2000
   -3.7261   -4.0604    1.7649 H   0  0  0  0  0  0  0  0  0  0  0  0
   -3.7480   -3.0529    1.3398 C   0  0  0  0  0  0  0  0  0  0  0  0
   -4.4072   -2.4294    1.9485 H   0  0  0  0  0  0  0  0  0  0  0  0
   -4.1460   -3.1087    0.3238 H   0  0  0  0  0  0  0  0  0  0  0  0
   -2.3501   -2.4649    1.3183 C   0  0  0  0  0  0  0  0  0  0  0  0
   -1.4004   -3.1178    1.7195 O   0  0  0  0  0  0  0  0  0  0  0  0
   -2.1419   -1.1875    0.8387 N   0  0  0  0  0  0  0  0  0  0  0  0
   -2.9663   -0.6417    0.5909 H   0  0  0  0  0  0  0  0  0  0  0  0
   -0.8517   -0.4852    0.8989 C   0  0  1  0  0  0  0  0  0  0  0  0
   -0.1678   -0.9801    1.5970 H   0  0  0  0  0  0  0  0  0  0  0  0
   -0.2660   -0.5444   -0.5250 C   0  0  0  0  0  0  0  0  0  0  0  0
   -0.1645   -1.5929   -0.8265 H   0  0  0  0  0  0  0  0  0  0  0  0
   -0.9911   -0.0846   -1.2062 H   0  0  0  0  0  0  0  0  0  0  0  0
    1.1056    0.1469   -0.6708 C   0  0  0  0  0  0  0  0  0  0  0  0
    1.3218    0.7777    0.1964 H   0  0  0  0  0  0  0  0  0  0  0  0
    1.8889   -0.6182   -0.7165 H   0  0  0  0  0  0  0  0  0  0  0  0
    1.1327    1.0135   -1.9361 C   0  0  0  0  0  0  0  0  0  0  0  0
    0.9521    0.3812   -2.8127 H   0  0  0  0  0  0  0  0  0  0  0  0
    0.3269    1.7548   -1.8786 H   0  0  0  0  0  0  0  0  0  0  0  0
    2.4750    1.7257   -2.0731 C   0  0  0  0  0  0  0  0  0  0  0  0
    2.6655    2.3165   -1.1651 H   0  0  0  0  0  0  0  0  0  0  0  0
    3.2784    0.9782   -2.1494 H   0  0  0  0  0  0  0  0  0  0  0  0
    2.4297    2.5916   -3.2712 N   0  3  0  0  0  0  0  0  0  0  0  0
    1.6662    3.2658   -3.1836 H   0  0  0  0  0  0  0  0  0  0  0  0
    3.3109    3.0993   -3.3736 H   0  0  0  0  0  0  0  0  0  0  0  0
    2.2743    2.0240   -4.1067 H   0  0  0  0  0  0  0  0  0  0  0  0
   -1.0531    0.9681    1.3773 C   0  0  0  0  0  0  0  0  0  0  0  0
   -1.8545    1.6886    0.7952 O   0  0  0  0  0  0  0  0  0  0  0  0
   -0.2201    1.5181    2.3355 N   0  0  0  0  0  0  0  0  0  0  0  0
    0.3334    0.8654    2.8856 H   0  0  0  0  0  0  0  0  0  0  0  0
   -0.4230    2.8618    2.8690 C   0  0  0  0  0  0  0  0  0  0  0  0
   -1.3986    2.9352    3.3620 H   0  0  0  0  0  0  0  0  0  0  0  0
    0.3537    3.1003    3.6025 H   0  0  0  0  0  0  0  0  0  0  0  0
   -0.3786    3.6069    2.0677 H   0  0  0  0  0  0  0  0  0  0  0  0
  1  2  1  0  0  0  0
  2  3  1  0  0  0  0
  2  4  1  0  0  0  0
  2  5  1  0  0  0  0
  5  6  2  0  0  0  0
  5  7  1  0  0  0  0
  7  8  1  0  0  0  0
  7  9  1  0  0  0  0
  9 10  1  0  0  0  0
  9 11  1  0  0  0  0
  9 27  1  0  0  0  0
 11 12  1  0  0  0  0
 11 13  1  0  0  0  0
 11 14  1  0  0  0  0
 14 15  1  0  0  0  0
 14 16  1  0  0  0  0
 14 17  1  0  0  0  0
 17 18  1  0  0  0  0
 17 19  1  0  0  0  0
 17 20  1  0  0  0  0
 20 21  1  0  0  0  0
 20 22  1  0  0  0  0
 20 23  1  0  0  0  0
 23 24  1  0  0  0  0
 23 25  1  0  0  0  0
 23 26  1  0  0  0  0
 27 28  2  0  0  0  0
 27 29  1  0  0  0  0
 29 30  1  0  0  0  0
 29 31  1  0  0  0  0
 31 32  1  0  0  0  0
 31 33  1  0  0  0  0
 31 34  1  0  0  0  0
M  CHG  1  23   1
M  END
$$$$

  -OEChem-02102214153D

 34 33  0     1  0  0  0  0  0999 V2000
   -3.7265   -4.0654    1.7705 H   0  0  0  0  0  0  0  0  0  0  0  0
   -3.7511   -3.0612    1.3376 C   0  0  0  0  0  0  0  0  0  0  0  0
   -4.4246   -2.4393    1.9323 H   0  0  0  0  0  0  0  0  0  0  0  0
   -4.1337   -3.1286    0.3162 H   0  0  0  0  0  0  0  0  0  0  0  0
   -2.3579   -2.4618    1.3318 C   0  0  0  0  0  0  0  0  0  0  0  0
   -1.4091   -3.1039    1.7519 O   0  0  0  0  0  0  0  0  0  0  0  0
   -2.1515   -1.1871    0.8438 N   0  0  0  0  0  0  0  0  0  0  0  0
   -2.9743   -0.6517    0.5702 H   0  0  0  0  0  0  0  0  0  0  0  0
   -0.8613   -0.4844    0.8949 C   0  0  1  0  0  0  0  0  0  0  0  0
   -0.1751   -0.9787    1.5913 H   0  0  0  0  0  0  0  0  0  0  0  0
   -0.2816   -0.5491   -0.5304 C   0  0  0  0  0  0  0  0  0  0  0  0
   -0.1663   -1.6029   -0.8079 H   0  0  0  0  0  0  0  0  0  0  0  0
   -1.0070   -0.1149   -1.2278 H   0  0  0  0  0  0  0  0  0  0  0  0
    1.0881    0.1454   -0.6740 C   0  0  0  0  0  0  0  0  0  0  0  0
    1.4347    0.5346    0.2886 H   0  0  0  0  0  0  0  0  0  0  0  0
    1.8270   -0.5923   -1.0070 H   0  0  0  0  0  0  0  0  0  0  0  0
    0.9981    1.2810   -1.7020 C   0  0  0  0  0  0  0  0  0  0  0  0
    0.7117    0.8663   -2.6751 H   0  0  0  0  0  0  0  0  0  0  0  0
    0.2169    1.9838   -1.3889 H   0  0  0  0  0  0  0  0  0  0  0  0
    2.3285    2.0172   -1.8206 C   0  0  0  0  0  0  0  0  0  0  0  0
    2.6209    2.3996   -0.8316 H   0  0  0  0  0  0  0  0  0  0  0  0
    3.1094    1.3124   -2.1418 H   0  0  0  0  0  0  0  0  0  0  0  0
    2.1660    3.1205   -2.7921 N   0  3  0  0  0  0  0  0  0  0  0  0
    1.4202    3.7479   -2.4828 H   0  0  0  0  0  0  0  0  0  0  0  0
    3.0354    3.6519   -2.8730 H   0  0  0  0  0  0  0  0  0  0  0  0
    1.9199    2.7438   -3.7096 H   0  0  0  0  0  0  0  0  0  0  0  0
   -1.0440    0.9743    1.3641 C   0  0  0  0  0  0  0  0  0  0  0  0
   -1.8214    1.7097    0.7677 O   0  0  0  0  0  0  0  0  0  0  0  0
   -0.1959    1.5178    2.3128 N   0  0  0  0  0  0  0  0  0  0  0  0
    0.3328    0.8551    2.8759 H   0  0  0  0  0  0  0  0  0  0  0  0
   -0.3772    2.8670    2.8404 C   0  0  0  0  0  0  0  0  0  0  0  0
   -1.3423    2.9521    3.3516 H   0  0  0  0  0  0  0  0  0  0  0  0
    0.4158    3.1037    3.5569 H   0  0  0  0  0  0  0  0  0  0  0  0
   -0.3420    3.6069    2.0338 H   0  0  0  0  0  0  0  0  0  0  0  0
  1  2  1  0  0  0  0
  2  3  1  0  0  0  0
  2  4  1  0  0  0  0
  2  5  1  0  0  0  0
  5  6  2  0  0  0  0
  5  7  1  0  0  0  0
  7  8  1  0  0  0  0
  7  9  1  0  0  0  0
  9 10  1  0  0  0  0
  9 11  1  0  0  0  0
  9 27  1  0  0  0  0
 11 12  1  0  0  0  0
 11 13  1  0  0  0  0
 11 14  1  0  0  0  0
 14 15  1  0  0  0  0
 14 16  1  0  0  0  0
 14 17  1  0  0  0  0
 17 18  1  0  0  0  0
 17 19  1  0  0  0  0
 17 20  1  0  0  0  0
 20 21  1  0  0  0  0
 20 22  1  0  0  0  0
 20 23  1  0  0  0  0
 23 24  1  0  0  0  0
 23 25  1  0  0  0  0
 23 26  1  0  0  0  0
 27 28  2  0  0  0  0
 27 29  1  0  0  0  0
 29 30  1  0  0  0  0
 29 31  1  0  0  0  0
 31 32  1  0  0  0  0
 31 33  1  0  0  0  0
 31 34  1  0  0  0  0
M  CHG  1  23   1
M  END
$$$$

  -OEChem-02102214153D

 34 33  0     1  0  0  0  0  0999 V2000
   -3.7043   -4.0733    1.7714 H   0  0  0  0  0  0  0  0  0  0  0  0
   -3.7400   -3.0686    1.3403 C   0  0  0  0  0  0  0  0  0  0  0  0
   -4.4213   -2.4556    1.9354 H   0  0  0  0  0  0  0  0  0  0  0  0
   -4.1206   -3.1385    0.3184 H   0  0  0  0  0  0  0  0  0  0  0  0
   -2.3536   -2.4535    1.3368 C   0  0  0  0  0  0  0  0  0  0  0  0
   -1.3978   -3.0873    1.7534 O   0  0  0  0  0  0  0  0  0  0  0  0
   -2.1607   -1.1745    0.8540 N   0  0  0  0  0  0  0  0  0  0  0  0
   -2.9885   -0.6478    0.5789 H   0  0  0  0  0  0  0  0  0  0  0  0
   -0.8743   -0.4638    0.8919 C   0  0  1  0  0  0  0  0  0  0  0  0
   -0.1851   -0.9562    1.5866 H   0  0  0  0  0  0  0  0  0  0  0  0
   -0.2942   -0.5428   -0.5338 C   0  0  0  0  0  0  0  0  0  0  0  0
   -0.1640   -1.6022   -0.7819 H   0  0  0  0  0  0  0  0  0  0  0  0
   -1.0179   -0.1351   -1.2486 H   0  0  0  0  0  0  0  0  0  0  0  0
    1.0696    0.1581   -0.6888 C   0  0  0  0  0  0  0  0  0  0  0  0
    1.5380    0.3096    0.2897 H   0  0  0  0  0  0  0  0  0  0  0  0
    1.7344   -0.4920   -1.2689 H   0  0  0  0  0  0  0  0  0  0  0  0
    0.9093    1.4943   -1.4298 C   0  0  0  0  0  0  0  0  0  0  0  0
    0.5088    1.3046   -2.4321 H   0  0  0  0  0  0  0  0  0  0  0  0
    0.1912    2.1250   -0.8959 H   0  0  0  0  0  0  0  0  0  0  0  0
    2.2431    2.2256   -1.5359 C   0  0  0  0  0  0  0  0  0  0  0  0
    2.6551    2.3782   -0.5276 H   0  0  0  0  0  0  0  0  0  0  0  0
    2.9601    1.6026   -2.0907 H   0  0  0  0  0  0  0  0  0  0  0  0
    2.0094    3.5168   -2.2181 N   0  3  0  0  0  0  0  0  0  0  0  0
    1.3137    4.0605   -1.7020 H   0  0  0  0  0  0  0  0  0  0  0  0
    2.8784    4.0524   -2.2712 H   0  0  0  0  0  0  0  0  0  0  0  0
    1.6613    3.3526   -3.1649 H   0  0  0  0  0  0  0  0  0  0  0  0
   -1.0504    0.9913    1.3713 C   0  0  0  0  0  0  0  0  0  0  0  0
   -1.8493    1.7278    0.8054 O   0  0  0  0  0  0  0  0  0  0  0  0
   -0.1868    1.5288    2.3095 N   0  0  0  0  0  0  0  0  0  0  0  0
    0.3514    0.8596    2.8560 H   0  0  0  0  0  0  0  0  0  0  0  0
   -0.3839    2.8611    2.8737 C   0  0  0  0  0  0  0  0  0  0  0  0
   -1.3445    2.9174    3.3975 H   0  0  0  0  0  0  0  0  0  0  0  0
    0.4128    3.0923    3.5879 H   0  0  0  0  0  0  0  0  0  0  0  0
   -0.3700    3.6218    2.0862 H   0  0  0  0  0  0  0  0  0  0  0  0
  1  2  1  0  0  0  0
  2  3  1  0  0  0  0
  2  4  1  0  0  0  0
  2  5  1  0  0  0  0
  5  6  2  0  0  0  0
  5  7  1  0  0  0  0
  7  8  1  0  0  0  0
  7  9  1  0  0  0  0
  9 10  1  0  0  0  0
  9 11  1  0  0  0  0
  9 27  1  0  0  0  0
 11 12  1  0  0  0  0
 11 13  1  0  0  0  0
 11 14  1  0  0  0  0
 14 15  1  0  0  0  0
 14 16  1  0  0  0  0
 14 17  1  0  0  0  0
 17 18  1  0  0  0  0
 17 19  1  0  0  0  0
 17 20  1  0  0  0  0
 20 21  1  0  0  0  0
 20 22  1  0  0  0  0
 20 23  1  0  0  0  0
 23 24  1  0  0  0  0
 23 25  1  0  0  0  0
 23 26  1  0  0  0  0
 27 28  2  0  0  0  0
 27 29  1  0  0  0  0
 29 30  1  0  0  0  0
 29 31  1  0  0  0  0
 31 32  1  0  0  0  0
 31 33  1  0  0  0  0
 31 34  1  0  0  0  0
M  CHG  1  23   1
M  END
$$$$

  -OEChem-02102214153D

 34 33  0     1  0  0  0  0  0999 V2000
   -3.6616   -4.1209    1.6813 H   0  0  0  0  0  0  0  0  0  0  0  0
   -3.7160   -3.0979    1.2974 C   0  0  0  0  0  0  0  0  0  0  0  0
   -4.3928   -2.5207    1.9321 H   0  0  0  0  0  0  0  0  0  0  0  0
   -4.1147   -3.1253    0.2806 H   0  0  0  0  0  0  0  0  0  0  0  0
   -2.3372   -2.4657    1.2982 C   0  0  0  0  0  0  0  0  0  0  0  0
   -1.3703   -3.0972    1.6924 O   0  0  0  0  0  0  0  0  0  0  0  0
   -2.1658   -1.1680    0.8585 N   0  0  0  0  0  0  0  0  0  0  0  0
   -3.0026   -0.6456    0.6026 H   0  0  0  0  0  0  0  0  0  0  0  0
   -0.8936   -0.4347    0.9330 C   0  0  1  0  0  0  0  0  0  0  0  0
   -0.2076   -0.9295    1.6286 H   0  0  0  0  0  0  0  0  0  0  0  0
   -0.2855   -0.4862   -0.4852 C   0  0  0  0  0  0  0  0  0  0  0  0
   -0.1374   -1.5423   -0.7385 H   0  0  0  0  0  0  0  0  0  0  0  0
   -1.0043   -0.0833   -1.2072 H   0  0  0  0  0  0  0  0  0  0  0  0
    1.0703    0.2295   -0.6464 C   0  0  0  0  0  0  0  0  0  0  0  0
    1.6541    0.1390    0.2763 H   0  0  0  0  0  0  0  0  0  0  0  0
    1.6290   -0.2834   -1.4373 H   0  0  0  0  0  0  0  0  0  0  0  0
    0.9092    1.7076   -1.0426 C   0  0  0  0  0  0  0  0  0  0  0  0
    0.2639    1.7732   -1.9256 H   0  0  0  0  0  0  0  0  0  0  0  0
    0.4310    2.2698   -0.2370 H   0  0  0  0  0  0  0  0  0  0  0  0
    2.2643    2.3342   -1.3523 C   0  0  0  0  0  0  0  0  0  0  0  0
    2.9062    2.2739   -0.4611 H   0  0  0  0  0  0  0  0  0  0  0  0
    2.7584    1.7599   -2.1498 H   0  0  0  0  0  0  0  0  0  0  0  0
    2.0418    3.7379   -1.7610 N   0  3  0  0  0  0  0  0  0  0  0  0
    1.5531    4.2425   -1.0184 H   0  0  0  0  0  0  0  0  0  0  0  0
    2.9347    4.1995   -1.9465 H   0  0  0  0  0  0  0  0  0  0  0  0
    1.4702    3.7667   -2.6078 H   0  0  0  0  0  0  0  0  0  0  0  0
   -1.1180    0.9956    1.4579 C   0  0  0  0  0  0  0  0  0  0  0  0
   -1.9357    1.7265    0.9123 O   0  0  0  0  0  0  0  0  0  0  0  0
   -0.2811    1.5228    2.4261 N   0  0  0  0  0  0  0  0  0  0  0  0
    0.2747    0.8489    2.9486 H   0  0  0  0  0  0  0  0  0  0  0  0
   -0.5382    2.8165    3.0523 C   0  0  0  0  0  0  0  0  0  0  0  0
   -1.4932    2.7995    3.5888 H   0  0  0  0  0  0  0  0  0  0  0  0
    0.2552    3.0565    3.7672 H   0  0  0  0  0  0  0  0  0  0  0  0
   -0.5743    3.6113    2.3000 H   0  0  0  0  0  0  0  0  0  0  0  0
  1  2  1  0  0  0  0
  2  3  1  0  0  0  0
  2  4  1  0  0  0  0
  2  5  1  0  0  0  0
  5  6  2  0  0  0  0
  5  7  1  0  0  0  0
  7  8  1  0  0  0  0
  7  9  1  0  0  0  0
  9 10  1  0  0  0  0
  9 11  1  0  0  0  0
  9 27  1  0  0  0  0
 11 12  1  0  0  0  0
 11 13  1  0  0  0  0
 11 14  1  0  0  0  0
 14 15  1  0  0  0  0
 14 16  1  0  0  0  0
 14 17  1  0  0  0  0
 17 18  1  0  0  0  0
 17 19  1  0  0  0  0
 17 20  1  0  0  0  0
 20 21  1  0  0  0  0
 20 22  1  0  0  0  0
 20 23  1  0  0  0  0
 23 24  1  0  0  0  0
 23 25  1  0  0  0  0
 23 26  1  0  0  0  0
 27 28  2  0  0  0  0
 27 29  1  0  0  0  0
 29 30  1  0  0  0  0
 29 31  1  0  0  0  0
 31 32  1  0  0  0  0
 31 33  1  0  0  0  0
 31 34  1  0  0  0  0
M  CHG  1  23   1
M  END
$$$$

  -OEChem-02102214153D

 34 33  0     1  0  0  0  0  0999 V2000
   -3.6777   -4.1404    1.4967 H   0  0  0  0  0  0  0  0  0  0  0  0
   -3.7179   -3.1035    1.1507 C   0  0  0  0  0  0  0  0  0  0  0  0
   -4.4401   -2.5572    1.7622 H   0  0  0  0  0  0  0  0  0  0  0  0
   -4.0495   -3.0934    0.1096 H   0  0  0  0  0  0  0  0  0  0  0  0
   -2.3489   -2.4617    1.2661 C   0  0  0  0  0  0  0  0  0  0  0  0
   -1.4063   -3.0956    1.7118 O   0  0  0  0  0  0  0  0  0  0  0  0
   -2.1583   -1.1539    0.8672 N   0  0  0  0  0  0  0  0  0  0  0  0
   -2.9793   -0.6308    0.5656 H   0  0  0  0  0  0  0  0  0  0  0  0
   -0.8938   -0.4204    1.0265 C   0  0  1  0  0  0  0  0  0  0  0  0
   -0.2363   -0.9263    1.7417 H   0  0  0  0  0  0  0  0  0  0  0  0
   -0.2364   -0.4572   -0.3731 C   0  0  0  0  0  0  0  0  0  0  0  0
   -0.0959   -1.5112   -0.6386 H   0  0  0  0  0  0  0  0  0  0  0  0
   -0.9352   -0.0357   -1.1040 H   0  0  0  0  0  0  0  0  0  0  0  0
    1.1288    0.2419   -0.5321 C   0  0  0  0  0  0  0  0  0  0  0  0
    1.8014   -0.0712    0.2741 H   0  0  0  0  0  0  0  0  0  0  0  0
    1.5639   -0.1094   -1.4744 H   0  0  0  0  0  0  0  0  0  0  0  0
    1.0328    1.7771   -0.5738 C   0  0  0  0  0  0  0  0  0  0  0  0
    0.1525    2.0678   -1.1585 H   0  0  0  0  0  0  0  0  0  0  0  0
    0.9163    2.1769    0.4356 H   0  0  0  0  0  0  0  0  0  0  0  0
    2.2838    2.3813   -1.2040 C   0  0  0  0  0  0  0  0  0  0  0  0
    3.1617    2.1238   -0.5935 H   0  0  0  0  0  0  0  0  0  0  0  0
    2.4387    1.9405   -2.1999 H   0  0  0  0  0  0  0  0  0  0  0  0
    2.0981    3.8459   -1.2934 N   0  3  0  0  0  0  0  0  0  0  0  0
    1.9565    4.2370   -0.3602 H   0  0  0  0  0  0  0  0  0  0  0  0
    2.9196    4.2823   -1.7172 H   0  0  0  0  0  0  0  0  0  0  0  0
    1.2772    4.0568   -1.8652 H   0  0  0  0  0  0  0  0  0  0  0  0
   -1.1670    0.9938    1.5732 C   0  0  0  0  0  0  0  0  0  0  0  0
   -1.9367    1.7398    0.9800 O   0  0  0  0  0  0  0  0  0  0  0  0
   -0.3943    1.5058    2.6016 N   0  0  0  0  0  0  0  0  0  0  0  0
    0.1248    0.8228    3.1498 H   0  0  0  0  0  0  0  0  0  0  0  0
   -0.6895    2.7916    3.2273 C   0  0  0  0  0  0  0  0  0  0  0  0
   -1.6783    2.7699    3.6987 H   0  0  0  0  0  0  0  0  0  0  0  0
    0.0555    3.0188    3.9962 H   0  0  0  0  0  0  0  0  0  0  0  0
   -0.6735    3.5971    2.4858 H   0  0  0  0  0  0  0  0  0  0  0  0
  1  2  1  0  0  0  0
  2  3  1  0  0  0  0
  2  4  1  0  0  0  0
  2  5  1  0  0  0  0
  5  6  2  0  0  0  0
  5  7  1  0  0  0  0
  7  8  1  0  0  0  0
  7  9  1  0  0  0  0
  9 10  1  0  0  0  0
  9 11  1  0  0  0  0
  9 27  1  0  0  0  0
 11 12  1  0  0  0  0
 11 13  1  0  0  0  0
 11 14  1  0  0  0  0
 14 15  1  0  0  0  0
 14 16  1  0  0  0  0
 14 17  1  0  0  0  0
 17 18  1  0  0  0  0
 17 19  1  0  0  0  0
 17 20  1  0  0  0  0
 20 21  1  0  0  0  0
 20 22  1  0  0  0  0
 20 23  1  0  0  0  0
 23 24  1  0  0  0  0
 23 25  1  0  0  0  0
 23 26  1  0  0  0  0
 27 28  2  0  0  0  0
 27 29  1  0  0  0  0
 29 30  1  0  0  0  0
 29 31  1  0  0  0  0
 31 32  1  0  0  0  0
 31 33  1  0  0  0  0
 31 34  1  0  0  0  0
M  CHG  1  23   1
M  END
$$$$

  -OEChem-02102214153D

 34 33  0     1  0  0  0  0  0999 V2000
   -3.7223   -4.1213    1.4411 H   0  0  0  0  0  0  0  0  0  0  0  0
   -3.7419   -3.0841    1.0945 C   0  0  0  0  0  0  0  0  0  0  0  0
   -4.4764   -2.5305    1.6844 H   0  0  0  0  0  0  0  0  0  0  0  0
   -4.0428   -3.0705    0.0442 H   0  0  0  0  0  0  0  0  0  0  0  0
   -2.3703   -2.4561    1.2506 C   0  0  0  0  0  0  0  0  0  0  0  0
   -1.4455   -3.1010    1.7171 O   0  0  0  0  0  0  0  0  0  0  0  0
   -2.1582   -1.1457    0.8718 N   0  0  0  0  0  0  0  0  0  0  0  0
   -2.9658   -0.6134    0.5504 H   0  0  0  0  0  0  0  0  0  0  0  0
   -0.8945   -0.4218    1.0776 C   0  0  1  0  0  0  0  0  0  0  0  0
   -0.2582   -0.9345    1.8071 H   0  0  0  0  0  0  0  0  0  0  0  0
   -0.2084   -0.4630   -0.3118 C   0  0  0  0  0  0  0  0  0  0  0  0
   -0.0922   -1.5164   -0.5913 H   0  0  0  0  0  0  0  0  0  0  0  0
   -0.8938   -0.0137   -1.0390 H   0  0  0  0  0  0  0  0  0  0  0  0
    1.1691    0.2088   -0.4923 C   0  0  0  0  0  0  0  0  0  0  0  0
    1.9005   -0.2953    0.1493 H   0  0  0  0  0  0  0  0  0  0  0  0
    1.4753    0.0370   -1.5304 H   0  0  0  0  0  0  0  0  0  0  0  0
    1.1988    1.7170   -0.2025 C   0  0  0  0  0  0  0  0  0  0  0  0
    0.2620    2.1679   -0.5490 H   0  0  0  0  0  0  0  0  0  0  0  0
    1.2928    1.8900    0.8722 H   0  0  0  0  0  0  0  0  0  0  0  0
    2.3693    2.3824   -0.9202 C   0  0  0  0  0  0  0  0  0  0  0  0
    3.3162    1.9770   -0.5341 H   0  0  0  0  0  0  0  0  0  0  0  0
    2.3228    2.1376   -1.9916 H   0  0  0  0  0  0  0  0  0  0  0  0
    2.2764    3.8426   -0.7069 N   0  3  0  0  0  0  0  0  0  0  0  0
    2.3633    4.0565    0.2881 H   0  0  0  0  0  0  0  0  0  0  0  0
    3.0200    4.3230   -1.2178 H   0  0  0  0  0  0  0  0  0  0  0  0
    1.3712    4.1833   -1.0387 H   0  0  0  0  0  0  0  0  0  0  0  0
   -1.2015    0.9845    1.6301 C   0  0  0  0  0  0  0  0  0  0  0  0
   -1.9621    1.7268    1.0212 O   0  0  0  0  0  0  0  0  0  0  0  0
   -0.4757    1.4959    2.6925 N   0  0  0  0  0  0  0  0  0  0  0  0
    0.0251    0.8106    3.2548 H   0  0  0  0  0  0  0  0  0  0  0  0
   -0.8296    2.7610    3.3303 C   0  0  0  0  0  0  0  0  0  0  0  0
   -1.8355    2.7044    3.7609 H   0  0  0  0  0  0  0  0  0  0  0  0
   -0.1226    2.9919    4.1334 H   0  0  0  0  0  0  0  0  0  0  0  0
   -0.8059    3.5813    2.6053 H   0  0  0  0  0  0  0  0  0  0  0  0
  1  2  1  0  0  0  0
  2  3  1  0  0  0  0
  2  4  1  0  0  0  0
  2  5  1  0  0  0  0
  5  6  2  0  0  0  0
  5  7  1  0  0  0  0
  7  8  1  0  0  0  0
  7  9  1  0  0  0  0
  9 10  1  0  0  0  0
  9 11  1  0  0  0  0
  9 27  1  0  0  0  0
 11 12  1  0  0  0  0
 11 13  1  0  0  0  0
 11 14  1  0  0  0  0
 14 15  1  0  0  0  0
 14 16  1  0  0  0  0
 14 17  1  0  0  0  0
 17 18  1  0  0  0  0
 17 19  1  0  0  0  0
 17 20  1  0  0  0  0
 20 21  1  0  0  0  0
 20 22  1  0  0  0  0
 20 23  1  0  0  0  0
 23 24  1  0  0  0  0
 23 25  1  0  0  0  0
 23 26  1  0  0  0  0
 27 28  2  0  0  0  0
 27 29  1  0  0  0  0
 29 30  1  0  0  0  0
 29 31  1  0  0  0  0
 31 32  1  0  0  0  0
 31 33  1  0  0  0  0
 31 34  1  0  0  0  0
M  CHG  1  23   1
M  END
$$$$

  -OEChem-02102214153D

 34 33  0     1  0  0  0  0  0999 V2000
   -3.7271   -4.1419    1.4415 H   0  0  0  0  0  0  0  0  0  0  0  0
   -3.7475   -3.1067    1.0891 C   0  0  0  0  0  0  0  0  0  0  0  0
   -4.4977   -2.5561    1.6617 H   0  0  0  0  0  0  0  0  0  0  0  0
   -4.0273   -3.1006    0.0329 H   0  0  0  0  0  0  0  0  0  0  0  0
   -2.3836   -2.4679    1.2680 C   0  0  0  0  0  0  0  0  0  0  0  0
   -1.4610   -3.1057    1.7490 O   0  0  0  0  0  0  0  0  0  0  0  0
   -2.1752   -1.1555    0.8937 N   0  0  0  0  0  0  0  0  0  0  0  0
   -2.9807   -0.6273    0.5598 H   0  0  0  0  0  0  0  0  0  0  0  0
   -0.9136   -0.4290    1.1038 C   0  0  1  0  0  0  0  0  0  0  0  0
   -0.2702   -0.9390    1.8285 H   0  0  0  0  0  0  0  0  0  0  0  0
   -0.2408   -0.4615   -0.2951 C   0  0  0  0  0  0  0  0  0  0  0  0
   -0.1459   -1.5106   -0.5981 H   0  0  0  0  0  0  0  0  0  0  0  0
   -0.9382    0.0101   -0.9969 H   0  0  0  0  0  0  0  0  0  0  0  0
    1.1361    0.2028   -0.5216 C   0  0  0  0  0  0  0  0  0  0  0  0
    1.9062   -0.4556   -0.1044 H   0  0  0  0  0  0  0  0  0  0  0  0
    1.2994    0.2456   -1.6044 H   0  0  0  0  0  0  0  0  0  0  0  0
    1.3298    1.6024    0.0725 C   0  0  0  0  0  0  0  0  0  0  0  0
    0.4368    2.2050   -0.1276 H   0  0  0  0  0  0  0  0  0  0  0  0
    1.4772    1.5294    1.1529 H   0  0  0  0  0  0  0  0  0  0  0  0
    2.5426    2.2827   -0.5559 C   0  0  0  0  0  0  0  0  0  0  0  0
    3.4516    1.7156   -0.3068 H   0  0  0  0  0  0  0  0  0  0  0  0
    2.4385    2.2659   -1.6508 H   0  0  0  0  0  0  0  0  0  0  0  0
    2.6160    3.6715   -0.0540 N   0  3  0  0  0  0  0  0  0  0  0  0
    2.7550    3.6706    0.9579 H   0  0  0  0  0  0  0  0  0  0  0  0
    3.3933    4.1662   -0.4971 H   0  0  0  0  0  0  0  0  0  0  0  0
    1.7447    4.1627   -0.2674 H   0  0  0  0  0  0  0  0  0  0  0  0
   -1.2488    0.9706    1.6610 C   0  0  0  0  0  0  0  0  0  0  0  0
   -2.0149    1.7020    1.0464 O   0  0  0  0  0  0  0  0  0  0  0  0
   -0.5430    1.4954    2.7310 N   0  0  0  0  0  0  0  0  0  0  0  0
   -0.0545    0.8140    3.3085 H   0  0  0  0  0  0  0  0  0  0  0  0
   -0.9310    2.7547    3.3612 C   0  0  0  0  0  0  0  0  0  0  0  0
   -1.9465    2.6839    3.7666 H   0  0  0  0  0  0  0  0  0  0  0  0
   -0.2480    2.9955    4.1818 H   0  0  0  0  0  0  0  0  0  0  0  0
   -0.9015    3.5757    2.6372 H   0  0  0  0  0  0  0  0  0  0  0  0
  1  2  1  0  0  0  0
  2  3  1  0  0  0  0
  2  4  1  0  0  0  0
  2  5  1  0  0  0  0
  5  6  2  0  0  0  0
  5  7  1  0  0  0  0
  7  8  1  0  0  0  0
  7  9  1  0  0  0  0
  9 10  1  0  0  0  0
  9 11  1  0  0  0  0
  9 27  1  0  0  0  0
 11 12  1  0  0  0  0
 11 13  1  0  0  0  0
 11 14  1  0  0  0  0
 14 15  1  0  0  0  0
 14 16  1  0  0  0  0
 14 17  1  0  0  0  0
 17 18  1  0  0  0  0
 17 19  1  0  0  0  0
 17 20  1  0  0  0  0
 20 21  1  0  0  0  0
 20 22  1  0  0  0  0
 20 23  1  0  0  0  0
 23 24  1  0  0  0  0
 23 25  1  0  0  0  0
 23 26  1  0  0  0  0
 27 28  2  0  0  0  0
 27 29  1  0  0  0  0
 29 30  1  0  0  0  0
 29 31  1  0  0  0  0
 31 32  1  0  0  0  0
 31 33  1  0  0  0  0
 31 34  1  0  0  0  0
M  CHG  1  23   1
M  END
$$$$

  -OEChem-02102214153D

 34 33  0     1  0  0  0  0  0999 V2000
   -3.7121   -4.1671    1.4705 H   0  0  0  0  0  0  0  0  0  0  0  0
   -3.7421   -3.1354    1.1085 C   0  0  0  0  0  0  0  0  0  0  0  0
   -4.5025   -2.5877    1.6706 H   0  0  0  0  0  0  0  0  0  0  0  0
   -4.0152   -3.1425    0.0504 H   0  0  0  0  0  0  0  0  0  0  0  0
   -2.3873   -2.4790    1.2916 C   0  0  0  0  0  0  0  0  0  0  0  0
   -1.4637   -3.0982    1.7949 O   0  0  0  0  0  0  0  0  0  0  0  0
   -2.1884   -1.1701    0.9014 N   0  0  0  0  0  0  0  0  0  0  0  0
   -2.9933   -0.6553    0.5454 H   0  0  0  0  0  0  0  0  0  0  0  0
   -0.9344   -0.4307    1.1100 C   0  0  1  0  0  0  0  0  0  0  0  0
   -0.2875   -0.9255    1.8419 H   0  0  0  0  0  0  0  0  0  0  0  0
   -0.2614   -0.4621   -0.2895 C   0  0  0  0  0  0  0  0  0  0  0  0
   -0.1686   -1.5097   -0.5977 H   0  0  0  0  0  0  0  0  0  0  0  0
   -0.9654    0.0101   -0.9844 H   0  0  0  0  0  0  0  0  0  0  0  0
    1.1110    0.2094   -0.5356 C   0  0  0  0  0  0  0  0  0  0  0  0
    1.8834   -0.5474   -0.3572 H   0  0  0  0  0  0  0  0  0  0  0  0
    1.1619    0.4755   -1.5977 H   0  0  0  0  0  0  0  0  0  0  0  0
    1.4639    1.4368    0.3090 C   0  0  0  0  0  0  0  0  0  0  0  0
    0.6551    2.1716    0.2334 H   0  0  0  0  0  0  0  0  0  0  0  0
    1.5864    1.1420    1.3552 H   0  0  0  0  0  0  0  0  0  0  0  0
    2.7580    2.0653   -0.2005 C   0  0  0  0  0  0  0  0  0  0  0  0
    3.5813    1.3437   -0.0944 H   0  0  0  0  0  0  0  0  0  0  0  0
    2.6537    2.2833   -1.2736 H   0  0  0  0  0  0  0  0  0  0  0  0
    3.0213    3.3018    0.5662 N   0  3  0  0  0  0  0  0  0  0  0  0
    3.1411    3.0810    1.5561 H   0  0  0  0  0  0  0  0  0  0  0  0
    3.8699    3.7560    0.2215 H   0  0  0  0  0  0  0  0  0  0  0  0
    2.2348    3.9470    0.4636 H   0  0  0  0  0  0  0  0  0  0  0  0
   -1.2977    0.9708    1.6468 C   0  0  0  0  0  0  0  0  0  0  0  0
   -2.0743    1.6786    1.0192 O   0  0  0  0  0  0  0  0  0  0  0  0
   -0.6119    1.5223    2.7170 N   0  0  0  0  0  0  0  0  0  0  0  0
   -0.1363    0.8524    3.3176 H   0  0  0  0  0  0  0  0  0  0  0  0
   -1.0319    2.7843    3.3215 C   0  0  0  0  0  0  0  0  0  0  0  0
   -2.0569    2.7045    3.7004 H   0  0  0  0  0  0  0  0  0  0  0  0
   -0.3747    3.0441    4.1571 H   0  0  0  0  0  0  0  0  0  0  0  0
   -0.9939    3.5969    2.5883 H   0  0  0  0  0  0  0  0  0  0  0  0
  1  2  1  0  0  0  0
  2  3  1  0  0  0  0
  2  4  1  0  0  0  0
  2  5  1  0  0  0  0
  5  6  2  0  0  0  0
  5  7  1  0  0  0  0
  7  8  1  0  0  0  0
  7  9  1  0  0  0  0
  9 10  1  0  0  0  0
  9 11  1  0  0  0  0
  9 27  1  0  0  0  0
 11 12  1  0  0  0  0
 11 13  1  0  0  0  0
 11 14  1  0  0  0  0
 14 15  1  0  0  0  0
 14 16  1  0  0  0  0
 14 17  1  0  0  0  0
 17 18  1  0  0  0  0
 17 19  1  0  0  0  0
 17 20  1  0  0  0  0
 20 21  1  0  0  0  0
 20 22  1  0  0  0  0
 20 23  1  0  0  0  0
 23 24  1  0  0  0  0
 23 25  1  0  0  0  0
 23 26  1  0  0  0  0
 27 28  2  0  0  0  0
 27 29  1  0  0  0  0
 29 30  1  0  0  0  0
 29 31  1  0  0  0  0
 31 32  1  0  0  0  0
 31 33  1  0  0  0  0
 31 34  1  0  0  0  0
M  CHG  1  23   1
M  END
$$$$

  -OEChem-02102214153D

 34 33  0     1  0  0  0  0  0999 V2000
   -3.7008   -4.1856    1.4719 H   0  0  0  0  0  0  0  0  0  0  0  0
   -3.7375   -3.1537    1.1115 C   0  0  0  0  0  0  0  0  0  0  0  0
   -4.5106   -2.6150    1.6647 H   0  0  0  0  0  0  0  0  0  0  0  0
   -3.9968   -3.1614    0.0501 H   0  0  0  0  0  0  0  0  0  0  0  0
   -2.3920   -2.4835    1.3117 C   0  0  0  0  0  0  0  0  0  0  0  0
   -1.4713   -3.0876    1.8389 O   0  0  0  0  0  0  0  0  0  0  0  0
   -2.1973   -1.1792    0.9045 N   0  0  0  0  0  0  0  0  0  0  0  0
   -3.0010   -0.6757    0.5293 H   0  0  0  0  0  0  0  0  0  0  0  0
   -0.9509   -0.4277    1.1143 C   0  0  1  0  0  0  0  0  0  0  0  0
   -0.3054   -0.9098    1.8555 H   0  0  0  0  0  0  0  0  0  0  0  0
   -0.2710   -0.4642   -0.2810 C   0  0  0  0  0  0  0  0  0  0  0  0
   -0.1674   -1.5149   -0.5759 H   0  0  0  0  0  0  0  0  0  0  0  0
   -0.9765   -0.0099   -0.9866 H   0  0  0  0  0  0  0  0  0  0  0  0
    1.0979    0.2169   -0.5289 C   0  0  0  0  0  0  0  0  0  0  0  0
    1.8435   -0.5827   -0.6075 H   0  0  0  0  0  0  0  0  0  0  0  0
    1.0559    0.7104   -1.5068 H   0  0  0  0  0  0  0  0  0  0  0  0
    1.6047    1.2189    0.5127 C   0  0  0  0  0  0  0  0  0  0  0  0
    0.9058    2.0594    0.5720 H   0  0  0  0  0  0  0  0  0  0  0  0
    1.6725    0.7367    1.4930 H   0  0  0  0  0  0  0  0  0  0  0  0
    2.9781    1.7418    0.0967 C   0  0  0  0  0  0  0  0  0  0  0  0
    3.6931    0.9062    0.0675 H   0  0  0  0  0  0  0  0  0  0  0  0
    2.9137    2.1480   -0.9237 H   0  0  0  0  0  0  0  0  0  0  0  0
    3.4077    2.7839    1.0536 N   0  3  0  0  0  0  0  0  0  0  0  0
    3.5006    2.3840    1.9888 H   0  0  0  0  0  0  0  0  0  0  0  0
    4.3089    3.1734    0.7680 H   0  0  0  0  0  0  0  0  0  0  0  0
    2.7155    3.5355    1.0808 H   0  0  0  0  0  0  0  0  0  0  0  0
   -1.3256    0.9797    1.6265 C   0  0  0  0  0  0  0  0  0  0  0  0
   -2.1031    1.6704    0.9821 O   0  0  0  0  0  0  0  0  0  0  0  0
   -0.6523    1.5511    2.6946 N   0  0  0  0  0  0  0  0  0  0  0  0
   -0.2036    0.8899    3.3243 H   0  0  0  0  0  0  0  0  0  0  0  0
   -1.0728    2.8325    3.2574 C   0  0  0  0  0  0  0  0  0  0  0  0
   -2.1061    2.7727    3.6170 H   0  0  0  0  0  0  0  0  0  0  0  0
   -0.4302    3.1089    4.0990 H   0  0  0  0  0  0  0  0  0  0  0  0
   -1.0125    3.6250    2.5035 H   0  0  0  0  0  0  0  0  0  0  0  0
  1  2  1  0  0  0  0
  2  3  1  0  0  0  0
  2  4  1  0  0  0  0
  2  5  1  0  0  0  0
  5  6  2  0  0  0  0
  5  7  1  0  0  0  0
  7  8  1  0  0  0  0
  7  9  1  0  0  0  0
  9 10  1  0  0  0  0
  9 11  1  0  0  0  0
  9 27  1  0  0  0  0
 11 12  1  0  0  0  0
 11 13  1  0  0  0  0
 11 14  1  0  0  0  0
 14 15  1  0  0  0  0
 14 16  1  0  0  0  0
 14 17  1  0  0  0  0
 17 18  1  0  0  0  0
 17 19  1  0  0  0  0
 17 20  1  0  0  0  0
 20 21  1  0  0  0  0
 20 22  1  0  0  0  0
 20 23  1  0  0  0  0
 23 24  1  0  0  0  0
 23 25  1  0  0  0  0
 23 26  1  0  0  0  0
 27 28  2  0  0  0  0
 27 29  1  0  0  0  0
 29 30  1  0  0  0  0
 29 31  1  0  0  0  0
 31 32  1  0  0  0  0
 31 33  1  0  0  0  0
 31 34  1  0  0  0  0
M  CHG  1  23   1
M  END
$$$$

  -OEChem-02102214153D

 34 33  0     1  0  0  0  0  0999 V2000
   -3.6906   -4.1900    1.4837 H   0  0  0  0  0  0  0  0  0  0  0  0
   -3.7321   -3.1598    1.1190 C   0  0  0  0  0  0  0  0  0  0  0  0
   -4.5135   -2.6249    1.6642 H   0  0  0  0  0  0  0  0  0  0  0  0
   -3.9835   -3.1739    0.0557 H   0  0  0  0  0  0  0  0  0  0  0  0
   -2.3936   -2.4782    1.3269 C   0  0  0  0  0  0  0  0  0  0  0  0
   -1.4769   -3.0682    1.8769 O   0  0  0  0  0  0  0  0  0  0  0  0
   -2.1986   -1.1809    0.8983 N   0  0  0  0  0  0  0  0  0  0  0  0
   -2.9974   -0.6884    0.4990 H   0  0  0  0  0  0  0  0  0  0  0  0
   -0.9584   -0.4205    1.1114 C   0  0  1  0  0  0  0  0  0  0  0  0
   -0.3204   -0.8899    1.8666 H   0  0  0  0  0  0  0  0  0  0  0  0
   -0.2663   -0.4674   -0.2760 C   0  0  0  0  0  0  0  0  0  0  0  0
   -0.1412   -1.5243   -0.5388 H   0  0  0  0  0  0  0  0  0  0  0  0
   -0.9670   -0.0462   -1.0067 H   0  0  0  0  0  0  0  0  0  0  0  0
    1.1010    0.2208   -0.5121 C   0  0  0  0  0  0  0  0  0  0  0  0
    1.7932   -0.5545   -0.8603 H   0  0  0  0  0  0  0  0  0  0  0  0
    0.9819    0.9334   -1.3365 H   0  0  0  0  0  0  0  0  0  0  0  0
    1.7543    0.9523    0.6660 C   0  0  0  0  0  0  0  0  0  0  0  0
    1.1765    1.8520    0.8950 H   0  0  0  0  0  0  0  0  0  0  0  0
    1.7753    0.3030    1.5473 H   0  0  0  0  0  0  0  0  0  0  0  0
    3.1771    1.3603    0.2875 C   0  0  0  0  0  0  0  0  0  0  0  0
    3.7693    0.4581    0.0739 H   0  0  0  0  0  0  0  0  0  0  0  0
    3.1456    1.9530   -0.6388 H   0  0  0  0  0  0  0  0  0  0  0  0
    3.7715    2.1408    1.3941 N   0  3  0  0  0  0  0  0  0  0  0  0
    3.8302    1.5654    2.2362 H   0  0  0  0  0  0  0  0  0  0  0  0
    4.7118    2.4521    1.1392 H   0  0  0  0  0  0  0  0  0  0  0  0
    3.1935    2.9606    1.5904 H   0  0  0  0  0  0  0  0  0  0  0  0
   -1.3357    0.9974    1.5927 C   0  0  0  0  0  0  0  0  0  0  0  0
   -2.1113    1.6727    0.9305 O   0  0  0  0  0  0  0  0  0  0  0  0
   -0.6738    1.5875    2.6579 N   0  0  0  0  0  0  0  0  0  0  0  0
   -0.2402    0.9397    3.3107 H   0  0  0  0  0  0  0  0  0  0  0  0
   -1.0777    2.8934    3.1754 C   0  0  0  0  0  0  0  0  0  0  0  0
   -2.1183    2.8661    3.5175 H   0  0  0  0  0  0  0  0  0  0  0  0
   -0.4446    3.1815    4.0202 H   0  0  0  0  0  0  0  0  0  0  0  0
   -0.9867    3.6618    2.4001 H   0  0  0  0  0  0  0  0  0  0  0  0
  1  2  1  0  0  0  0
  2  3  1  0  0  0  0
  2  4  1  0  0  0  0
  2  5  1  0  0  0  0
  5  6  2  0  0  0  0
  5  7  1  0  0  0  0
  7  8  1  0  0  0  0
  7  9  1  0  0  0  0
  9 10  1  0  0  0  0
  9 11  1  0  0  0  0
  9 27  1  0  0  0  0
 11 12  1  0  0  0  0
 11 13  1  0  0  0  0
 11 14  1  0  0  0  0
 14 15  1  0  0  0  0
 14 16  1  0  0  0  0
 14 17  1  0  0  0  0
 17 18  1  0  0  0  0
 17 19  1  0  0  0  0
 17 20  1  0  0  0  0
 20 21  1  0  0  0  0
 20 22  1  0  0  0  0
 20 23  1  0  0  0  0
 23 24  1  0  0  0  0
 23 25  1  0  0  0  0
 23 26  1  0  0  0  0
 27 28  2  0  0  0  0
 27 29  1  0  0  0  0
 29 30  1  0  0  0  0
 29 31  1  0  0  0  0
 31 32  1  0  0  0  0
 31 33  1  0  0  0  0
 31 34  1  0  0  0  0
M  CHG  1  23   1
M  END
$$$$

  -OEChem-02102214153D

 34 33  0     1  0  0  0  0  0999 V2000
   -3.7157   -4.1519    1.5347 H   0  0  0  0  0  0  0  0  0  0  0  0
   -3.7401   -3.1327    1.1388 C   0  0  0  0  0  0  0  0  0  0  0  0
   -4.5154   -2.5699    1.6644 H   0  0  0  0  0  0  0  0  0  0  0  0
   -3.9878   -3.1749    0.0753 H   0  0  0  0  0  0  0  0  0  0  0  0
   -2.3920   -2.4651    1.3315 C   0  0  0  0  0  0  0  0  0  0  0  0
   -1.4803   -3.0575    1.8882 O   0  0  0  0  0  0  0  0  0  0  0  0
   -2.1834   -1.1764    0.8845 N   0  0  0  0  0  0  0  0  0  0  0  0
   -2.9808   -0.6769    0.4906 H   0  0  0  0  0  0  0  0  0  0  0  0
   -0.9403   -0.4215    1.0989 C   0  0  1  0  0  0  0  0  0  0  0  0
   -0.3101   -0.8848    1.8638 H   0  0  0  0  0  0  0  0  0  0  0  0
   -0.2431   -0.4615   -0.2840 C   0  0  0  0  0  0  0  0  0  0  0  0
   -0.1029   -1.5200   -0.5315 H   0  0  0  0  0  0  0  0  0  0  0  0
   -0.9348   -0.0546   -1.0311 H   0  0  0  0  0  0  0  0  0  0  0  0
    1.1255    0.2277   -0.4947 C   0  0  0  0  0  0  0  0  0  0  0  0
    1.7363   -0.4421   -1.1108 H   0  0  0  0  0  0  0  0  0  0  0  0
    0.9543    1.1359   -1.0843 H   0  0  0  0  0  0  0  0  0  0  0  0
    1.9197    0.6270    0.7559 C   0  0  0  0  0  0  0  0  0  0  0  0
    1.4467    1.4850    1.2377 H   0  0  0  0  0  0  0  0  0  0  0  0
    1.9465   -0.2097    1.4621 H   0  0  0  0  0  0  0  0  0  0  0  0
    3.3427    1.0060    0.3469 C   0  0  0  0  0  0  0  0  0  0  0  0
    3.8164    0.1467   -0.1504 H   0  0  0  0  0  0  0  0  0  0  0  0
    3.3001    1.8223   -0.3895 H   0  0  0  0  0  0  0  0  0  0  0  0
    4.1080    1.4130    1.5449 N   0  3  0  0  0  0  0  0  0  0  0  0
    4.1430    0.6431    2.2158 H   0  0  0  0  0  0  0  0  0  0  0  0
    5.0633    1.6656    1.2812 H   0  0  0  0  0  0  0  0  0  0  0  0
    3.6624    2.2199    1.9860 H   0  0  0  0  0  0  0  0  0  0  0  0
   -1.3187    1.0052    1.5533 C   0  0  0  0  0  0  0  0  0  0  0  0
   -2.1087    1.6588    0.8861 O   0  0  0  0  0  0  0  0  0  0  0  0
   -0.6713    1.6150    2.6150 N   0  0  0  0  0  0  0  0  0  0  0  0
   -0.2337    0.9835    3.2803 H   0  0  0  0  0  0  0  0  0  0  0  0
   -1.0777    2.9315    3.1020 C   0  0  0  0  0  0  0  0  0  0  0  0
   -2.1223    2.9137    3.4318 H   0  0  0  0  0  0  0  0  0  0  0  0
   -0.4534    3.2343    3.9481 H   0  0  0  0  0  0  0  0  0  0  0  0
   -0.9748    3.6840    2.3127 H   0  0  0  0  0  0  0  0  0  0  0  0
  1  2  1  0  0  0  0
  2  3  1  0  0  0  0
  2  4  1  0  0  0  0
  2  5  1  0  0  0  0
  5  6  2  0  0  0  0
  5  7  1  0  0  0  0
  7  8  1  0  0  0  0
  7  9  1  0  0  0  0
  9 10  1  0  0  0  0
  9 11  1  0  0  0  0
  9 27  1  0  0  0  0
 11 12  1  0  0  0  0
 11 13  1  0  0  0  0
 11 14  1  0  0  0  0
 14 15  1  0  0  0  0
 14 16  1  0  0  0  0
 14 17  1  0  0  0  0
 17 18  1  0  0  0  0
 17 19  1  0  0  0  0
 17 20  1  0  0  0  0
 20 21  1  0  0  0  0
 20 22  1  0  0  0  0
 20 23  1  0  0  0  0
 23 24  1  0  0  0  0
 23 25  1  0  0  0  0
 23 26  1  0  0  0  0
 27 28  2  0  0  0  0
 27 29  1  0  0  0  0
 29 30  1  0  0  0  0
 29 31  1  0  0  0  0
 31 32  1  0  0  0  0
 31 33  1  0  0  0  0
 31 34  1  0  0  0  0
M  CHG  1  23   1
M  END
$$$$

  -OEChem-02102214153D

 34 33  0     1  0  0  0  0  0999 V2000
   -3.7245   -4.1165    1.6113 H   0  0  0  0  0  0  0  0  0  0  0  0
   -3.7399   -3.1092    1.1857 C   0  0  0  0  0  0  0  0  0  0  0  0
   -4.4994   -2.5197    1.7049 H   0  0  0  0  0  0  0  0  0  0  0  0
   -4.0030   -3.1789    0.1274 H   0  0  0  0  0  0  0  0  0  0  0  0
   -2.3805   -2.4556    1.3407 C   0  0  0  0  0  0  0  0  0  0  0  0
   -1.4634   -3.0528    1.8837 O   0  0  0  0  0  0  0  0  0  0  0  0
   -2.1662   -1.1752    0.8730 N   0  0  0  0  0  0  0  0  0  0  0  0
   -2.9654   -0.6696    0.4902 H   0  0  0  0  0  0  0  0  0  0  0  0
   -0.9138   -0.4313    1.0644 C   0  0  1  0  0  0  0  0  0  0  0  0
   -0.2799   -0.8941    1.8264 H   0  0  0  0  0  0  0  0  0  0  0  0
   -0.2291   -0.4685   -0.3217 C   0  0  0  0  0  0  0  0  0  0  0  0
   -0.0863   -1.5255   -0.5736 H   0  0  0  0  0  0  0  0  0  0  0  0
   -0.9160   -0.0546   -1.0693 H   0  0  0  0  0  0  0  0  0  0  0  0
    1.1387    0.2239   -0.4976 C   0  0  0  0  0  0  0  0  0  0  0  0
    1.6632   -0.2757   -1.3200 H   0  0  0  0  0  0  0  0  0  0  0  0
    0.9542    1.2577   -0.8123 H   0  0  0  0  0  0  0  0  0  0  0  0
    2.0387    0.2614    0.7464 C   0  0  0  0  0  0  0  0  0  0  0  0
    1.6284    0.9383    1.4974 H   0  0  0  0  0  0  0  0  0  0  0  0
    2.0977   -0.7440    1.1780 H   0  0  0  0  0  0  0  0  0  0  0  0
    3.4350    0.7358    0.3454 C   0  0  0  0  0  0  0  0  0  0  0  0
    3.8149    0.0931   -0.4627 H   0  0  0  0  0  0  0  0  0  0  0  0
    3.3671    1.7567   -0.0593 H   0  0  0  0  0  0  0  0  0  0  0  0
    4.3298    0.6858    1.5221 N   0  3  0  0  0  0  0  0  0  0  0  0
    4.3739   -0.2681    1.8868 H   0  0  0  0  0  0  0  0  0  0  0  0
    5.2724    0.9824    1.2586 H   0  0  0  0  0  0  0  0  0  0  0  0
    3.9807    1.3063    2.2545 H   0  0  0  0  0  0  0  0  0  0  0  0
   -1.2629    1.0082    1.5038 C   0  0  0  0  0  0  0  0  0  0  0  0
   -2.0573    1.6607    0.8405 O   0  0  0  0  0  0  0  0  0  0  0  0
   -0.5948    1.6253    2.5477 N   0  0  0  0  0  0  0  0  0  0  0  0
   -0.1542    1.0019    3.2179 H   0  0  0  0  0  0  0  0  0  0  0  0
   -0.9645    2.9617    3.0093 C   0  0  0  0  0  0  0  0  0  0  0  0
   -2.0062    2.9771    3.3486 H   0  0  0  0  0  0  0  0  0  0  0  0
   -0.3252    3.2680    3.8429 H   0  0  0  0  0  0  0  0  0  0  0  0
   -0.8496    3.6938    2.2025 H   0  0  0  0  0  0  0  0  0  0  0  0
  1  2  1  0  0  0  0
  2  3  1  0  0  0  0
  2  4  1  0  0  0  0
  2  5  1  0  0  0  0
  5  6  2  0  0  0  0
  5  7  1  0  0  0  0
  7  8  1  0  0  0  0
  7  9  1  0  0  0  0
  9 10  1  0  0  0  0
  9 11  1  0  0  0  0
  9 27  1  0  0  0  0
 11 12  1  0  0  0  0
 11 13  1  0  0  0  0
 11 14  1  0  0  0  0
 14 15  1  0  0  0  0
 14 16  1  0  0  0  0
 14 17  1  0  0  0  0
 17 18  1  0  0  0  0
 17 19  1  0  0  0  0
 17 20  1  0  0  0  0
 20 21  1  0  0  0  0
 20 22  1  0  0  0  0
 20 23  1  0  0  0  0
 23 24  1  0  0  0  0
 23 25  1  0  0  0  0
 23 26  1  0  0  0  0
 27 28  2  0  0  0  0
 27 29  1  0  0  0  0
 29 30  1  0  0  0  0
 29 31  1  0  0  0  0
 31 32  1  0  0  0  0
 31 33  1  0  0  0  0
 31 34  1  0  0  0  0
M  CHG  1  23   1
M  END
$$$$

  -OEChem-02102214153D

 34 33  0     1  0  0  0  0  0999 V2000
   -3.7021   -4.1171    1.6670 H   0  0  0  0  0  0  0  0  0  0  0  0
   -3.7299   -3.1093    1.2430 C   0  0  0  0  0  0  0  0  0  0  0  0
   -4.4690   -2.5184    1.7896 H   0  0  0  0  0  0  0  0  0  0  0  0
   -4.0313   -3.1773    0.1949 H   0  0  0  0  0  0  0  0  0  0  0  0
   -2.3635   -2.4597    1.3493 C   0  0  0  0  0  0  0  0  0  0  0  0
   -1.4304   -3.0592    1.8624 O   0  0  0  0  0  0  0  0  0  0  0  0
   -2.1586   -1.1839    0.8644 N   0  0  0  0  0  0  0  0  0  0  0  0
   -2.9680   -0.6780    0.5042 H   0  0  0  0  0  0  0  0  0  0  0  0
   -0.8985   -0.4428    1.0098 C   0  0  1  0  0  0  0  0  0  0  0  0
   -0.2553   -0.9079    1.7625 H   0  0  0  0  0  0  0  0  0  0  0  0
   -0.2276   -0.4858   -0.3796 C   0  0  0  0  0  0  0  0  0  0  0  0
   -0.0848   -1.5390   -0.6454 H   0  0  0  0  0  0  0  0  0  0  0  0
   -0.9130   -0.0576   -1.1203 H   0  0  0  0  0  0  0  0  0  0  0  0
    1.1329    0.2233   -0.5153 C   0  0  0  0  0  0  0  0  0  0  0  0
    1.5774   -0.0788   -1.4702 H   0  0  0  0  0  0  0  0  0  0  0  0
    0.9602    1.3048   -0.5635 H   0  0  0  0  0  0  0  0  0  0  0  0
    2.1118   -0.0719    0.6318 C   0  0  0  0  0  0  0  0  0  0  0  0
    1.7618    0.3841    1.5615 H   0  0  0  0  0  0  0  0  0  0  0  0
    2.1681   -1.1563    0.7812 H   0  0  0  0  0  0  0  0  0  0  0  0
    3.4944    0.4748    0.2794 C   0  0  0  0  0  0  0  0  0  0  0  0
    3.7990    0.0781   -0.7006 H   0  0  0  0  0  0  0  0  0  0  0  0
    3.4364    1.5690    0.1804 H   0  0  0  0  0  0  0  0  0  0  0  0
    4.4598    0.0809    1.3289 N   0  3  0  0  0  0  0  0  0  0  0  0
    4.4950   -0.9380    1.4060 H   0  0  0  0  0  0  0  0  0  0  0  0
    5.3933    0.4266    1.0946 H   0  0  0  0  0  0  0  0  0  0  0  0
    4.1786    0.4720    2.2295 H   0  0  0  0  0  0  0  0  0  0  0  0
   -1.1957    1.0077    1.4473 C   0  0  0  0  0  0  0  0  0  0  0  0
   -2.0104    1.6689    0.8186 O   0  0  0  0  0  0  0  0  0  0  0  0
   -0.4700    1.6138    2.4584 N   0  0  0  0  0  0  0  0  0  0  0  0
   -0.0002    0.9888    3.1062 H   0  0  0  0  0  0  0  0  0  0  0  0
   -0.7813    2.9643    2.9220 C   0  0  0  0  0  0  0  0  0  0  0  0
   -1.8081    3.0141    3.3011 H   0  0  0  0  0  0  0  0  0  0  0  0
   -0.1009    3.2582    3.7274 H   0  0  0  0  0  0  0  0  0  0  0  0
   -0.6769    3.6858    2.1041 H   0  0  0  0  0  0  0  0  0  0  0  0
  1  2  1  0  0  0  0
  2  3  1  0  0  0  0
  2  4  1  0  0  0  0
  2  5  1  0  0  0  0
  5  6  2  0  0  0  0
  5  7  1  0  0  0  0
  7  8  1  0  0  0  0
  7  9  1  0  0  0  0
  9 10  1  0  0  0  0
  9 11  1  0  0  0  0
  9 27  1  0  0  0  0
 11 12  1  0  0  0  0
 11 13  1  0  0  0  0
 11 14  1  0  0  0  0
 14 15  1  0  0  0  0
 14 16  1  0  0  0  0
 14 17  1  0  0  0  0
 17 18  1  0  0  0  0
 17 19  1  0  0  0  0
 17 20  1  0  0  0  0
 20 21  1  0  0  0  0
 20 22  1  0  0  0  0
 20 23  1  0  0  0  0
 23 24  1  0  0  0  0
 23 25  1  0  0  0  0
 23 26  1  0  0  0  0
 27 28  2  0  0  0  0
 27 29  1  0  0  0  0
 29 30  1  0  0  0  0
 29 31  1  0  0  0  0
 31 32  1  0  0  0  0
 31 33  1  0  0  0  0
 31 34  1  0  0  0  0
M  CHG  1  23   1
M  END
$$$$

  -OEChem-02102214153D

 34 33  0     1  0  0  0  0  0999 V2000
   -3.6640   -4.1175    1.6914 H   0  0  0  0  0  0  0  0  0  0  0  0
   -3.7050   -3.1064    1.2766 C   0  0  0  0  0  0  0  0  0  0  0  0
   -4.4242   -2.5192    1.8528 H   0  0  0  0  0  0  0  0  0  0  0  0
   -4.0428   -3.1655    0.2390 H   0  0  0  0  0  0  0  0  0  0  0  0
   -2.3349   -2.4590    1.3398 C   0  0  0  0  0  0  0  0  0  0  0  0
   -1.3844   -3.0639    1.8140 O   0  0  0  0  0  0  0  0  0  0  0  0
   -2.1455   -1.1819    0.8522 N   0  0  0  0  0  0  0  0  0  0  0  0
   -2.9677   -0.6718    0.5287 H   0  0  0  0  0  0  0  0  0  0  0  0
   -0.8845   -0.4384    0.9706 C   0  0  1  0  0  0  0  0  0  0  0  0
   -0.2350   -0.9031    1.7176 H   0  0  0  0  0  0  0  0  0  0  0  0
   -0.2203   -0.4926   -0.4201 C   0  0  0  0  0  0  0  0  0  0  0  0
   -0.0828   -1.5429   -0.6996 H   0  0  0  0  0  0  0  0  0  0  0  0
   -0.9059   -0.0511   -1.1525 H   0  0  0  0  0  0  0  0  0  0  0  0
    1.1340    0.2290   -0.5338 C   0  0  0  0  0  0  0  0  0  0  0  0
    1.4834    0.1259   -1.5674 H   0  0  0  0  0  0  0  0  0  0  0  0
    1.0020    1.2998   -0.3405 H   0  0  0  0  0  0  0  0  0  0  0  0
    2.1884   -0.3493    0.4226 C   0  0  0  0  0  0  0  0  0  0  0  0
    1.9285   -0.1115    1.4588 H   0  0  0  0  0  0  0  0  0  0  0  0
    2.2054   -1.4402    0.3170 H   0  0  0  0  0  0  0  0  0  0  0  0
    3.5654    0.2224    0.0904 C   0  0  0  0  0  0  0  0  0  0  0  0
    3.7726    0.0625   -0.9781 H   0  0  0  0  0  0  0  0  0  0  0  0
    3.5578    1.3094    0.2594 H   0  0  0  0  0  0  0  0  0  0  0  0
    4.5840   -0.4466    0.9295 N   0  3  0  0  0  0  0  0  0  0  0  0
    4.5680   -1.4546    0.7589 H   0  0  0  0  0  0  0  0  0  0  0  0
    5.5152   -0.0886    0.7053 H   0  0  0  0  0  0  0  0  0  0  0  0
    4.3926   -0.2759    1.9182 H   0  0  0  0  0  0  0  0  0  0  0  0
   -1.1583    1.0128    1.4161 C   0  0  0  0  0  0  0  0  0  0  0  0
   -1.9959    1.6767    0.8217 O   0  0  0  0  0  0  0  0  0  0  0  0
   -0.3986    1.6070    2.4088 N   0  0  0  0  0  0  0  0  0  0  0  0
    0.1099    0.9793    3.0239 H   0  0  0  0  0  0  0  0  0  0  0  0
   -0.6902    2.9525    2.8978 C   0  0  0  0  0  0  0  0  0  0  0  0
   -1.7015    2.9990    3.3166 H   0  0  0  0  0  0  0  0  0  0  0  0
    0.0211    3.2366    3.6794 H   0  0  0  0  0  0  0  0  0  0  0  0
   -0.6158    3.6823    2.0842 H   0  0  0  0  0  0  0  0  0  0  0  0
  1  2  1  0  0  0  0
  2  3  1  0  0  0  0
  2  4  1  0  0  0  0
  2  5  1  0  0  0  0
  5  6  2  0  0  0  0
  5  7  1  0  0  0  0
  7  8  1  0  0  0  0
  7  9  1  0  0  0  0
  9 10  1  0  0  0  0
  9 11  1  0  0  0  0
  9 27  1  0  0  0  0
 11 12  1  0  0  0  0
 11 13  1  0  0  0  0
 11 14  1  0  0  0  0
 14 15  1  0  0  0  0
 14 16  1  0  0  0  0
 14 17  1  0  0  0  0
 17 18  1  0  0  0  0
 17 19  1  0  0  0  0
 17 20  1  0  0  0  0
 20 21  1  0  0  0  0
 20 22  1  0  0  0  0
 20 23  1  0  0  0  0
 23 24  1  0  0  0  0
 23 25  1  0  0  0  0
 23 26  1  0  0  0  0
 27 28  2  0  0  0  0
 27 29  1  0  0  0  0
 29 30  1  0  0  0  0
 29 31  1  0  0  0  0
 31 32  1  0  0  0  0
 31 33  1  0  0  0  0
 31 34  1  0  0  0  0
M  CHG  1  23   1
M  END
$$$$

  -OEChem-02102214153D

 34 33  0     1  0  0  0  0  0999 V2000
   -3.6631   -4.0926    1.7325 H   0  0  0  0  0  0  0  0  0  0  0  0
   -3.7039   -3.0810    1.3188 C   0  0  0  0  0  0  0  0  0  0  0  0
   -4.3882   -2.4812    1.9240 H   0  0  0  0  0  0  0  0  0  0  0  0
   -4.0849   -3.1347    0.2960 H   0  0  0  0  0  0  0  0  0  0  0  0
   -2.3220   -2.4565    1.3256 C   0  0  0  0  0  0  0  0  0  0  0  0
   -1.3617   -3.0792    1.7548 O   0  0  0  0  0  0  0  0  0  0  0  0
   -2.1341   -1.1787    0.8397 N   0  0  0  0  0  0  0  0  0  0  0  0
   -2.9625   -0.6538    0.5582 H   0  0  0  0  0  0  0  0  0  0  0  0
   -0.8661   -0.4443    0.9393 C   0  0  1  0  0  0  0  0  0  0  0  0
   -0.2084   -0.9115    1.6779 H   0  0  0  0  0  0  0  0  0  0  0  0
   -0.2161   -0.5095   -0.4576 C   0  0  0  0  0  0  0  0  0  0  0  0
   -0.1010   -1.5580   -0.7537 H   0  0  0  0  0  0  0  0  0  0  0  0
   -0.9043   -0.0477   -1.1750 H   0  0  0  0  0  0  0  0  0  0  0  0
    1.1411    0.2066   -0.5698 C   0  0  0  0  0  0  0  0  0  0  0  0
    1.3747    0.3205   -1.6344 H   0  0  0  0  0  0  0  0  0  0  0  0
    1.0850    1.2134   -0.1423 H   0  0  0  0  0  0  0  0  0  0  0  0
    2.2576   -0.6058    0.1022 C   0  0  0  0  0  0  0  0  0  0  0  0
    2.0752   -0.6681    1.1799 H   0  0  0  0  0  0  0  0  0  0  0  0
    2.2525   -1.6245   -0.3015 H   0  0  0  0  0  0  0  0  0  0  0  0
    3.6148    0.0436   -0.1582 C   0  0  0  0  0  0  0  0  0  0  0  0
    3.7477    0.1809   -1.2417 H   0  0  0  0  0  0  0  0  0  0  0  0
    3.6329    1.0440    0.2990 H   0  0  0  0  0  0  0  0  0  0  0  0
    4.6774   -0.8228    0.3982 N   0  3  0  0  0  0  0  0  0  0  0  0
    4.6627   -1.7337   -0.0659 H   0  0  0  0  0  0  0  0  0  0  0  0
    5.5940   -0.3931    0.2541 H   0  0  0  0  0  0  0  0  0  0  0  0
    4.5293   -0.9611    1.3996 H   0  0  0  0  0  0  0  0  0  0  0  0
   -1.1283    1.0057    1.3959 C   0  0  0  0  0  0  0  0  0  0  0  0
   -1.9829    1.6701    0.8266 O   0  0  0  0  0  0  0  0  0  0  0  0
   -0.3503    1.5928    2.3784 N   0  0  0  0  0  0  0  0  0  0  0  0
    0.1921    0.9655    2.9644 H   0  0  0  0  0  0  0  0  0  0  0  0
   -0.6299    2.9335    2.8864 C   0  0  0  0  0  0  0  0  0  0  0  0
   -1.6262    2.9725    3.3405 H   0  0  0  0  0  0  0  0  0  0  0  0
    0.1073    3.2151    3.6447 H   0  0  0  0  0  0  0  0  0  0  0  0
   -0.5868    3.6696    2.0762 H   0  0  0  0  0  0  0  0  0  0  0  0
  1  2  1  0  0  0  0
  2  3  1  0  0  0  0
  2  4  1  0  0  0  0
  2  5  1  0  0  0  0
  5  6  2  0  0  0  0
  5  7  1  0  0  0  0
  7  8  1  0  0  0  0
  7  9  1  0  0  0  0
  9 10  1  0  0  0  0
  9 11  1  0  0  0  0
  9 27  1  0  0  0  0
 11 12  1  0  0  0  0
 11 13  1  0  0  0  0
 11 14  1  0  0  0  0
 14 15  1  0  0  0  0
 14 16  1  0  0  0  0
 14 17  1  0  0  0  0
 17 18  1  0  0  0  0
 17 19  1  0  0  0  0
 17 20  1  0  0  0  0
 20 21  1  0  0  0  0
 20 22  1  0  0  0  0
 20 23  1  0  0  0  0
 23 24  1  0  0  0  0
 23 25  1  0  0  0  0
 23 26  1  0  0  0  0
 27 28  2  0  0  0  0
 27 29  1  0  0  0  0
 29 30  1  0  0  0  0
 29 31  1  0  0  0  0
 31 32  1  0  0  0  0
 31 33  1  0  0  0  0
 31 34  1  0  0  0  0
M  CHG  1  23   1
M  END
$$$$

  -OEChem-02102214153D

 34 33  0     1  0  0  0  0  0999 V2000
   -3.6448   -4.0832    1.7565 H   0  0  0  0  0  0  0  0  0  0  0  0
   -3.6908   -3.0719    1.3429 C   0  0  0  0  0  0  0  0  0  0  0  0
   -4.3585   -2.4687    1.9629 H   0  0  0  0  0  0  0  0  0  0  0  0
   -4.0949   -3.1244    0.3290 H   0  0  0  0  0  0  0  0  0  0  0  0
   -2.3062   -2.4542    1.3189 C   0  0  0  0  0  0  0  0  0  0  0  0
   -1.3384   -3.0862    1.7166 O   0  0  0  0  0  0  0  0  0  0  0  0
   -2.1230   -1.1744    0.8368 N   0  0  0  0  0  0  0  0  0  0  0  0
   -2.9555   -0.6409    0.5849 H   0  0  0  0  0  0  0  0  0  0  0  0
   -0.8504   -0.4461    0.9183 C   0  0  1  0  0  0  0  0  0  0  0  0
   -0.1779   -0.9165    1.6422 H   0  0  0  0  0  0  0  0  0  0  0  0
   -0.2240   -0.5143   -0.4883 C   0  0  0  0  0  0  0  0  0  0  0  0
   -0.1325   -1.5612   -0.7976 H   0  0  0  0  0  0  0  0  0  0  0  0
   -0.9204   -0.0365   -1.1869 H   0  0  0  0  0  0  0  0  0  0  0  0
    1.1358    0.1970   -0.6141 C   0  0  0  0  0  0  0  0  0  0  0  0
    1.2447    0.5443   -1.6478 H   0  0  0  0  0  0  0  0  0  0  0  0
    1.1843    1.0818    0.0284 H   0  0  0  0  0  0  0  0  0  0  0  0
    2.2822   -0.7732   -0.2971 C   0  0  0  0  0  0  0  0  0  0  0  0
    2.1764   -1.1404    0.7297 H   0  0  0  0  0  0  0  0  0  0  0  0
    2.2220   -1.6350   -0.9714 H   0  0  0  0  0  0  0  0  0  0  0  0
    3.6320   -0.0803   -0.4672 C   0  0  0  0  0  0  0  0  0  0  0  0
    3.7023    0.3303   -1.4853 H   0  0  0  0  0  0  0  0  0  0  0  0
    3.6963    0.7687    0.2292 H   0  0  0  0  0  0  0  0  0  0  0  0
    4.7083   -1.0638   -0.2154 N   0  3  0  0  0  0  0  0  0  0  0  0
    4.6404   -1.8333   -0.8849 H   0  0  0  0  0  0  0  0  0  0  0  0
    5.6235   -0.6187   -0.3144 H   0  0  0  0  0  0  0  0  0  0  0  0
    4.6235   -1.4418    0.7303 H   0  0  0  0  0  0  0  0  0  0  0  0
   -1.1069    1.0010    1.3883 C   0  0  0  0  0  0  0  0  0  0  0  0
   -1.9777    1.6657    0.8440 O   0  0  0  0  0  0  0  0  0  0  0  0
   -0.3134    1.5815    2.3621 N   0  0  0  0  0  0  0  0  0  0  0  0
    0.2539    0.9532    2.9233 H   0  0  0  0  0  0  0  0  0  0  0  0
   -0.5837    2.9162    2.8894 C   0  0  0  0  0  0  0  0  0  0  0  0
   -1.5678    2.9469    3.3697 H   0  0  0  0  0  0  0  0  0  0  0  0
    0.1723    3.1930    3.6309 H   0  0  0  0  0  0  0  0  0  0  0  0
   -0.5638    3.6603    2.0857 H   0  0  0  0  0  0  0  0  0  0  0  0
  1  2  1  0  0  0  0
  2  3  1  0  0  0  0
  2  4  1  0  0  0  0
  2  5  1  0  0  0  0
  5  6  2  0  0  0  0
  5  7  1  0  0  0  0
  7  8  1  0  0  0  0
  7  9  1  0  0  0  0
  9 10  1  0  0  0  0
  9 11  1  0  0  0  0
  9 27  1  0  0  0  0
 11 12  1  0  0  0  0
 11 13  1  0  0  0  0
 11 14  1  0  0  0  0
 14 15  1  0  0  0  0
 14 16  1  0  0  0  0
 14 17  1  0  0  0  0
 17 18  1  0  0  0  0
 17 19  1  0  0  0  0
 17 20  1  0  0  0  0
 20 21  1  0  0  0  0
 20 22  1  0  0  0  0
 20 23  1  0  0  0  0
 23 24  1  0  0  0  0
 23 25  1  0  0  0  0
 23 26  1  0  0  0  0
 27 28  2  0  0  0  0
 27 29  1  0  0  0  0
 29 30  1  0  0  0  0
 29 31  1  0  0  0  0
 31 32  1  0  0  0  0
 31 33  1  0  0  0  0
 31 34  1  0  0  0  0
M  CHG  1  23   1
M  END
$$$$

  -OEChem-02102214153D

 34 33  0     1  0  0  0  0  0999 V2000
   -3.6421   -4.0798    1.7693 H   0  0  0  0  0  0  0  0  0  0  0  0
   -3.6871   -3.0716    1.3480 C   0  0  0  0  0  0  0  0  0  0  0  0
   -4.3453   -2.4603    1.9702 H   0  0  0  0  0  0  0  0  0  0  0  0
   -4.1021   -3.1299    0.3389 H   0  0  0  0  0  0  0  0  0  0  0  0
   -2.2996   -2.4614    1.3046 C   0  0  0  0  0  0  0  0  0  0  0  0
   -1.3276   -3.1045    1.6725 O   0  0  0  0  0  0  0  0  0  0  0  0
   -2.1190   -1.1782    0.8304 N   0  0  0  0  0  0  0  0  0  0  0  0
   -2.9541   -0.6384    0.6019 H   0  0  0  0  0  0  0  0  0  0  0  0
   -0.8449   -0.4517    0.9093 C   0  0  1  0  0  0  0  0  0  0  0  0
   -0.1667   -0.9285    1.6242 H   0  0  0  0  0  0  0  0  0  0  0  0
   -0.2287   -0.5115   -0.5015 C   0  0  0  0  0  0  0  0  0  0  0  0
   -0.1434   -1.5585   -0.8129 H   0  0  0  0  0  0  0  0  0  0  0  0
   -0.9289   -0.0311   -1.1949 H   0  0  0  0  0  0  0  0  0  0  0  0
    1.1326    0.2004   -0.6286 C   0  0  0  0  0  0  0  0  0  0  0  0
    1.1311    0.7927   -1.5507 H   0  0  0  0  0  0  0  0  0  0  0  0
    1.2993    0.8945    0.2007 H   0  0  0  0  0  0  0  0  0  0  0  0
    2.2679   -0.8294   -0.6966 C   0  0  0  0  0  0  0  0  0  0  0  0
    2.2525   -1.4436    0.2109 H   0  0  0  0  0  0  0  0  0  0  0  0
    2.1055   -1.4905   -1.5556 H   0  0  0  0  0  0  0  0  0  0  0  0
    3.6188   -0.1320   -0.8313 C   0  0  0  0  0  0  0  0  0  0  0  0
    3.6124    0.5003   -1.7316 H   0  0  0  0  0  0  0  0  0  0  0  0
    3.7724    0.5331    0.0311 H   0  0  0  0  0  0  0  0  0  0  0  0
    4.6785   -1.1614   -0.9089 N   0  3  0  0  0  0  0  0  0  0  0  0
    4.5272   -1.7562   -1.7263 H   0  0  0  0  0  0  0  0  0  0  0  0
    5.5964   -0.7180   -0.9871 H   0  0  0  0  0  0  0  0  0  0  0  0
    4.6617   -1.7445   -0.0696 H   0  0  0  0  0  0  0  0  0  0  0  0
   -1.0964    0.9933    1.3914 C   0  0  0  0  0  0  0  0  0  0  0  0
   -1.9713    1.6609    0.8570 O   0  0  0  0  0  0  0  0  0  0  0  0
   -0.2982    1.5696    2.3640 N   0  0  0  0  0  0  0  0  0  0  0  0
    0.2866    0.9435    2.9098 H   0  0  0  0  0  0  0  0  0  0  0  0
   -0.5578    2.9056    2.8940 C   0  0  0  0  0  0  0  0  0  0  0  0
   -1.5401    2.9432    3.3771 H   0  0  0  0  0  0  0  0  0  0  0  0
    0.2021    3.1762    3.6338 H   0  0  0  0  0  0  0  0  0  0  0  0
   -0.5345    3.6503    2.0910 H   0  0  0  0  0  0  0  0  0  0  0  0
  1  2  1  0  0  0  0
  2  3  1  0  0  0  0
  2  4  1  0  0  0  0
  2  5  1  0  0  0  0
  5  6  2  0  0  0  0
  5  7  1  0  0  0  0
  7  8  1  0  0  0  0
  7  9  1  0  0  0  0
  9 10  1  0  0  0  0
  9 11  1  0  0  0  0
  9 27  1  0  0  0  0
 11 12  1  0  0  0  0
 11 13  1  0  0  0  0
 11 14  1  0  0  0  0
 14 15  1  0  0  0  0
 14 16  1  0  0  0  0
 14 17  1  0  0  0  0
 17 18  1  0  0  0  0
 17 19  1  0  0  0  0
 17 20  1  0  0  0  0
 20 21  1  0  0  0  0
 20 22  1  0  0  0  0
 20 23  1  0  0  0  0
 23 24  1  0  0  0  0
 23 25  1  0  0  0  0
 23 26  1  0  0  0  0
 27 28  2  0  0  0  0
 27 29  1  0  0  0  0
 29 30  1  0  0  0  0
 29 31  1  0  0  0  0
 31 32  1  0  0  0  0
 31 33  1  0  0  0  0
 31 34  1  0  0  0  0
M  CHG  1  23   1
M  END
$$$$

  -OEChem-02102214153D

 34 33  0     1  0  0  0  0  0999 V2000
   -3.6679   -4.0705    1.7734 H   0  0  0  0  0  0  0  0  0  0  0  0
   -3.7076   -3.0621    1.3512 C   0  0  0  0  0  0  0  0  0  0  0  0
   -4.3544   -2.4444    1.9792 H   0  0  0  0  0  0  0  0  0  0  0  0
   -4.1331   -3.1180    0.3462 H   0  0  0  0  0  0  0  0  0  0  0  0
   -2.3148   -2.4645    1.2933 C   0  0  0  0  0  0  0  0  0  0  0  0
   -1.3457   -3.1194    1.6469 O   0  0  0  0  0  0  0  0  0  0  0  0
   -2.1261   -1.1819    0.8208 N   0  0  0  0  0  0  0  0  0  0  0  0
   -2.9594   -0.6321    0.6098 H   0  0  0  0  0  0  0  0  0  0  0  0
   -0.8474   -0.4629    0.9011 C   0  0  1  0  0  0  0  0  0  0  0  0
   -0.1726   -0.9463    1.6152 H   0  0  0  0  0  0  0  0  0  0  0  0
   -0.2285   -0.5157   -0.5080 C   0  0  0  0  0  0  0  0  0  0  0  0
   -0.1359   -1.5665   -0.8043 H   0  0  0  0  0  0  0  0  0  0  0  0
   -0.9231   -0.0466   -1.2143 H   0  0  0  0  0  0  0  0  0  0  0  0
    1.1366    0.1935   -0.6198 C   0  0  0  0  0  0  0  0  0  0  0  0
    1.0547    1.0089   -1.3478 H   0  0  0  0  0  0  0  0  0  0  0  0
    1.4239    0.6381    0.3384 H   0  0  0  0  0  0  0  0  0  0  0  0
    2.2227   -0.7960   -1.0628 C   0  0  0  0  0  0  0  0  0  0  0  0
    2.2965   -1.6038   -0.3256 H   0  0  0  0  0  0  0  0  0  0  0  0
    1.9367   -1.2382   -2.0240 H   0  0  0  0  0  0  0  0  0  0  0  0
    3.5699   -0.0920   -1.2007 C   0  0  0  0  0  0  0  0  0  0  0  0
    3.4769    0.7301   -1.9258 H   0  0  0  0  0  0  0  0  0  0  0  0
    3.8465    0.3566   -0.2354 H   0  0  0  0  0  0  0  0  0  0  0  0
    4.5798   -1.0797   -1.6405 N   0  3  0  0  0  0  0  0  0  0  0  0
    4.3111   -1.4737   -2.5446 H   0  0  0  0  0  0  0  0  0  0  0  0
    5.4945   -0.6324   -1.7327 H   0  0  0  0  0  0  0  0  0  0  0  0
    4.6482   -1.8375   -0.9579 H   0  0  0  0  0  0  0  0  0  0  0  0
   -1.0872    0.9834    1.3845 C   0  0  0  0  0  0  0  0  0  0  0  0
   -1.9621    1.6549    0.8547 O   0  0  0  0  0  0  0  0  0  0  0  0
   -0.2854    1.5546    2.3573 N   0  0  0  0  0  0  0  0  0  0  0  0
    0.3039    0.9268    2.8968 H   0  0  0  0  0  0  0  0  0  0  0  0
   -0.5402    2.8897    2.8920 C   0  0  0  0  0  0  0  0  0  0  0  0
   -1.5235    2.9293    3.3733 H   0  0  0  0  0  0  0  0  0  0  0  0
    0.2193    3.1544    3.6342 H   0  0  0  0  0  0  0  0  0  0  0  0
   -0.5123    3.6370    2.0915 H   0  0  0  0  0  0  0  0  0  0  0  0
  1  2  1  0  0  0  0
  2  3  1  0  0  0  0
  2  4  1  0  0  0  0
  2  5  1  0  0  0  0
  5  6  2  0  0  0  0
  5  7  1  0  0  0  0
  7  8  1  0  0  0  0
  7  9  1  0  0  0  0
  9 10  1  0  0  0  0
  9 11  1  0  0  0  0
  9 27  1  0  0  0  0
 11 12  1  0  0  0  0
 11 13  1  0  0  0  0
 11 14  1  0  0  0  0
 14 15  1  0  0  0  0
 14 16  1  0  0  0  0
 14 17  1  0  0  0  0
 17 18  1  0  0  0  0
 17 19  1  0  0  0  0
 17 20  1  0  0  0  0
 20 21  1  0  0  0  0
 20 22  1  0  0  0  0
 20 23  1  0  0  0  0
 23 24  1  0  0  0  0
 23 25  1  0  0  0  0
 23 26  1  0  0  0  0
 27 28  2  0  0  0  0
 27 29  1  0  0  0  0
 29 30  1  0  0  0  0
 29 31  1  0  0  0  0
 31 32  1  0  0  0  0
 31 33  1  0  0  0  0
 31 34  1  0  0  0  0
M  CHG  1  23   1
M  END
$$$$

  -OEChem-02102214153D

 34 33  0     1  0  0  0  0  0999 V2000
   -3.7084   -4.0647    1.7832 H   0  0  0  0  0  0  0  0  0  0  0  0
   -3.7390   -3.0590    1.3545 C   0  0  0  0  0  0  0  0  0  0  0  0
   -4.3795   -2.4313    1.9788 H   0  0  0  0  0  0  0  0  0  0  0  0
   -4.1656   -3.1175    0.3503 H   0  0  0  0  0  0  0  0  0  0  0  0
   -2.3409   -2.4743    1.2917 C   0  0  0  0  0  0  0  0  0  0  0  0
   -1.3770   -3.1366    1.6444 O   0  0  0  0  0  0  0  0  0  0  0  0
   -2.1437   -1.1934    0.8176 N   0  0  0  0  0  0  0  0  0  0  0  0
   -2.9739   -0.6393    0.6066 H   0  0  0  0  0  0  0  0  0  0  0  0
   -0.8601   -0.4819    0.8905 C   0  0  1  0  0  0  0  0  0  0  0  0
   -0.1872   -0.9728    1.6013 H   0  0  0  0  0  0  0  0  0  0  0  0
   -0.2437   -0.5324   -0.5187 C   0  0  0  0  0  0  0  0  0  0  0  0
   -0.1377   -1.5873   -0.7959 H   0  0  0  0  0  0  0  0  0  0  0  0
   -0.9332   -0.0771   -1.2388 H   0  0  0  0  0  0  0  0  0  0  0  0
    1.1216    0.1757   -0.6133 C   0  0  0  0  0  0  0  0  0  0  0  0
    0.9872    1.1525   -1.0923 H   0  0  0  0  0  0  0  0  0  0  0  0
    1.5264    0.3517    0.3892 H   0  0  0  0  0  0  0  0  0  0  0  0
    2.1246   -0.6788   -1.3988 C   0  0  0  0  0  0  0  0  0  0  0  0
    2.2702   -1.6340   -0.8816 H   0  0  0  0  0  0  0  0  0  0  0  0
    1.7161   -0.8892   -2.3938 H   0  0  0  0  0  0  0  0  0  0  0  0
    3.4591    0.0506   -1.5312 C   0  0  0  0  0  0  0  0  0  0  0  0
    3.2964    1.0147   -2.0356 H   0  0  0  0  0  0  0  0  0  0  0  0
    3.8531    0.2715   -0.5284 H   0  0  0  0  0  0  0  0  0  0  0  0
    4.3954   -0.8010   -2.2971 N   0  3  0  0  0  0  0  0  0  0  0  0
    4.0160   -0.9855   -3.2280 H   0  0  0  0  0  0  0  0  0  0  0  0
    5.2993   -0.3331   -2.3942 H   0  0  0  0  0  0  0  0  0  0  0  0
    4.5329   -1.6914   -1.8143 H   0  0  0  0  0  0  0  0  0  0  0  0
   -1.0738    0.9681    1.3723 C   0  0  0  0  0  0  0  0  0  0  0  0
   -1.9346    1.6559    0.8402 O   0  0  0  0  0  0  0  0  0  0  0  0
   -0.2541    1.5266    2.3372 N   0  0  0  0  0  0  0  0  0  0  0  0
    0.3262    0.8891    2.8752 H   0  0  0  0  0  0  0  0  0  0  0  0
   -0.4710    2.8713    2.8636 C   0  0  0  0  0  0  0  0  0  0  0  0
   -1.4445    2.9369    3.3613 H   0  0  0  0  0  0  0  0  0  0  0  0
    0.3071    3.1258    3.5901 H   0  0  0  0  0  0  0  0  0  0  0  0
   -0.4406    3.6109    2.0561 H   0  0  0  0  0  0  0  0  0  0  0  0
  1  2  1  0  0  0  0
  2  3  1  0  0  0  0
  2  4  1  0  0  0  0
  2  5  1  0  0  0  0
  5  6  2  0  0  0  0
  5  7  1  0  0  0  0
  7  8  1  0  0  0  0
  7  9  1  0  0  0  0
  9 10  1  0  0  0  0
  9 11  1  0  0  0  0
  9 27  1  0  0  0  0
 11 12  1  0  0  0  0
 11 13  1  0  0  0  0
 11 14  1  0  0  0  0
 14 15  1  0  0  0  0
 14 16  1  0  0  0  0
 14 17  1  0  0  0  0
 17 18  1  0  0  0  0
 17 19  1  0  0  0  0
 17 20  1  0  0  0  0
 20 21  1  0  0  0  0
 20 22  1  0  0  0  0
 20 23  1  0  0  0  0
 23 24  1  0  0  0  0
 23 25  1  0  0  0  0
 23 26  1  0  0  0  0
 27 28  2  0  0  0  0
 27 29  1  0  0  0  0
 29 30  1  0  0  0  0
 29 31  1  0  0  0  0
 31 32  1  0  0  0  0
 31 33  1  0  0  0  0
 31 34  1  0  0  0  0
M  CHG  1  23   1
M  END
$$$$

  -OEChem-02102214153D

 34 33  0     1  0  0  0  0  0999 V2000
   -3.7245   -4.0598    1.7881 H   0  0  0  0  0  0  0  0  0  0  0  0
   -3.7526   -3.0539    1.3597 C   0  0  0  0  0  0  0  0  0  0  0  0
   -4.3897   -2.4237    1.9849 H   0  0  0  0  0  0  0  0  0  0  0  0
   -4.1811   -3.1105    0.3563 H   0  0  0  0  0  0  0  0  0  0  0  0
   -2.3526   -2.4745    1.2943 C   0  0  0  0  0  0  0  0  0  0  0  0
   -1.3913   -3.1396    1.6479 O   0  0  0  0  0  0  0  0  0  0  0  0
   -2.1515   -1.1956    0.8166 N   0  0  0  0  0  0  0  0  0  0  0  0
   -2.9803   -0.6392    0.6068 H   0  0  0  0  0  0  0  0  0  0  0  0
   -0.8647   -0.4892    0.8808 C   0  0  1  0  0  0  0  0  0  0  0  0
   -0.1919   -0.9829    1.5901 H   0  0  0  0  0  0  0  0  0  0  0  0
   -0.2524   -0.5443   -0.5292 C   0  0  0  0  0  0  0  0  0  0  0  0
   -0.1391   -1.6005   -0.7976 H   0  0  0  0  0  0  0  0  0  0  0  0
   -0.9406   -0.0939   -1.2534 H   0  0  0  0  0  0  0  0  0  0  0  0
    1.1116    0.1612   -0.6161 C   0  0  0  0  0  0  0  0  0  0  0  0
    0.9565    1.2242   -0.8352 H   0  0  0  0  0  0  0  0  0  0  0  0
    1.6274    0.0896    0.3479 H   0  0  0  0  0  0  0  0  0  0  0  0
    1.9907   -0.4924   -1.6893 C   0  0  0  0  0  0  0  0  0  0  0  0
    2.1727   -1.5397   -1.4227 H   0  0  0  0  0  0  0  0  0  0  0  0
    1.4612   -0.4727   -2.6486 H   0  0  0  0  0  0  0  0  0  0  0  0
    3.3178    0.2518   -1.8143 C   0  0  0  0  0  0  0  0  0  0  0  0
    3.1193    1.3054   -2.0611 H   0  0  0  0  0  0  0  0  0  0  0  0
    3.8346    0.2376   -0.8435 H   0  0  0  0  0  0  0  0  0  0  0  0
    4.1344   -0.3964   -2.8637 N   0  3  0  0  0  0  0  0  0  0  0  0
    3.6409   -0.3649   -3.7582 H   0  0  0  0  0  0  0  0  0  0  0  0
    5.0302    0.0865   -2.9623 H   0  0  0  0  0  0  0  0  0  0  0  0
    4.3092   -1.3727   -2.6169 H   0  0  0  0  0  0  0  0  0  0  0  0
   -1.0624    0.9635    1.3600 C   0  0  0  0  0  0  0  0  0  0  0  0
   -1.9192    1.6582    0.8303 O   0  0  0  0  0  0  0  0  0  0  0  0
   -0.2303    1.5159    2.3173 N   0  0  0  0  0  0  0  0  0  0  0  0
    0.3522    0.8740    2.8481 H   0  0  0  0  0  0  0  0  0  0  0  0
   -0.4366    2.8597    2.8501 C   0  0  0  0  0  0  0  0  0  0  0  0
   -1.4067    2.9285    3.3541 H   0  0  0  0  0  0  0  0  0  0  0  0
    0.3471    3.1067    3.5729 H   0  0  0  0  0  0  0  0  0  0  0  0
   -0.4070    3.6022    2.0454 H   0  0  0  0  0  0  0  0  0  0  0  0
  1  2  1  0  0  0  0
  2  3  1  0  0  0  0
  2  4  1  0  0  0  0
  2  5  1  0  0  0  0
  5  6  2  0  0  0  0
  5  7  1  0  0  0  0
  7  8  1  0  0  0  0
  7  9  1  0  0  0  0
  9 10  1  0  0  0  0
  9 11  1  0  0  0  0
  9 27  1  0  0  0  0
 11 12  1  0  0  0  0
 11 13  1  0  0  0  0
 11 14  1  0  0  0  0
 14 15  1  0  0  0  0
 14 16  1  0  0  0  0
 14 17  1  0  0  0  0
 17 18  1  0  0  0  0
 17 19  1  0  0  0  0
 17 20  1  0  0  0  0
 20 21  1  0  0  0  0
 20 22  1  0  0  0  0
 20 23  1  0  0  0  0
 23 24  1  0  0  0  0
 23 25  1  0  0  0  0
 23 26  1  0  0  0  0
 27 28  2  0  0  0  0
 27 29  1  0  0  0  0
 29 30  1  0  0  0  0
 29 31  1  0  0  0  0
 31 32  1  0  0  0  0
 31 33  1  0  0  0  0
 31 34  1  0  0  0  0
M  CHG  1  23   1
M  END
$$$$

  -OEChem-02102214153D

 34 33  0     1  0  0  0  0  0999 V2000
   -3.7261   -4.0568    1.7888 H   0  0  0  0  0  0  0  0  0  0  0  0
   -3.7529   -3.0507    1.3608 C   0  0  0  0  0  0  0  0  0  0  0  0
   -4.3873   -2.4196    1.9880 H   0  0  0  0  0  0  0  0  0  0  0  0
   -4.1833   -3.1061    0.3581 H   0  0  0  0  0  0  0  0  0  0  0  0
   -2.3521   -2.4735    1.2927 C   0  0  0  0  0  0  0  0  0  0  0  0
   -1.3915   -3.1392    1.6464 O   0  0  0  0  0  0  0  0  0  0  0  0
   -2.1508   -1.1942    0.8161 N   0  0  0  0  0  0  0  0  0  0  0  0
   -2.9796   -0.6371    0.6085 H   0  0  0  0  0  0  0  0  0  0  0  0
   -0.8629   -0.4893    0.8768 C   0  0  1  0  0  0  0  0  0  0  0  0
   -0.1883   -0.9833    1.5842 H   0  0  0  0  0  0  0  0  0  0  0  0
   -0.2538   -0.5469   -0.5348 C   0  0  0  0  0  0  0  0  0  0  0  0
   -0.1384   -1.6014   -0.8095 H   0  0  0  0  0  0  0  0  0  0  0  0
   -0.9450   -0.0911   -1.2528 H   0  0  0  0  0  0  0  0  0  0  0  0
    1.1092    0.1566   -0.6231 C   0  0  0  0  0  0  0  0  0  0  0  0
    0.9642    1.2425   -0.5887 H   0  0  0  0  0  0  0  0  0  0  0  0
    1.7262   -0.1305    0.2357 H   0  0  0  0  0  0  0  0  0  0  0  0
    1.8290   -0.2410   -1.9170 C   0  0  0  0  0  0  0  0  0  0  0  0
    2.0034   -1.3229   -1.9187 H   0  0  0  0  0  0  0  0  0  0  0  0
    1.1897    0.0012   -2.7734 H   0  0  0  0  0  0  0  0  0  0  0  0
    3.1575    0.5015   -2.0363 C   0  0  0  0  0  0  0  0  0  0  0  0
    2.9695    1.5852   -2.0088 H   0  0  0  0  0  0  0  0  0  0  0  0
    3.7888    0.2588   -1.1688 H   0  0  0  0  0  0  0  0  0  0  0  0
    3.8141    0.1071   -3.3018 N   0  3  0  0  0  0  0  0  0  0  0  0
    3.2147    0.3464   -4.0943 H   0  0  0  0  0  0  0  0  0  0  0  0
    4.7074    0.5943   -3.4028 H   0  0  0  0  0  0  0  0  0  0  0  0
    3.9835   -0.9009   -3.3080 H   0  0  0  0  0  0  0  0  0  0  0  0
   -1.0595    0.9622    1.3587 C   0  0  0  0  0  0  0  0  0  0  0  0
   -1.9131    1.6603    0.8278 O   0  0  0  0  0  0  0  0  0  0  0  0
   -0.2243    1.5126    2.3143 N   0  0  0  0  0  0  0  0  0  0  0  0
    0.3612    0.8695    2.8407 H   0  0  0  0  0  0  0  0  0  0  0  0
   -0.4285    2.8550    2.8508 C   0  0  0  0  0  0  0  0  0  0  0  0
   -1.3981    2.9229    3.3560 H   0  0  0  0  0  0  0  0  0  0  0  0
    0.3562    3.0994    3.5736 H   0  0  0  0  0  0  0  0  0  0  0  0
   -0.3990    3.5996    2.0480 H   0  0  0  0  0  0  0  0  0  0  0  0
  1  2  1  0  0  0  0
  2  3  1  0  0  0  0
  2  4  1  0  0  0  0
  2  5  1  0  0  0  0
  5  6  2  0  0  0  0
  5  7  1  0  0  0  0
  7  8  1  0  0  0  0
  7  9  1  0  0  0  0
  9 10  1  0  0  0  0
  9 11  1  0  0  0  0
  9 27  1  0  0  0  0
 11 12  1  0  0  0  0
 11 13  1  0  0  0  0
 11 14  1  0  0  0  0
 14 15  1  0  0  0  0
 14 16  1  0  0  0  0
 14 17  1  0  0  0  0
 17 18  1  0  0  0  0
 17 19  1  0  0  0  0
 17 20  1  0  0  0  0
 20 21  1  0  0  0  0
 20 22  1  0  0  0  0
 20 23  1  0  0  0  0
 23 24  1  0  0  0  0
 23 25  1  0  0  0  0
 23 26  1  0  0  0  0
 27 28  2  0  0  0  0
 27 29  1  0  0  0  0
 29 30  1  0  0  0  0
 29 31  1  0  0  0  0
 31 32  1  0  0  0  0
 31 33  1  0  0  0  0
 31 34  1  0  0  0  0
M  CHG  1  23   1
M  END
$$$$

  -OEChem-02102214153D

 34 33  0     1  0  0  0  0  0999 V2000
   -3.7173   -4.0655    1.8072 H   0  0  0  0  0  0  0  0  0  0  0  0
   -3.7506   -3.0605    1.3767 C   0  0  0  0  0  0  0  0  0  0  0  0
   -4.3800   -2.4288    2.0083 H   0  0  0  0  0  0  0  0  0  0  0  0
   -4.1916   -3.1195    0.3788 H   0  0  0  0  0  0  0  0  0  0  0  0
   -2.3516   -2.4808    1.2925 C   0  0  0  0  0  0  0  0  0  0  0  0
   -1.3852   -3.1470    1.6292 O   0  0  0  0  0  0  0  0  0  0  0  0
   -2.1595   -1.2001    0.8158 N   0  0  0  0  0  0  0  0  0  0  0  0
   -2.9929   -0.6457    0.6206 H   0  0  0  0  0  0  0  0  0  0  0  0
   -0.8744   -0.4884    0.8635 C   0  0  1  0  0  0  0  0  0  0  0  0
   -0.1996   -0.9872    1.5670 H   0  0  0  0  0  0  0  0  0  0  0  0
   -0.2696   -0.5450   -0.5501 C   0  0  0  0  0  0  0  0  0  0  0  0
   -0.3743   -1.5647   -0.9377 H   0  0  0  0  0  0  0  0  0  0  0  0
   -0.8339    0.1201   -1.2134 H   0  0  0  0  0  0  0  0  0  0  0  0
    1.2183   -0.1678   -0.5632 C   0  0  0  0  0  0  0  0  0  0  0  0
    1.3453    0.8482   -0.1729 H   0  0  0  0  0  0  0  0  0  0  0  0
    1.7748   -0.8535    0.0859 H   0  0  0  0  0  0  0  0  0  0  0  0
    1.7663   -0.2416   -1.9933 C   0  0  0  0  0  0  0  0  0  0  0  0
    1.6377   -1.2595   -2.3780 H   0  0  0  0  0  0  0  0  0  0  0  0
    1.1946    0.4385   -2.6350 H   0  0  0  0  0  0  0  0  0  0  0  0
    3.2439    0.1410   -2.0184 C   0  0  0  0  0  0  0  0  0  0  0  0
    3.3616    1.1584   -1.6171 H   0  0  0  0  0  0  0  0  0  0  0  0
    3.8050   -0.5357   -1.3571 H   0  0  0  0  0  0  0  0  0  0  0  0
    3.7365    0.0569   -3.4105 N   0  3  0  0  0  0  0  0  0  0  0  0
    3.2018    0.6903   -4.0085 H   0  0  0  0  0  0  0  0  0  0  0  0
    4.7244    0.3170   -3.4515 H   0  0  0  0  0  0  0  0  0  0  0  0
    3.6301   -0.8972   -3.7613 H   0  0  0  0  0  0  0  0  0  0  0  0
   -1.0563    0.9641    1.3473 C   0  0  0  0  0  0  0  0  0  0  0  0
   -1.9232    1.6619    0.8385 O   0  0  0  0  0  0  0  0  0  0  0  0
   -0.2050    1.5111    2.2907 N   0  0  0  0  0  0  0  0  0  0  0  0
    0.3891    0.8665    2.8053 H   0  0  0  0  0  0  0  0  0  0  0  0
   -0.3984    2.8526    2.8337 C   0  0  0  0  0  0  0  0  0  0  0  0
   -1.3595    2.9217    3.3548 H   0  0  0  0  0  0  0  0  0  0  0  0
    0.3985    3.0937    3.5441 H   0  0  0  0  0  0  0  0  0  0  0  0
   -0.3809    3.5992    2.0326 H   0  0  0  0  0  0  0  0  0  0  0  0
  1  2  1  0  0  0  0
  2  3  1  0  0  0  0
  2  4  1  0  0  0  0
  2  5  1  0  0  0  0
  5  6  2  0  0  0  0
  5  7  1  0  0  0  0
  7  8  1  0  0  0  0
  7  9  1  0  0  0  0
  9 10  1  0  0  0  0
  9 11  1  0  0  0  0
  9 27  1  0  0  0  0
 11 12  1  0  0  0  0
 11 13  1  0  0  0  0
 11 14  1  0  0  0  0
 14 15  1  0  0  0  0
 14 16  1  0  0  0  0
 14 17  1  0  0  0  0
 17 18  1  0  0  0  0
 17 19  1  0  0  0  0
 17 20  1  0  0  0  0
 20 21  1  0  0  0  0
 20 22  1  0  0  0  0
 20 23  1  0  0  0  0
 23 24  1  0  0  0  0
 23 25  1  0  0  0  0
 23 26  1  0  0  0  0
 27 28  2  0  0  0  0
 27 29  1  0  0  0  0
 29 30  1  0  0  0  0
 29 31  1  0  0  0  0
 31 32  1  0  0  0  0
 31 33  1  0  0  0  0
 31 34  1  0  0  0  0
M  CHG  1  23   1
M  END
$$$$

  -OEChem-02102214153D

 34 33  0     1  0  0  0  0  0999 V2000
   -3.7106   -4.0684    1.7974 H   0  0  0  0  0  0  0  0  0  0  0  0
   -3.7443   -3.0626    1.3690 C   0  0  0  0  0  0  0  0  0  0  0  0
   -4.3797   -2.4343    1.9979 H   0  0  0  0  0  0  0  0  0  0  0  0
   -4.1779   -3.1207    0.3678 H   0  0  0  0  0  0  0  0  0  0  0  0
   -2.3467   -2.4786    1.2960 C   0  0  0  0  0  0  0  0  0  0  0  0
   -1.3814   -3.1404    1.6436 O   0  0  0  0  0  0  0  0  0  0  0  0
   -2.1552   -1.1973    0.8204 N   0  0  0  0  0  0  0  0  0  0  0  0
   -2.9887   -0.6461    0.6169 H   0  0  0  0  0  0  0  0  0  0  0  0
   -0.8707   -0.4846    0.8697 C   0  0  1  0  0  0  0  0  0  0  0  0
   -0.1928   -0.9831    1.5709 H   0  0  0  0  0  0  0  0  0  0  0  0
   -0.2702   -0.5421   -0.5462 C   0  0  0  0  0  0  0  0  0  0  0  0
   -0.3795   -1.5560   -0.9471 H   0  0  0  0  0  0  0  0  0  0  0  0
   -0.8418    0.1311   -1.1951 H   0  0  0  0  0  0  0  0  0  0  0  0
    1.2188   -0.1660   -0.5713 C   0  0  0  0  0  0  0  0  0  0  0  0
    1.3884    0.7291    0.0366 H   0  0  0  0  0  0  0  0  0  0  0  0
    1.8073   -0.9836   -0.1397 H   0  0  0  0  0  0  0  0  0  0  0  0
    1.6660    0.1198   -2.0097 C   0  0  0  0  0  0  0  0  0  0  0  0
    1.4858   -0.7682   -2.6261 H   0  0  0  0  0  0  0  0  0  0  0  0
    1.0699    0.9440   -2.4178 H   0  0  0  0  0  0  0  0  0  0  0  0
    3.1474    0.4861   -2.0447 C   0  0  0  0  0  0  0  0  0  0  0  0
    3.3183    1.3647   -1.4055 H   0  0  0  0  0  0  0  0  0  0  0  0
    3.7360   -0.3419   -1.6228 H   0  0  0  0  0  0  0  0  0  0  0  0
    3.5391    0.7614   -3.4442 N   0  3  0  0  0  0  0  0  0  0  0  0
    2.9771    1.5285   -3.8189 H   0  0  0  0  0  0  0  0  0  0  0  0
    4.5269    1.0211   -3.4896 H   0  0  0  0  0  0  0  0  0  0  0  0
    3.3881   -0.0701   -4.0191 H   0  0  0  0  0  0  0  0  0  0  0  0
   -1.0573    0.9673    1.3549 C   0  0  0  0  0  0  0  0  0  0  0  0
   -1.9144    1.6690    0.8344 O   0  0  0  0  0  0  0  0  0  0  0  0
   -0.2087    1.5147    2.3005 N   0  0  0  0  0  0  0  0  0  0  0  0
    0.3754    0.8674    2.8238 H   0  0  0  0  0  0  0  0  0  0  0  0
   -0.4067    2.8554    2.8437 C   0  0  0  0  0  0  0  0  0  0  0  0
   -1.3702    2.9216    3.3605 H   0  0  0  0  0  0  0  0  0  0  0  0
    0.3864    3.0974    3.5580 H   0  0  0  0  0  0  0  0  0  0  0  0
   -0.3868    3.6029    2.0435 H   0  0  0  0  0  0  0  0  0  0  0  0
  1  2  1  0  0  0  0
  2  3  1  0  0  0  0
  2  4  1  0  0  0  0
  2  5  1  0  0  0  0
  5  6  2  0  0  0  0
  5  7  1  0  0  0  0
  7  8  1  0  0  0  0
  7  9  1  0  0  0  0
  9 10  1  0  0  0  0
  9 11  1  0  0  0  0
  9 27  1  0  0  0  0
 11 12  1  0  0  0  0
 11 13  1  0  0  0  0
 11 14  1  0  0  0  0
 14 15  1  0  0  0  0
 14 16  1  0  0  0  0
 14 17  1  0  0  0  0
 17 18  1  0  0  0  0
 17 19  1  0  0  0  0
 17 20  1  0  0  0  0
 20 21  1  0  0  0  0
 20 22  1  0  0  0  0
 20 23  1  0  0  0  0
 23 24  1  0  0  0  0
 23 25  1  0  0  0  0
 23 26  1  0  0  0  0
 27 28  2  0  0  0  0
 27 29  1  0  0  0  0
 29 30  1  0  0  0  0
 29 31  1  0  0  0  0
 31 32  1  0  0  0  0
 31 33  1  0  0  0  0
 31 34  1  0  0  0  0
M  CHG  1  23   1
M  END
$$$$

  -OEChem-02102214153D

 34 33  0     1  0  0  0  0  0999 V2000
   -3.7095   -4.0750    1.7874 H   0  0  0  0  0  0  0  0  0  0  0  0
   -3.7427   -3.0695    1.3581 C   0  0  0  0  0  0  0  0  0  0  0  0
   -4.3912   -2.4447    1.9773 H   0  0  0  0  0  0  0  0  0  0  0  0
   -4.1608   -3.1306    0.3504 H   0  0  0  0  0  0  0  0  0  0  0  0
   -2.3474   -2.4778    1.3057 C   0  0  0  0  0  0  0  0  0  0  0  0
   -1.3847   -3.1325    1.6731 O   0  0  0  0  0  0  0  0  0  0  0  0
   -2.1556   -1.1971    0.8285 N   0  0  0  0  0  0  0  0  0  0  0  0
   -2.9882   -0.6522    0.6064 H   0  0  0  0  0  0  0  0  0  0  0  0
   -0.8720   -0.4831    0.8778 C   0  0  1  0  0  0  0  0  0  0  0  0
   -0.1917   -0.9812    1.5768 H   0  0  0  0  0  0  0  0  0  0  0  0
   -0.2755   -0.5407   -0.5403 C   0  0  0  0  0  0  0  0  0  0  0  0
   -0.3863   -1.5527   -0.9458 H   0  0  0  0  0  0  0  0  0  0  0  0
   -0.8557    0.1311   -1.1831 H   0  0  0  0  0  0  0  0  0  0  0  0
    1.2156   -0.1641   -0.5773 C   0  0  0  0  0  0  0  0  0  0  0  0
    1.4442    0.5535    0.2175 H   0  0  0  0  0  0  0  0  0  0  0  0
    1.8201   -1.0609   -0.3993 H   0  0  0  0  0  0  0  0  0  0  0  0
    1.5696    0.4734   -1.9262 C   0  0  0  0  0  0  0  0  0  0  0  0
    1.3313   -0.2311   -2.7311 H   0  0  0  0  0  0  0  0  0  0  0  0
    0.9623    1.3743   -2.0715 H   0  0  0  0  0  0  0  0  0  0  0  0
    3.0514    0.8356   -1.9721 C   0  0  0  0  0  0  0  0  0  0  0  0
    3.2817    1.5232   -1.1450 H   0  0  0  0  0  0  0  0  0  0  0  0
    3.6518   -0.0729   -1.8162 H   0  0  0  0  0  0  0  0  0  0  0  0
    3.3509    1.4569   -3.2805 N   0  3  0  0  0  0  0  0  0  0  0  0
    2.7770    2.2929   -3.4088 H   0  0  0  0  0  0  0  0  0  0  0  0
    4.3373    1.7210   -3.3281 H   0  0  0  0  0  0  0  0  0  0  0  0
    3.1473    0.7978   -4.0346 H   0  0  0  0  0  0  0  0  0  0  0  0
   -1.0575    0.9699    1.3605 C   0  0  0  0  0  0  0  0  0  0  0  0
   -1.8997    1.6793    0.8260 O   0  0  0  0  0  0  0  0  0  0  0  0
   -0.2074    1.5157    2.3058 N   0  0  0  0  0  0  0  0  0  0  0  0
    0.3608    0.8633    2.8401 H   0  0  0  0  0  0  0  0  0  0  0  0
   -0.3984    2.8593    2.8444 C   0  0  0  0  0  0  0  0  0  0  0  0
   -1.3613    2.9325    3.3616 H   0  0  0  0  0  0  0  0  0  0  0  0
    0.3966    3.0991    3.5575 H   0  0  0  0  0  0  0  0  0  0  0  0
   -0.3750    3.6040    2.0415 H   0  0  0  0  0  0  0  0  0  0  0  0
  1  2  1  0  0  0  0
  2  3  1  0  0  0  0
  2  4  1  0  0  0  0
  2  5  1  0  0  0  0
  5  6  2  0  0  0  0
  5  7  1  0  0  0  0
  7  8  1  0  0  0  0
  7  9  1  0  0  0  0
  9 10  1  0  0  0  0
  9 11  1  0  0  0  0
  9 27  1  0  0  0  0
 11 12  1  0  0  0  0
 11 13  1  0  0  0  0
 11 14  1  0  0  0  0
 14 15  1  0  0  0  0
 14 16  1  0  0  0  0
 14 17  1  0  0  0  0
 17 18  1  0  0  0  0
 17 19  1  0  0  0  0
 17 20  1  0  0  0  0
 20 21  1  0  0  0  0
 20 22  1  0  0  0  0
 20 23  1  0  0  0  0
 23 24  1  0  0  0  0
 23 25  1  0  0  0  0
 23 26  1  0  0  0  0
 27 28  2  0  0  0  0
 27 29  1  0  0  0  0
 29 30  1  0  0  0  0
 29 31  1  0  0  0  0
 31 32  1  0  0  0  0
 31 33  1  0  0  0  0
 31 34  1  0  0  0  0
M  CHG  1  23   1
M  END
$$$$

  -OEChem-02102214153D

 34 33  0     1  0  0  0  0  0999 V2000
   -3.7185   -4.0795    1.7846 H   0  0  0  0  0  0  0  0  0  0  0  0
   -3.7502   -3.0770    1.3486 C   0  0  0  0  0  0  0  0  0  0  0  0
   -4.4121   -2.4525    1.9534 H   0  0  0  0  0  0  0  0  0  0  0  0
   -4.1524   -3.1473    0.3351 H   0  0  0  0  0  0  0  0  0  0  0  0
   -2.3569   -2.4782    1.3144 C   0  0  0  0  0  0  0  0  0  0  0  0
   -1.3975   -3.1268    1.7000 O   0  0  0  0  0  0  0  0  0  0  0  0
   -2.1620   -1.1989    0.8334 N   0  0  0  0  0  0  0  0  0  0  0  0
   -2.9924   -0.6602    0.5902 H   0  0  0  0  0  0  0  0  0  0  0  0
   -0.8782   -0.4841    0.8829 C   0  0  1  0  0  0  0  0  0  0  0  0
   -0.2000   -0.9830    1.5834 H   0  0  0  0  0  0  0  0  0  0  0  0
   -0.2798   -0.5424   -0.5343 C   0  0  0  0  0  0  0  0  0  0  0  0
   -0.3842   -1.5595   -0.9288 H   0  0  0  0  0  0  0  0  0  0  0  0
   -0.8670    0.1144   -1.1862 H   0  0  0  0  0  0  0  0  0  0  0  0
    1.2133   -0.1641   -0.5744 C   0  0  0  0  0  0  0  0  0  0  0  0
    1.5115    0.3216    0.3606 H   0  0  0  0  0  0  0  0  0  0  0  0
    1.8135   -1.0755   -0.6754 H   0  0  0  0  0  0  0  0  0  0  0  0
    1.4873    0.7921   -1.7421 C   0  0  0  0  0  0  0  0  0  0  0  0
    1.1905    0.3089   -2.6798 H   0  0  0  0  0  0  0  0  0  0  0  0
    0.8792    1.6958   -1.6176 H   0  0  0  0  0  0  0  0  0  0  0  0
    2.9648    1.1696   -1.7968 C   0  0  0  0  0  0  0  0  0  0  0  0
    3.2558    1.6358   -0.8440 H   0  0  0  0  0  0  0  0  0  0  0  0
    3.5701    0.2582   -1.9110 H   0  0  0  0  0  0  0  0  0  0  0  0
    3.1733    2.0968   -2.9302 N   0  3  0  0  0  0  0  0  0  0  0  0
    2.5892    2.9276   -2.8122 H   0  0  0  0  0  0  0  0  0  0  0  0
    4.1535    2.3837   -2.9766 H   0  0  0  0  0  0  0  0  0  0  0  0
    2.9201    1.6376   -3.8075 H   0  0  0  0  0  0  0  0  0  0  0  0
   -1.0524    0.9724    1.3587 C   0  0  0  0  0  0  0  0  0  0  0  0
   -1.8706    1.6953    0.8050 O   0  0  0  0  0  0  0  0  0  0  0  0
   -0.1961    1.5130    2.3016 N   0  0  0  0  0  0  0  0  0  0  0  0
    0.3505    0.8529    2.8496 H   0  0  0  0  0  0  0  0  0  0  0  0
   -0.3714    2.8621    2.8319 C   0  0  0  0  0  0  0  0  0  0  0  0
   -1.3303    2.9472    3.3548 H   0  0  0  0  0  0  0  0  0  0  0  0
    0.4302    3.0995    3.5382 H   0  0  0  0  0  0  0  0  0  0  0  0
   -0.3463    3.6017    2.0243 H   0  0  0  0  0  0  0  0  0  0  0  0
  1  2  1  0  0  0  0
  2  3  1  0  0  0  0
  2  4  1  0  0  0  0
  2  5  1  0  0  0  0
  5  6  2  0  0  0  0
  5  7  1  0  0  0  0
  7  8  1  0  0  0  0
  7  9  1  0  0  0  0
  9 10  1  0  0  0  0
  9 11  1  0  0  0  0
  9 27  1  0  0  0  0
 11 12  1  0  0  0  0
 11 13  1  0  0  0  0
 11 14  1  0  0  0  0
 14 15  1  0  0  0  0
 14 16  1  0  0  0  0
 14 17  1  0  0  0  0
 17 18  1  0  0  0  0
 17 19  1  0  0  0  0
 17 20  1  0  0  0  0
 20 21  1  0  0  0  0
 20 22  1  0  0  0  0
 20 23  1  0  0  0  0
 23 24  1  0  0  0  0
 23 25  1  0  0  0  0
 23 26  1  0  0  0  0
 27 28  2  0  0  0  0
 27 29  1  0  0  0  0
 29 30  1  0  0  0  0
 29 31  1  0  0  0  0
 31 32  1  0  0  0  0
 31 33  1  0  0  0  0
 31 34  1  0  0  0  0
M  CHG  1  23   1
M  END
$$$$

  -OEChem-02102214153D

 34 33  0     1  0  0  0  0  0999 V2000
   -3.7195   -4.0829    1.7758 H   0  0  0  0  0  0  0  0  0  0  0  0
   -3.7514   -3.0801    1.3404 C   0  0  0  0  0  0  0  0  0  0  0  0
   -4.4248   -2.4600    1.9371 H   0  0  0  0  0  0  0  0  0  0  0  0
   -4.1394   -3.1519    0.3214 H   0  0  0  0  0  0  0  0  0  0  0  0
   -2.3612   -2.4737    1.3258 C   0  0  0  0  0  0  0  0  0  0  0  0
   -1.4055   -3.1136    1.7342 O   0  0  0  0  0  0  0  0  0  0  0  0
   -2.1660   -1.1964    0.8399 N   0  0  0  0  0  0  0  0  0  0  0  0
   -2.9944   -0.6668    0.5718 H   0  0  0  0  0  0  0  0  0  0  0  0
   -0.8829   -0.4807    0.8848 C   0  0  1  0  0  0  0  0  0  0  0  0
   -0.2054   -0.9798    1.5859 H   0  0  0  0  0  0  0  0  0  0  0  0
   -0.2866   -0.5441   -0.5327 C   0  0  0  0  0  0  0  0  0  0  0  0
   -0.3799   -1.5717   -0.9026 H   0  0  0  0  0  0  0  0  0  0  0  0
   -0.8782    0.0884   -1.2043 H   0  0  0  0  0  0  0  0  0  0  0  0
    1.2060   -0.1635   -0.5745 C   0  0  0  0  0  0  0  0  0  0  0  0
    1.5801    0.0546    0.4316 H   0  0  0  0  0  0  0  0  0  0  0  0
    1.7805   -1.0145   -0.9579 H   0  0  0  0  0  0  0  0  0  0  0  0
    1.4144    1.0545   -1.4841 C   0  0  0  0  0  0  0  0  0  0  0  0
    1.0591    0.8160   -2.4929 H   0  0  0  0  0  0  0  0  0  0  0  0
    0.8180    1.8924   -1.1041 H   0  0  0  0  0  0  0  0  0  0  0  0
    2.8872    1.4502   -1.5335 C   0  0  0  0  0  0  0  0  0  0  0  0
    3.2371    1.6753   -0.5153 H   0  0  0  0  0  0  0  0  0  0  0  0
    3.4808    0.6001   -1.9011 H   0  0  0  0  0  0  0  0  0  0  0  0
    3.0298    2.6258   -2.4199 N   0  3  0  0  0  0  0  0  0  0  0  0
    2.4593    3.3980   -2.0686 H   0  0  0  0  0  0  0  0  0  0  0  0
    4.0069    2.9243   -2.4569 H   0  0  0  0  0  0  0  0  0  0  0  0
    2.7189    2.3900   -3.3645 H   0  0  0  0  0  0  0  0  0  0  0  0
   -1.0425    0.9792    1.3535 C   0  0  0  0  0  0  0  0  0  0  0  0
   -1.8379    1.7156    0.7849 O   0  0  0  0  0  0  0  0  0  0  0  0
   -0.1759    1.5139    2.2905 N   0  0  0  0  0  0  0  0  0  0  0  0
    0.3483    0.8454    2.8500 H   0  0  0  0  0  0  0  0  0  0  0  0
   -0.3451    2.8627    2.8242 C   0  0  0  0  0  0  0  0  0  0  0  0
   -1.3017    2.9495    3.3510 H   0  0  0  0  0  0  0  0  0  0  0  0
    0.4599    3.0964    3.5281 H   0  0  0  0  0  0  0  0  0  0  0  0
   -0.3215    3.6038    2.0182 H   0  0  0  0  0  0  0  0  0  0  0  0
  1  2  1  0  0  0  0
  2  3  1  0  0  0  0
  2  4  1  0  0  0  0
  2  5  1  0  0  0  0
  5  6  2  0  0  0  0
  5  7  1  0  0  0  0
  7  8  1  0  0  0  0
  7  9  1  0  0  0  0
  9 10  1  0  0  0  0
  9 11  1  0  0  0  0
  9 27  1  0  0  0  0
 11 12  1  0  0  0  0
 11 13  1  0  0  0  0
 11 14  1  0  0  0  0
 14 15  1  0  0  0  0
 14 16  1  0  0  0  0
 14 17  1  0  0  0  0
 17 18  1  0  0  0  0
 17 19  1  0  0  0  0
 17 20  1  0  0  0  0
 20 21  1  0  0  0  0
 20 22  1  0  0  0  0
 20 23  1  0  0  0  0
 23 24  1  0  0  0  0
 23 25  1  0  0  0  0
 23 26  1  0  0  0  0
 27 28  2  0  0  0  0
 27 29  1  0  0  0  0
 29 30  1  0  0  0  0
 29 31  1  0  0  0  0
 31 32  1  0  0  0  0
 31 33  1  0  0  0  0
 31 34  1  0  0  0  0
M  CHG  1  23   1
M  END
$$$$

  -OEChem-02102214153D

 34 33  0     1  0  0  0  0  0999 V2000
   -3.7074   -4.0920    1.7645 H   0  0  0  0  0  0  0  0  0  0  0  0
   -3.7432   -3.0889    1.3298 C   0  0  0  0  0  0  0  0  0  0  0  0
   -4.4295   -2.4757    1.9188 H   0  0  0  0  0  0  0  0  0  0  0  0
   -4.1180   -3.1627    0.3062 H   0  0  0  0  0  0  0  0  0  0  0  0
   -2.3589   -2.4691    1.3315 C   0  0  0  0  0  0  0  0  0  0  0  0
   -1.4023   -3.0993    1.7527 O   0  0  0  0  0  0  0  0  0  0  0  0
   -2.1705   -1.1891    0.8492 N   0  0  0  0  0  0  0  0  0  0  0  0
   -2.9993   -0.6705    0.5615 H   0  0  0  0  0  0  0  0  0  0  0  0
   -0.8897   -0.4686    0.8919 C   0  0  1  0  0  0  0  0  0  0  0  0
   -0.2118   -0.9670    1.5927 H   0  0  0  0  0  0  0  0  0  0  0  0
   -0.2937   -0.5373   -0.5273 C   0  0  0  0  0  0  0  0  0  0  0  0
   -0.3771   -1.5735   -0.8754 H   0  0  0  0  0  0  0  0  0  0  0  0
   -0.8866    0.0759   -1.2152 H   0  0  0  0  0  0  0  0  0  0  0  0
    1.1966   -0.1529   -0.5777 C   0  0  0  0  0  0  0  0  0  0  0  0
    1.6449   -0.2067    0.4204 H   0  0  0  0  0  0  0  0  0  0  0  0
    1.7243   -0.8752   -1.2109 H   0  0  0  0  0  0  0  0  0  0  0  0
    1.3668    1.2527   -1.1729 C   0  0  0  0  0  0  0  0  0  0  0  0
    0.9448    1.2696   -2.1841 H   0  0  0  0  0  0  0  0  0  0  0  0
    0.8120    1.9755   -0.5648 H   0  0  0  0  0  0  0  0  0  0  0  0
    2.8400    1.6450   -1.2222 C   0  0  0  0  0  0  0  0  0  0  0  0
    3.2555    1.6203   -0.2042 H   0  0  0  0  0  0  0  0  0  0  0  0
    3.3947    0.9053   -1.8183 H   0  0  0  0  0  0  0  0  0  0  0  0
    2.9482    2.9974   -1.8116 N   0  3  0  0  0  0  0  0  0  0  0  0
    2.4166    3.6654   -1.2496 H   0  0  0  0  0  0  0  0  0  0  0  0
    3.9264    3.2926   -1.8428 H   0  0  0  0  0  0  0  0  0  0  0  0
    2.5720    2.9946   -2.7618 H   0  0  0  0  0  0  0  0  0  0  0  0
   -1.0466    0.9892    1.3656 C   0  0  0  0  0  0  0  0  0  0  0  0
   -1.8277    1.7358    0.7908 O   0  0  0  0  0  0  0  0  0  0  0  0
   -0.1734    1.5179    2.3005 N   0  0  0  0  0  0  0  0  0  0  0  0
    0.3390    0.8428    2.8639 H   0  0  0  0  0  0  0  0  0  0  0  0
   -0.3429    2.8631    2.8430 C   0  0  0  0  0  0  0  0  0  0  0  0
   -1.2965    2.9445    3.3762 H   0  0  0  0  0  0  0  0  0  0  0  0
    0.4655    3.0948    3.5436 H   0  0  0  0  0  0  0  0  0  0  0  0
   -0.3259    3.6087    2.0410 H   0  0  0  0  0  0  0  0  0  0  0  0
  1  2  1  0  0  0  0
  2  3  1  0  0  0  0
  2  4  1  0  0  0  0
  2  5  1  0  0  0  0
  5  6  2  0  0  0  0
  5  7  1  0  0  0  0
  7  8  1  0  0  0  0
  7  9  1  0  0  0  0
  9 10  1  0  0  0  0
  9 11  1  0  0  0  0
  9 27  1  0  0  0  0
 11 12  1  0  0  0  0
 11 13  1  0  0  0  0
 11 14  1  0  0  0  0
 14 15  1  0  0  0  0
 14 16  1  0  0  0  0
 14 17  1  0  0  0  0
 17 18  1  0  0  0  0
 17 19  1  0  0  0  0
 17 20  1  0  0  0  0
 20 21  1  0  0  0  0
 20 22  1  0  0  0  0
 20 23  1  0  0  0  0
 23 24  1  0  0  0  0
 23 25  1  0  0  0  0
 23 26  1  0  0  0  0
 27 28  2  0  0  0  0
 27 29  1  0  0  0  0
 29 30  1  0  0  0  0
 29 31  1  0  0  0  0
 31 32  1  0  0  0  0
 31 33  1  0  0  0  0
 31 34  1  0  0  0  0
M  CHG  1  23   1
M  END
$$$$

  -OEChem-02102214153D

 34 33  0     1  0  0  0  0  0999 V2000
   -3.6812   -4.1095    1.6884 H   0  0  0  0  0  0  0  0  0  0  0  0
   -3.7249   -3.0935    1.2853 C   0  0  0  0  0  0  0  0  0  0  0  0
   -4.4167   -2.5044    1.8923 H   0  0  0  0  0  0  0  0  0  0  0  0
   -4.0980   -3.1381    0.2593 H   0  0  0  0  0  0  0  0  0  0  0  0
   -2.3456   -2.4632    1.3097 C   0  0  0  0  0  0  0  0  0  0  0  0
   -1.3884   -3.0911    1.7331 O   0  0  0  0  0  0  0  0  0  0  0  0
   -2.1624   -1.1724    0.8553 N   0  0  0  0  0  0  0  0  0  0  0  0
   -2.9919   -0.6545    0.5680 H   0  0  0  0  0  0  0  0  0  0  0  0
   -0.8895   -0.4405    0.9357 C   0  0  1  0  0  0  0  0  0  0  0  0
   -0.2169   -0.9379    1.6423 H   0  0  0  0  0  0  0  0  0  0  0  0
   -0.2734   -0.5026   -0.4790 C   0  0  0  0  0  0  0  0  0  0  0  0
   -0.3511   -1.5393   -0.8267 H   0  0  0  0  0  0  0  0  0  0  0  0
   -0.8631    0.1087   -1.1711 H   0  0  0  0  0  0  0  0  0  0  0  0
    1.2154   -0.1166   -0.5495 C   0  0  0  0  0  0  0  0  0  0  0  0
    1.7300   -0.4276    0.3663 H   0  0  0  0  0  0  0  0  0  0  0  0
    1.6699   -0.6660   -1.3817 H   0  0  0  0  0  0  0  0  0  0  0  0
    1.4052    1.3891   -0.7946 C   0  0  0  0  0  0  0  0  0  0  0  0
    0.8416    1.6798   -1.6884 H   0  0  0  0  0  0  0  0  0  0  0  0
    1.0127    1.9626    0.0490 H   0  0  0  0  0  0  0  0  0  0  0  0
    2.8822    1.7185   -0.9904 C   0  0  0  0  0  0  0  0  0  0  0  0
    3.4386    1.4488   -0.0808 H   0  0  0  0  0  0  0  0  0  0  0  0
    3.2856    1.1076   -1.8115 H   0  0  0  0  0  0  0  0  0  0  0  0
    3.0069    3.1618   -1.2890 N   0  3  0  0  0  0  0  0  0  0  0  0
    2.5959    3.7112   -0.5316 H   0  0  0  0  0  0  0  0  0  0  0  0
    3.9912    3.4184   -1.3909 H   0  0  0  0  0  0  0  0  0  0  0  0
    2.5152    3.3810   -2.1579 H   0  0  0  0  0  0  0  0  0  0  0  0
   -1.0984    1.0013    1.4364 C   0  0  0  0  0  0  0  0  0  0  0  0
   -1.8894    1.7376    0.8621 O   0  0  0  0  0  0  0  0  0  0  0  0
   -0.2640    1.5338    2.4046 N   0  0  0  0  0  0  0  0  0  0  0  0
    0.2540    0.8586    2.9626 H   0  0  0  0  0  0  0  0  0  0  0  0
   -0.5085    2.8487    2.9918 C   0  0  0  0  0  0  0  0  0  0  0  0
   -1.4814    2.8683    3.4954 H   0  0  0  0  0  0  0  0  0  0  0  0
    0.2661    3.0864    3.7276 H   0  0  0  0  0  0  0  0  0  0  0  0
   -0.4995    3.6259    2.2204 H   0  0  0  0  0  0  0  0  0  0  0  0
  1  2  1  0  0  0  0
  2  3  1  0  0  0  0
  2  4  1  0  0  0  0
  2  5  1  0  0  0  0
  5  6  2  0  0  0  0
  5  7  1  0  0  0  0
  7  8  1  0  0  0  0
  7  9  1  0  0  0  0
  9 10  1  0  0  0  0
  9 11  1  0  0  0  0
  9 27  1  0  0  0  0
 11 12  1  0  0  0  0
 11 13  1  0  0  0  0
 11 14  1  0  0  0  0
 14 15  1  0  0  0  0
 14 16  1  0  0  0  0
 14 17  1  0  0  0  0
 17 18  1  0  0  0  0
 17 19  1  0  0  0  0
 17 20  1  0  0  0  0
 20 21  1  0  0  0  0
 20 22  1  0  0  0  0
 20 23  1  0  0  0  0
 23 24  1  0  0  0  0
 23 25  1  0  0  0  0
 23 26  1  0  0  0  0
 27 28  2  0  0  0  0
 27 29  1  0  0  0  0
 29 30  1  0  0  0  0
 29 31  1  0  0  0  0
 31 32  1  0  0  0  0
 31 33  1  0  0  0  0
 31 34  1  0  0  0  0
M  CHG  1  23   1
M  END
$$$$

  -OEChem-02102214153D

 34 33  0     1  0  0  0  0  0999 V2000
   -3.7286   -4.1021    1.5560 H   0  0  0  0  0  0  0  0  0  0  0  0
   -3.7475   -3.0766    1.1759 C   0  0  0  0  0  0  0  0  0  0  0  0
   -4.4649   -2.4980    1.7628 H   0  0  0  0  0  0  0  0  0  0  0  0
   -4.0712   -3.0952    0.1324 H   0  0  0  0  0  0  0  0  0  0  0  0
   -2.3681   -2.4544    1.2824 C   0  0  0  0  0  0  0  0  0  0  0  0
   -1.4404   -3.0876    1.7600 O   0  0  0  0  0  0  0  0  0  0  0  0
   -2.1529   -1.1618    0.8476 N   0  0  0  0  0  0  0  0  0  0  0  0
   -2.9622   -0.6381    0.5165 H   0  0  0  0  0  0  0  0  0  0  0  0
   -0.8851   -0.4344    1.0121 C   0  0  1  0  0  0  0  0  0  0  0  0
   -0.2489   -0.9329    1.7509 H   0  0  0  0  0  0  0  0  0  0  0  0
   -0.2066   -0.4995   -0.3758 C   0  0  0  0  0  0  0  0  0  0  0  0
   -0.2855   -1.5321   -0.7349 H   0  0  0  0  0  0  0  0  0  0  0  0
   -0.7639    0.1247   -1.0831 H   0  0  0  0  0  0  0  0  0  0  0  0
    1.2876   -0.1327   -0.4233 C   0  0  0  0  0  0  0  0  0  0  0  0
    1.8281   -0.6695    0.3643 H   0  0  0  0  0  0  0  0  0  0  0  0
    1.6789   -0.4830   -1.3851 H   0  0  0  0  0  0  0  0  0  0  0  0
    1.5406    1.3786   -0.3047 C   0  0  0  0  0  0  0  0  0  0  0  0
    0.7914    1.9175   -0.8961 H   0  0  0  0  0  0  0  0  0  0  0  0
    1.4445    1.6944    0.7363 H   0  0  0  0  0  0  0  0  0  0  0  0
    2.9375    1.7297   -0.8101 C   0  0  0  0  0  0  0  0  0  0  0  0
    3.6896    1.2323   -0.1802 H   0  0  0  0  0  0  0  0  0  0  0  0
    3.0610    1.3412   -1.8318 H   0  0  0  0  0  0  0  0  0  0  0  0
    3.0952    3.2000   -0.7808 N   0  3  0  0  0  0  0  0  0  0  0  0
    2.9888    3.5442    0.1753 H   0  0  0  0  0  0  0  0  0  0  0  0
    4.0197    3.4629   -1.1288 H   0  0  0  0  0  0  0  0  0  0  0  0
    2.3824    3.6372   -1.3693 H   0  0  0  0  0  0  0  0  0  0  0  0
   -1.1470    1.0020    1.5074 C   0  0  0  0  0  0  0  0  0  0  0  0
   -1.9024    1.7326    0.8801 O   0  0  0  0  0  0  0  0  0  0  0  0
   -0.3912    1.5418    2.5345 N   0  0  0  0  0  0  0  0  0  0  0  0
    0.0935    0.8702    3.1258 H   0  0  0  0  0  0  0  0  0  0  0  0
   -0.6972    2.8492    3.1093 C   0  0  0  0  0  0  0  0  0  0  0  0
   -1.6985    2.8465    3.5537 H   0  0  0  0  0  0  0  0  0  0  0  0
    0.0269    3.1002    3.8909 H   0  0  0  0  0  0  0  0  0  0  0  0
   -0.6584    3.6297    2.3420 H   0  0  0  0  0  0  0  0  0  0  0  0
  1  2  1  0  0  0  0
  2  3  1  0  0  0  0
  2  4  1  0  0  0  0
  2  5  1  0  0  0  0
  5  6  2  0  0  0  0
  5  7  1  0  0  0  0
  7  8  1  0  0  0  0
  7  9  1  0  0  0  0
  9 10  1  0  0  0  0
  9 11  1  0  0  0  0
  9 27  1  0  0  0  0
 11 12  1  0  0  0  0
 11 13  1  0  0  0  0
 11 14  1  0  0  0  0
 14 15  1  0  0  0  0
 14 16  1  0  0  0  0
 14 17  1  0  0  0  0
 17 18  1  0  0  0  0
 17 19  1  0  0  0  0
 17 20  1  0  0  0  0
 20 21  1  0  0  0  0
 20 22  1  0  0  0  0
 20 23  1  0  0  0  0
 23 24  1  0  0  0  0
 23 25  1  0  0  0  0
 23 26  1  0  0  0  0
 27 28  2  0  0  0  0
 27 29  1  0  0  0  0
 29 30  1  0  0  0  0
 29 31  1  0  0  0  0
 31 32  1  0  0  0  0
 31 33  1  0  0  0  0
 31 34  1  0  0  0  0
M  CHG  1  23   1
M  END
$$$$

  -OEChem-02102214153D

 34 33  0     1  0  0  0  0  0999 V2000
   -3.7666   -4.0931    1.5201 H   0  0  0  0  0  0  0  0  0  0  0  0
   -3.7696   -3.0693    1.1353 C   0  0  0  0  0  0  0  0  0  0  0  0
   -4.5077   -2.4874    1.6926 H   0  0  0  0  0  0  0  0  0  0  0  0
   -4.0537   -3.0913    0.0805 H   0  0  0  0  0  0  0  0  0  0  0  0
   -2.3943   -2.4487    1.2900 C   0  0  0  0  0  0  0  0  0  0  0  0
   -1.4841   -3.0815    1.8007 O   0  0  0  0  0  0  0  0  0  0  0  0
   -2.1612   -1.1581    0.8589 N   0  0  0  0  0  0  0  0  0  0  0  0
   -2.9556   -0.6330    0.4949 H   0  0  0  0  0  0  0  0  0  0  0  0
   -0.8918   -0.4399    1.0493 C   0  0  1  0  0  0  0  0  0  0  0  0
   -0.2676   -0.9381    1.7985 H   0  0  0  0  0  0  0  0  0  0  0  0
   -0.1980   -0.5133   -0.3334 C   0  0  0  0  0  0  0  0  0  0  0  0
   -0.2978   -1.5382   -0.7090 H   0  0  0  0  0  0  0  0  0  0  0  0
   -0.7407    0.1346   -1.0308 H   0  0  0  0  0  0  0  0  0  0  0  0
    1.3015   -0.1672   -0.3978 C   0  0  0  0  0  0  0  0  0  0  0  0
    1.8626   -0.8879    0.2077 H   0  0  0  0  0  0  0  0  0  0  0  0
    1.6197   -0.2982   -1.4381 H   0  0  0  0  0  0  0  0  0  0  0  0
    1.6447    1.2566    0.0602 C   0  0  0  0  0  0  0  0  0  0  0  0
    0.8752    1.9482   -0.3021 H   0  0  0  0  0  0  0  0  0  0  0  0
    1.6661    1.2988    1.1519 H   0  0  0  0  0  0  0  0  0  0  0  0
    3.0061    1.6772   -0.4882 C   0  0  0  0  0  0  0  0  0  0  0  0
    3.7845    1.0161   -0.0794 H   0  0  0  0  0  0  0  0  0  0  0  0
    3.0108    1.5478   -1.5807 H   0  0  0  0  0  0  0  0  0  0  0  0
    3.2508    3.0894   -0.1232 N   0  3  0  0  0  0  0  0  0  0  0  0
    3.2821    3.1877    0.8930 H   0  0  0  0  0  0  0  0  0  0  0  0
    4.1400    3.4064   -0.5159 H   0  0  0  0  0  0  0  0  0  0  0  0
    2.4984    3.6773   -0.4891 H   0  0  0  0  0  0  0  0  0  0  0  0
   -1.1779    0.9956    1.5384 C   0  0  0  0  0  0  0  0  0  0  0  0
   -1.9209    1.7199    0.8895 O   0  0  0  0  0  0  0  0  0  0  0  0
   -0.4564    1.5458    2.5845 N   0  0  0  0  0  0  0  0  0  0  0  0
   -0.0029    0.8764    3.2025 H   0  0  0  0  0  0  0  0  0  0  0  0
   -0.7895    2.8554    3.1397 C   0  0  0  0  0  0  0  0  0  0  0  0
   -1.8096    2.8538    3.5396 H   0  0  0  0  0  0  0  0  0  0  0  0
   -0.1010    3.1112    3.9510 H   0  0  0  0  0  0  0  0  0  0  0  0
   -0.7177    3.6320    2.3709 H   0  0  0  0  0  0  0  0  0  0  0  0
  1  2  1  0  0  0  0
  2  3  1  0  0  0  0
  2  4  1  0  0  0  0
  2  5  1  0  0  0  0
  5  6  2  0  0  0  0
  5  7  1  0  0  0  0
  7  8  1  0  0  0  0
  7  9  1  0  0  0  0
  9 10  1  0  0  0  0
  9 11  1  0  0  0  0
  9 27  1  0  0  0  0
 11 12  1  0  0  0  0
 11 13  1  0  0  0  0
 11 14  1  0  0  0  0
 14 15  1  0  0  0  0
 14 16  1  0  0  0  0
 14 17  1  0  0  0  0
 17 18  1  0  0  0  0
 17 19  1  0  0  0  0
 17 20  1  0  0  0  0
 20 21  1  0  0  0  0
 20 22  1  0  0  0  0
 20 23  1  0  0  0  0
 23 24  1  0  0  0  0
 23 25  1  0  0  0  0
 23 26  1  0  0  0  0
 27 28  2  0  0  0  0
 27 29  1  0  0  0  0
 29 30  1  0  0  0  0
 29 31  1  0  0  0  0
 31 32  1  0  0  0  0
 31 33  1  0  0  0  0
 31 34  1  0  0  0  0
M  CHG  1  23   1
M  END
$$$$

  -OEChem-02102214153D

 34 33  0     1  0  0  0  0  0999 V2000
   -3.7586   -4.1127    1.5304 H   0  0  0  0  0  0  0  0  0  0  0  0
   -3.7697   -3.0882    1.1477 C   0  0  0  0  0  0  0  0  0  0  0  0
   -4.5170   -2.5143    1.7010 H   0  0  0  0  0  0  0  0  0  0  0  0
   -4.0466   -3.1116    0.0910 H   0  0  0  0  0  0  0  0  0  0  0  0
   -2.4019   -2.4540    1.3125 C   0  0  0  0  0  0  0  0  0  0  0  0
   -1.4905   -3.0759    1.8349 O   0  0  0  0  0  0  0  0  0  0  0  0
   -2.1762   -1.1639    0.8762 N   0  0  0  0  0  0  0  0  0  0  0  0
   -2.9708   -0.6476    0.4995 H   0  0  0  0  0  0  0  0  0  0  0  0
   -0.9096   -0.4397    1.0611 C   0  0  1  0  0  0  0  0  0  0  0  0
   -0.2783   -0.9318    1.8082 H   0  0  0  0  0  0  0  0  0  0  0  0
   -0.2263   -0.5099   -0.3288 C   0  0  0  0  0  0  0  0  0  0  0  0
   -0.3396   -1.5279   -0.7192 H   0  0  0  0  0  0  0  0  0  0  0  0
   -0.7773    0.1517   -1.0067 H   0  0  0  0  0  0  0  0  0  0  0  0
    1.2733   -0.1629   -0.4320 C   0  0  0  0  0  0  0  0  0  0  0  0
    1.8494   -1.0153   -0.0540 H   0  0  0  0  0  0  0  0  0  0  0  0
    1.5131   -0.0555   -1.4960 H   0  0  0  0  0  0  0  0  0  0  0  0
    1.7195    1.0948    0.3215 C   0  0  0  0  0  0  0  0  0  0  0  0
    1.0180    1.9096    0.1097 H   0  0  0  0  0  0  0  0  0  0  0  0
    1.7208    0.8986    1.3972 H   0  0  0  0  0  0  0  0  0  0  0  0
    3.1213    1.5044   -0.1240 C   0  0  0  0  0  0  0  0  0  0  0  0
    3.8313    0.6994    0.1171 H   0  0  0  0  0  0  0  0  0  0  0  0
    3.1305    1.6277   -1.2172 H   0  0  0  0  0  0  0  0  0  0  0  0
    3.4881    2.7673    0.5524 N   0  3  0  0  0  0  0  0  0  0  0  0
    3.5059    2.6302    1.5643 H   0  0  0  0  0  0  0  0  0  0  0  0
    4.4119    3.0772    0.2428 H   0  0  0  0  0  0  0  0  0  0  0  0
    2.8032    3.4926    0.3284 H   0  0  0  0  0  0  0  0  0  0  0  0
   -1.2156    0.9944    1.5460 C   0  0  0  0  0  0  0  0  0  0  0  0
   -1.9742    1.7030    0.8984 O   0  0  0  0  0  0  0  0  0  0  0  0
   -0.5044    1.5612    2.5911 N   0  0  0  0  0  0  0  0  0  0  0  0
   -0.0618    0.8982    3.2234 H   0  0  0  0  0  0  0  0  0  0  0  0
   -0.8630    2.8694    3.1344 C   0  0  0  0  0  0  0  0  0  0  0  0
   -1.8913    2.8586    3.5124 H   0  0  0  0  0  0  0  0  0  0  0  0
   -0.1953    3.1355    3.9597 H   0  0  0  0  0  0  0  0  0  0  0  0
   -0.7838    3.6439    2.3640 H   0  0  0  0  0  0  0  0  0  0  0  0
  1  2  1  0  0  0  0
  2  3  1  0  0  0  0
  2  4  1  0  0  0  0
  2  5  1  0  0  0  0
  5  6  2  0  0  0  0
  5  7  1  0  0  0  0
  7  8  1  0  0  0  0
  7  9  1  0  0  0  0
  9 10  1  0  0  0  0
  9 11  1  0  0  0  0
  9 27  1  0  0  0  0
 11 12  1  0  0  0  0
 11 13  1  0  0  0  0
 11 14  1  0  0  0  0
 14 15  1  0  0  0  0
 14 16  1  0  0  0  0
 14 17  1  0  0  0  0
 17 18  1  0  0  0  0
 17 19  1  0  0  0  0
 17 20  1  0  0  0  0
 20 21  1  0  0  0  0
 20 22  1  0  0  0  0
 20 23  1  0  0  0  0
 23 24  1  0  0  0  0
 23 25  1  0  0  0  0
 23 26  1  0  0  0  0
 27 28  2  0  0  0  0
 27 29  1  0  0  0  0
 29 30  1  0  0  0  0
 29 31  1  0  0  0  0
 31 32  1  0  0  0  0
 31 33  1  0  0  0  0
 31 34  1  0  0  0  0
M  CHG  1  23   1
M  END
$$$$

  -OEChem-02102214153D

 34 33  0     1  0  0  0  0  0999 V2000
   -3.7441   -4.1327    1.5421 H   0  0  0  0  0  0  0  0  0  0  0  0
   -3.7656   -3.1100    1.1551 C   0  0  0  0  0  0  0  0  0  0  0  0
   -4.5252   -2.5436    1.6994 H   0  0  0  0  0  0  0  0  0  0  0  0
   -4.0329   -3.1412    0.0960 H   0  0  0  0  0  0  0  0  0  0  0  0
   -2.4077   -2.4575    1.3284 C   0  0  0  0  0  0  0  0  0  0  0  0
   -1.4940   -3.0634    1.8659 O   0  0  0  0  0  0  0  0  0  0  0  0
   -2.1925   -1.1693    0.8818 N   0  0  0  0  0  0  0  0  0  0  0  0
   -2.9898   -0.6629    0.4971 H   0  0  0  0  0  0  0  0  0  0  0  0
   -0.9337   -0.4321    1.0647 C   0  0  1  0  0  0  0  0  0  0  0  0
   -0.3023   -0.9134    1.8181 H   0  0  0  0  0  0  0  0  0  0  0  0
   -0.2439   -0.5047   -0.3223 C   0  0  0  0  0  0  0  0  0  0  0  0
   -0.3562   -1.5219   -0.7151 H   0  0  0  0  0  0  0  0  0  0  0  0
   -0.7995    0.1547   -0.9988 H   0  0  0  0  0  0  0  0  0  0  0  0
    1.2542   -0.1467   -0.4398 C   0  0  0  0  0  0  0  0  0  0  0  0
    1.8252   -1.0723   -0.3027 H   0  0  0  0  0  0  0  0  0  0  0  0
    1.4373    0.1964   -1.4644 H   0  0  0  0  0  0  0  0  0  0  0  0
    1.7983    0.8874    0.5512 C   0  0  0  0  0  0  0  0  0  0  0  0
    1.2009    1.8026    0.4782 H   0  0  0  0  0  0  0  0  0  0  0  0
    1.7324    0.4984    1.5721 H   0  0  0  0  0  0  0  0  0  0  0  0
    3.2533    1.2048    0.2132 C   0  0  0  0  0  0  0  0  0  0  0  0
    3.8575    0.2907    0.3123 H   0  0  0  0  0  0  0  0  0  0  0  0
    3.3171    1.5218   -0.8385 H   0  0  0  0  0  0  0  0  0  0  0  0
    3.7388    2.2712    1.1153 N   0  3  0  0  0  0  0  0  0  0  0  0
    3.7192    1.9466    2.0834 H   0  0  0  0  0  0  0  0  0  0  0  0
    4.6978    2.5287    0.8709 H   0  0  0  0  0  0  0  0  0  0  0  0
    3.1423    3.0970    1.0294 H   0  0  0  0  0  0  0  0  0  0  0  0
   -1.2551    1.0030    1.5363 C   0  0  0  0  0  0  0  0  0  0  0  0
   -2.0308    1.6934    0.8901 O   0  0  0  0  0  0  0  0  0  0  0  0
   -0.5514    1.5833    2.5793 N   0  0  0  0  0  0  0  0  0  0  0  0
   -0.1199    0.9273    3.2255 H   0  0  0  0  0  0  0  0  0  0  0  0
   -0.9193    2.8966    3.1038 C   0  0  0  0  0  0  0  0  0  0  0  0
   -1.9501    2.8859    3.4755 H   0  0  0  0  0  0  0  0  0  0  0  0
   -0.2577    3.1766    3.9294 H   0  0  0  0  0  0  0  0  0  0  0  0
   -0.8387    3.6612    2.3235 H   0  0  0  0  0  0  0  0  0  0  0  0
  1  2  1  0  0  0  0
  2  3  1  0  0  0  0
  2  4  1  0  0  0  0
  2  5  1  0  0  0  0
  5  6  2  0  0  0  0
  5  7  1  0  0  0  0
  7  8  1  0  0  0  0
  7  9  1  0  0  0  0
  9 10  1  0  0  0  0
  9 11  1  0  0  0  0
  9 27  1  0  0  0  0
 11 12  1  0  0  0  0
 11 13  1  0  0  0  0
 11 14  1  0  0  0  0
 14 15  1  0  0  0  0
 14 16  1  0  0  0  0
 14 17  1  0  0  0  0
 17 18  1  0  0  0  0
 17 19  1  0  0  0  0
 17 20  1  0  0  0  0
 20 21  1  0  0  0  0
 20 22  1  0  0  0  0
 20 23  1  0  0  0  0
 23 24  1  0  0  0  0
 23 25  1  0  0  0  0
 23 26  1  0  0  0  0
 27 28  2  0  0  0  0
 27 29  1  0  0  0  0
 29 30  1  0  0  0  0
 29 31  1  0  0  0  0
 31 32  1  0  0  0  0
 31 33  1  0  0  0  0
 31 34  1  0  0  0  0
M  CHG  1  23   1
M  END
$$$$

  -OEChem-02102214153D

 34 33  0     1  0  0  0  0  0999 V2000
   -3.7360   -4.1528    1.5322 H   0  0  0  0  0  0  0  0  0  0  0  0
   -3.7658   -3.1272    1.1534 C   0  0  0  0  0  0  0  0  0  0  0  0
   -4.5362   -2.5740    1.6961 H   0  0  0  0  0  0  0  0  0  0  0  0
   -4.0249   -3.1526    0.0921 H   0  0  0  0  0  0  0  0  0  0  0  0
   -2.4166   -2.4607    1.3428 C   0  0  0  0  0  0  0  0  0  0  0  0
   -1.5061   -3.0532    1.9010 O   0  0  0  0  0  0  0  0  0  0  0  0
   -2.2038   -1.1767    0.8829 N   0  0  0  0  0  0  0  0  0  0  0  0
   -2.9981   -0.6814    0.4779 H   0  0  0  0  0  0  0  0  0  0  0  0
   -0.9531   -0.4271    1.0724 C   0  0  1  0  0  0  0  0  0  0  0  0
   -0.3318   -0.8989    1.8394 H   0  0  0  0  0  0  0  0  0  0  0  0
   -0.2480   -0.5034   -0.3060 C   0  0  0  0  0  0  0  0  0  0  0  0
   -0.3507   -1.5258   -0.6881 H   0  0  0  0  0  0  0  0  0  0  0  0
   -0.8057    0.1415   -0.9949 H   0  0  0  0  0  0  0  0  0  0  0  0
    1.2497   -0.1346   -0.4240 C   0  0  0  0  0  0  0  0  0  0  0  0
    1.8020   -1.0728   -0.5515 H   0  0  0  0  0  0  0  0  0  0  0  0
    1.3833    0.4431   -1.3457 H   0  0  0  0  0  0  0  0  0  0  0  0
    1.8908    0.6260    0.7431 C   0  0  0  0  0  0  0  0  0  0  0  0
    1.4013    1.5989    0.8502 H   0  0  0  0  0  0  0  0  0  0  0  0
    1.7727    0.0619    1.6737 H   0  0  0  0  0  0  0  0  0  0  0  0
    3.3757    0.8374    0.4512 C   0  0  0  0  0  0  0  0  0  0  0  0
    3.8677   -0.1414    0.3502 H   0  0  0  0  0  0  0  0  0  0  0  0
    3.4806    1.3530   -0.5150 H   0  0  0  0  0  0  0  0  0  0  0  0
    3.9847    1.6305    1.5409 N   0  3  0  0  0  0  0  0  0  0  0  0
    3.9226    1.1194    2.4233 H   0  0  0  0  0  0  0  0  0  0  0  0
    4.9692    1.8134    1.3331 H   0  0  0  0  0  0  0  0  0  0  0  0
    3.4958    2.5229    1.6373 H   0  0  0  0  0  0  0  0  0  0  0  0
   -1.2832    1.0134    1.5212 C   0  0  0  0  0  0  0  0  0  0  0  0
   -2.0677    1.6849    0.8659 O   0  0  0  0  0  0  0  0  0  0  0  0
   -0.5940    1.6118    2.5637 N   0  0  0  0  0  0  0  0  0  0  0  0
   -0.1710    0.9704    3.2288 H   0  0  0  0  0  0  0  0  0  0  0  0
   -0.9561    2.9420    3.0490 C   0  0  0  0  0  0  0  0  0  0  0  0
   -1.9919    2.9517    3.4060 H   0  0  0  0  0  0  0  0  0  0  0  0
   -0.3033    3.2379    3.8760 H   0  0  0  0  0  0  0  0  0  0  0  0
   -0.8561    3.6849    2.2501 H   0  0  0  0  0  0  0  0  0  0  0  0
  1  2  1  0  0  0  0
  2  3  1  0  0  0  0
  2  4  1  0  0  0  0
  2  5  1  0  0  0  0
  5  6  2  0  0  0  0
  5  7  1  0  0  0  0
  7  8  1  0  0  0  0
  7  9  1  0  0  0  0
  9 10  1  0  0  0  0
  9 11  1  0  0  0  0
  9 27  1  0  0  0  0
 11 12  1  0  0  0  0
 11 13  1  0  0  0  0
 11 14  1  0  0  0  0
 14 15  1  0  0  0  0
 14 16  1  0  0  0  0
 14 17  1  0  0  0  0
 17 18  1  0  0  0  0
 17 19  1  0  0  0  0
 17 20  1  0  0  0  0
 20 21  1  0  0  0  0
 20 22  1  0  0  0  0
 20 23  1  0  0  0  0
 23 24  1  0  0  0  0
 23 25  1  0  0  0  0
 23 26  1  0  0  0  0
 27 28  2  0  0  0  0
 27 29  1  0  0  0  0
 29 30  1  0  0  0  0
 29 31  1  0  0  0  0
 31 32  1  0  0  0  0
 31 33  1  0  0  0  0
 31 34  1  0  0  0  0
M  CHG  1  23   1
M  END
$$$$

  -OEChem-02102214153D

 34 33  0     1  0  0  0  0  0999 V2000
   -3.7621   -4.1337    1.5461 H   0  0  0  0  0  0  0  0  0  0  0  0
   -3.7845   -3.1100    1.1613 C   0  0  0  0  0  0  0  0  0  0  0  0
   -4.5541   -2.5494    1.6975 H   0  0  0  0  0  0  0  0  0  0  0  0
   -4.0394   -3.1402    0.0990 H   0  0  0  0  0  0  0  0  0  0  0  0
   -2.4324   -2.4498    1.3527 C   0  0  0  0  0  0  0  0  0  0  0  0
   -1.5291   -3.0414    1.9243 O   0  0  0  0  0  0  0  0  0  0  0  0
   -2.2070   -1.1742    0.8761 N   0  0  0  0  0  0  0  0  0  0  0  0
   -2.9954   -0.6777    0.4606 H   0  0  0  0  0  0  0  0  0  0  0  0
   -0.9552   -0.4286    1.0720 C   0  0  1  0  0  0  0  0  0  0  0  0
   -0.3499   -0.8935    1.8548 H   0  0  0  0  0  0  0  0  0  0  0  0
   -0.2348   -0.5112   -0.2973 C   0  0  0  0  0  0  0  0  0  0  0  0
   -0.3267   -1.5437   -0.6544 H   0  0  0  0  0  0  0  0  0  0  0  0
   -0.7873    0.1117   -1.0101 H   0  0  0  0  0  0  0  0  0  0  0  0
    1.2661   -0.1480   -0.4038 C   0  0  0  0  0  0  0  0  0  0  0  0
    1.7842   -1.0230   -0.8134 H   0  0  0  0  0  0  0  0  0  0  0  0
    1.3630    0.6545   -1.1441 H   0  0  0  0  0  0  0  0  0  0  0  0
    1.9916    0.2864    0.8768 C   0  0  0  0  0  0  0  0  0  0  0  0
    1.5802    1.2363    1.2268 H   0  0  0  0  0  0  0  0  0  0  0  0
    1.8609   -0.4697    1.6577 H   0  0  0  0  0  0  0  0  0  0  0  0
    3.4796    0.4612    0.5749 C   0  0  0  0  0  0  0  0  0  0  0  0
    3.8884   -0.4936    0.2118 H   0  0  0  0  0  0  0  0  0  0  0  0
    3.5978    1.1930   -0.2380 H   0  0  0  0  0  0  0  0  0  0  0  0
    4.1831    0.9087    1.7966 N   0  3  0  0  0  0  0  0  0  0  0  0
    4.0818    0.2093    2.5347 H   0  0  0  0  0  0  0  0  0  0  0  0
    5.1782    1.0395    1.5999 H   0  0  0  0  0  0  0  0  0  0  0  0
    3.7912    1.7949    2.1207 H   0  0  0  0  0  0  0  0  0  0  0  0
   -1.2820    1.0206    1.4940 C   0  0  0  0  0  0  0  0  0  0  0  0
   -2.0688    1.6787    0.8281 O   0  0  0  0  0  0  0  0  0  0  0  0
   -0.6051    1.6329    2.5358 N   0  0  0  0  0  0  0  0  0  0  0  0
   -0.1820    1.0044    3.2123 H   0  0  0  0  0  0  0  0  0  0  0  0
   -0.9574    2.9765    2.9905 C   0  0  0  0  0  0  0  0  0  0  0  0
   -1.9945    3.0035    3.3427 H   0  0  0  0  0  0  0  0  0  0  0  0
   -0.3048    3.2846    3.8131 H   0  0  0  0  0  0  0  0  0  0  0  0
   -0.8470    3.7010    2.1761 H   0  0  0  0  0  0  0  0  0  0  0  0
  1  2  1  0  0  0  0
  2  3  1  0  0  0  0
  2  4  1  0  0  0  0
  2  5  1  0  0  0  0
  5  6  2  0  0  0  0
  5  7  1  0  0  0  0
  7  8  1  0  0  0  0
  7  9  1  0  0  0  0
  9 10  1  0  0  0  0
  9 11  1  0  0  0  0
  9 27  1  0  0  0  0
 11 12  1  0  0  0  0
 11 13  1  0  0  0  0
 11 14  1  0  0  0  0
 14 15  1  0  0  0  0
 14 16  1  0  0  0  0
 14 17  1  0  0  0  0
 17 18  1  0  0  0  0
 17 19  1  0  0  0  0
 17 20  1  0  0  0  0
 20 21  1  0  0  0  0
 20 22  1  0  0  0  0
 20 23  1  0  0  0  0
 23 24  1  0  0  0  0
 23 25  1  0  0  0  0
 23 26  1  0  0  0  0
 27 28  2  0  0  0  0
 27 29  1  0  0  0  0
 29 30  1  0  0  0  0
 29 31  1  0  0  0  0
 31 32  1  0  0  0  0
 31 33  1  0  0  0  0
 31 34  1  0  0  0  0
M  CHG  1  23   1
M  END
$$$$

  -OEChem-02102214153D

 34 33  0     1  0  0  0  0  0999 V2000
   -3.7832   -4.0930    1.6304 H   0  0  0  0  0  0  0  0  0  0  0  0
   -3.7934   -3.0840    1.2084 C   0  0  0  0  0  0  0  0  0  0  0  0
   -4.5448   -2.4902    1.7347 H   0  0  0  0  0  0  0  0  0  0  0  0
   -4.0644   -3.1480    0.1517 H   0  0  0  0  0  0  0  0  0  0  0  0
   -2.4276   -2.4422    1.3568 C   0  0  0  0  0  0  0  0  0  0  0  0
   -1.5191   -3.0392    1.9153 O   0  0  0  0  0  0  0  0  0  0  0  0
   -2.1973   -1.1741    0.8635 N   0  0  0  0  0  0  0  0  0  0  0  0
   -2.9905   -0.6676    0.4691 H   0  0  0  0  0  0  0  0  0  0  0  0
   -0.9393   -0.4368    1.0450 C   0  0  1  0  0  0  0  0  0  0  0  0
   -0.3361   -0.8984    1.8309 H   0  0  0  0  0  0  0  0  0  0  0  0
   -0.2200   -0.5109   -0.3232 C   0  0  0  0  0  0  0  0  0  0  0  0
   -0.3001   -1.5486   -0.6667 H   0  0  0  0  0  0  0  0  0  0  0  0
   -0.7699    0.0990   -1.0493 H   0  0  0  0  0  0  0  0  0  0  0  0
    1.2807   -0.1474   -0.4063 C   0  0  0  0  0  0  0  0  0  0  0  0
    1.7629   -0.8708   -1.0739 H   0  0  0  0  0  0  0  0  0  0  0  0
    1.3556    0.8339   -0.8889 H   0  0  0  0  0  0  0  0  0  0  0  0
    2.0591   -0.0803    0.9163 C   0  0  0  0  0  0  0  0  0  0  0  0
    1.6915    0.7456    1.5298 H   0  0  0  0  0  0  0  0  0  0  0  0
    1.9224   -1.0173    1.4672 H   0  0  0  0  0  0  0  0  0  0  0  0
    3.5439    0.1255    0.6167 C   0  0  0  0  0  0  0  0  0  0  0  0
    3.8891   -0.6775   -0.0512 H   0  0  0  0  0  0  0  0  0  0  0  0
    3.6750    1.0737    0.0747 H   0  0  0  0  0  0  0  0  0  0  0  0
    4.3107    0.1231    1.8816 N   0  3  0  0  0  0  0  0  0  0  0  0
    4.1742   -0.7640    2.3710 H   0  0  0  0  0  0  0  0  0  0  0  0
    5.3076    0.2426    1.6873 H   0  0  0  0  0  0  0  0  0  0  0  0
    3.9975    0.8871    2.4829 H   0  0  0  0  0  0  0  0  0  0  0  0
   -1.2508    1.0198    1.4521 C   0  0  0  0  0  0  0  0  0  0  0  0
   -2.0542    1.6680    0.7959 O   0  0  0  0  0  0  0  0  0  0  0  0
   -0.5644    1.6403    2.4819 N   0  0  0  0  0  0  0  0  0  0  0  0
   -0.1207    1.0225    3.1545 H   0  0  0  0  0  0  0  0  0  0  0  0
   -0.9021    2.9922    2.9218 C   0  0  0  0  0  0  0  0  0  0  0  0
   -1.9375    3.0334    3.2774 H   0  0  0  0  0  0  0  0  0  0  0  0
   -0.2430    3.3040    3.7378 H   0  0  0  0  0  0  0  0  0  0  0  0
   -0.7882    3.7048    2.0976 H   0  0  0  0  0  0  0  0  0  0  0  0
  1  2  1  0  0  0  0
  2  3  1  0  0  0  0
  2  4  1  0  0  0  0
  2  5  1  0  0  0  0
  5  6  2  0  0  0  0
  5  7  1  0  0  0  0
  7  8  1  0  0  0  0
  7  9  1  0  0  0  0
  9 10  1  0  0  0  0
  9 11  1  0  0  0  0
  9 27  1  0  0  0  0
 11 12  1  0  0  0  0
 11 13  1  0  0  0  0
 11 14  1  0  0  0  0
 14 15  1  0  0  0  0
 14 16  1  0  0  0  0
 14 17  1  0  0  0  0
 17 18  1  0  0  0  0
 17 19  1  0  0  0  0
 17 20  1  0  0  0  0
 20 21  1  0  0  0  0
 20 22  1  0  0  0  0
 20 23  1  0  0  0  0
 23 24  1  0  0  0  0
 23 25  1  0  0  0  0
 23 26  1  0  0  0  0
 27 28  2  0  0  0  0
 27 29  1  0  0  0  0
 29 30  1  0  0  0  0
 29 31  1  0  0  0  0
 31 32  1  0  0  0  0
 31 33  1  0  0  0  0
 31 34  1  0  0  0  0
M  CHG  1  23   1
M  END
$$$$

  -OEChem-02102214153D

 34 33  0     1  0  0  0  0  0999 V2000
   -3.7412   -4.0982    1.6898 H   0  0  0  0  0  0  0  0  0  0  0  0
   -3.7638   -3.0943    1.2567 C   0  0  0  0  0  0  0  0  0  0  0  0
   -4.4995   -2.4945    1.7981 H   0  0  0  0  0  0  0  0  0  0  0  0
   -4.0659   -3.1703    0.2093 H   0  0  0  0  0  0  0  0  0  0  0  0
   -2.3942   -2.4508    1.3571 C   0  0  0  0  0  0  0  0  0  0  0  0
   -1.4646   -3.0488    1.8797 O   0  0  0  0  0  0  0  0  0  0  0  0
   -2.1821   -1.1828    0.8545 N   0  0  0  0  0  0  0  0  0  0  0  0
   -2.9892   -0.6769    0.4889 H   0  0  0  0  0  0  0  0  0  0  0  0
   -0.9245   -0.4387    1.0075 C   0  0  1  0  0  0  0  0  0  0  0  0
   -0.3147   -0.8983    1.7884 H   0  0  0  0  0  0  0  0  0  0  0  0
   -0.2144   -0.5029   -0.3637 C   0  0  0  0  0  0  0  0  0  0  0  0
   -0.2803   -1.5407   -0.7095 H   0  0  0  0  0  0  0  0  0  0  0  0
   -0.7658    0.1065   -1.0890 H   0  0  0  0  0  0  0  0  0  0  0  0
    1.2795   -0.1189   -0.4183 C   0  0  0  0  0  0  0  0  0  0  0  0
    1.7308   -0.6418   -1.2693 H   0  0  0  0  0  0  0  0  0  0  0  0
    1.3447    0.9555   -0.6258 H   0  0  0  0  0  0  0  0  0  0  0  0
    2.0858   -0.4064    0.8578 C   0  0  0  0  0  0  0  0  0  0  0  0
    1.7732    0.2630    1.6643 H   0  0  0  0  0  0  0  0  0  0  0  0
    1.9001   -1.4400    1.1718 H   0  0  0  0  0  0  0  0  0  0  0  0
    3.5758   -0.2170    0.5759 C   0  0  0  0  0  0  0  0  0  0  0  0
    3.8547   -0.8240   -0.2982 H   0  0  0  0  0  0  0  0  0  0  0  0
    3.7648    0.8343    0.3123 H   0  0  0  0  0  0  0  0  0  0  0  0
    4.3568   -0.6224    1.7653 N   0  3  0  0  0  0  0  0  0  0  0  0
    4.1526   -1.5963    2.0010 H   0  0  0  0  0  0  0  0  0  0  0  0
    5.3576   -0.5318    1.5755 H   0  0  0  0  0  0  0  0  0  0  0  0
    4.1164   -0.0308    2.5623 H   0  0  0  0  0  0  0  0  0  0  0  0
   -1.2094    1.0219    1.4160 C   0  0  0  0  0  0  0  0  0  0  0  0
   -2.0340    1.6703    0.7874 O   0  0  0  0  0  0  0  0  0  0  0  0
   -0.4892    1.6380    2.4249 N   0  0  0  0  0  0  0  0  0  0  0  0
   -0.0115    1.0239    3.0764 H   0  0  0  0  0  0  0  0  0  0  0  0
   -0.7946    2.9969    2.8669 C   0  0  0  0  0  0  0  0  0  0  0  0
   -1.8178    3.0547    3.2541 H   0  0  0  0  0  0  0  0  0  0  0  0
   -0.1067    3.3044    3.6603 H   0  0  0  0  0  0  0  0  0  0  0  0
   -0.6959    3.7036    2.0356 H   0  0  0  0  0  0  0  0  0  0  0  0
  1  2  1  0  0  0  0
  2  3  1  0  0  0  0
  2  4  1  0  0  0  0
  2  5  1  0  0  0  0
  5  6  2  0  0  0  0
  5  7  1  0  0  0  0
  7  8  1  0  0  0  0
  7  9  1  0  0  0  0
  9 10  1  0  0  0  0
  9 11  1  0  0  0  0
  9 27  1  0  0  0  0
 11 12  1  0  0  0  0
 11 13  1  0  0  0  0
 11 14  1  0  0  0  0
 14 15  1  0  0  0  0
 14 16  1  0  0  0  0
 14 17  1  0  0  0  0
 17 18  1  0  0  0  0
 17 19  1  0  0  0  0
 17 20  1  0  0  0  0
 20 21  1  0  0  0  0
 20 22  1  0  0  0  0
 20 23  1  0  0  0  0
 23 24  1  0  0  0  0
 23 25  1  0  0  0  0
 23 26  1  0  0  0  0
 27 28  2  0  0  0  0
 27 29  1  0  0  0  0
 29 30  1  0  0  0  0
 29 31  1  0  0  0  0
 31 32  1  0  0  0  0
 31 33  1  0  0  0  0
 31 34  1  0  0  0  0
M  CHG  1  23   1
M  END
$$$$

  -OEChem-02102214153D

 34 33  0     1  0  0  0  0  0999 V2000
   -3.6754   -4.1124    1.7194 H   0  0  0  0  0  0  0  0  0  0  0  0
   -3.7171   -3.1075    1.2897 C   0  0  0  0  0  0  0  0  0  0  0  0
   -4.4352   -2.5116    1.8585 H   0  0  0  0  0  0  0  0  0  0  0  0
   -4.0567   -3.1824    0.2537 H   0  0  0  0  0  0  0  0  0  0  0  0
   -2.3470   -2.4591    1.3412 C   0  0  0  0  0  0  0  0  0  0  0  0
   -1.3934   -3.0601    1.8165 O   0  0  0  0  0  0  0  0  0  0  0  0
   -2.1595   -1.1868    0.8395 N   0  0  0  0  0  0  0  0  0  0  0  0
   -2.9833   -0.6797    0.5146 H   0  0  0  0  0  0  0  0  0  0  0  0
   -0.9059   -0.4323    0.9696 C   0  0  1  0  0  0  0  0  0  0  0  0
   -0.2869   -0.8905    1.7439 H   0  0  0  0  0  0  0  0  0  0  0  0
   -0.2034   -0.4915   -0.4037 C   0  0  0  0  0  0  0  0  0  0  0  0
   -0.2607   -1.5249   -0.7632 H   0  0  0  0  0  0  0  0  0  0  0  0
   -0.7556    0.1261   -1.1213 H   0  0  0  0  0  0  0  0  0  0  0  0
    1.2828   -0.0848   -0.4266 C   0  0  0  0  0  0  0  0  0  0  0  0
    1.6987   -0.3889   -1.3936 H   0  0  0  0  0  0  0  0  0  0  0  0
    1.3523    1.0076   -0.3702 H   0  0  0  0  0  0  0  0  0  0  0  0
    2.1123   -0.6965    0.7139 C   0  0  0  0  0  0  0  0  0  0  0  0
    1.8734   -0.2021    1.6608 H   0  0  0  0  0  0  0  0  0  0  0  0
    1.8592   -1.7593    0.8061 H   0  0  0  0  0  0  0  0  0  0  0  0
    3.6039   -0.5512    0.4182 C   0  0  0  0  0  0  0  0  0  0  0  0
    3.8134   -0.9584   -0.5821 H   0  0  0  0  0  0  0  0  0  0  0  0
    3.8696    0.5161    0.3951 H   0  0  0  0  0  0  0  0  0  0  0  0
    4.3740   -1.2777    1.4518 N   0  3  0  0  0  0  0  0  0  0  0  0
    4.0976   -2.2623    1.4636 H   0  0  0  0  0  0  0  0  0  0  0  0
    5.3750   -1.2180    1.2515 H   0  0  0  0  0  0  0  0  0  0  0  0
    4.1955   -0.8735    2.3727 H   0  0  0  0  0  0  0  0  0  0  0  0
   -1.1773    1.0265    1.3906 C   0  0  0  0  0  0  0  0  0  0  0  0
   -2.0293    1.6737    0.7985 O   0  0  0  0  0  0  0  0  0  0  0  0
   -0.4289    1.6336    2.3839 N   0  0  0  0  0  0  0  0  0  0  0  0
    0.0988    1.0209    2.9968 H   0  0  0  0  0  0  0  0  0  0  0  0
   -0.7199    2.9866    2.8520 C   0  0  0  0  0  0  0  0  0  0  0  0
   -1.7297    3.0389    3.2736 H   0  0  0  0  0  0  0  0  0  0  0  0
   -0.0058    3.2844    3.6259 H   0  0  0  0  0  0  0  0  0  0  0  0
   -0.6487    3.7030    2.0263 H   0  0  0  0  0  0  0  0  0  0  0  0
  1  2  1  0  0  0  0
  2  3  1  0  0  0  0
  2  4  1  0  0  0  0
  2  5  1  0  0  0  0
  5  6  2  0  0  0  0
  5  7  1  0  0  0  0
  7  8  1  0  0  0  0
  7  9  1  0  0  0  0
  9 10  1  0  0  0  0
  9 11  1  0  0  0  0
  9 27  1  0  0  0  0
 11 12  1  0  0  0  0
 11 13  1  0  0  0  0
 11 14  1  0  0  0  0
 14 15  1  0  0  0  0
 14 16  1  0  0  0  0
 14 17  1  0  0  0  0
 17 18  1  0  0  0  0
 17 19  1  0  0  0  0
 17 20  1  0  0  0  0
 20 21  1  0  0  0  0
 20 22  1  0  0  0  0
 20 23  1  0  0  0  0
 23 24  1  0  0  0  0
 23 25  1  0  0  0  0
 23 26  1  0  0  0  0
 27 28  2  0  0  0  0
 27 29  1  0  0  0  0
 29 30  1  0  0  0  0
 29 31  1  0  0  0  0
 31 32  1  0  0  0  0
 31 33  1  0  0  0  0
 31 34  1  0  0  0  0
M  CHG  1  23   1
M  END
$$$$

  -OEChem-02102214153D

 34 33  0     1  0  0  0  0  0999 V2000
   -3.6524   -4.1066    1.7302 H   0  0  0  0  0  0  0  0  0  0  0  0
   -3.6988   -3.0979    1.3102 C   0  0  0  0  0  0  0  0  0  0  0  0
   -4.3929   -2.5009    1.9069 H   0  0  0  0  0  0  0  0  0  0  0  0
   -4.0724   -3.1613    0.2852 H   0  0  0  0  0  0  0  0  0  0  0  0
   -2.3220   -2.4614    1.3228 C   0  0  0  0  0  0  0  0  0  0  0  0
   -1.3573   -3.0758    1.7572 O   0  0  0  0  0  0  0  0  0  0  0  0
   -2.1408   -1.1864    0.8262 N   0  0  0  0  0  0  0  0  0  0  0  0
   -2.9727   -0.6679    0.5418 H   0  0  0  0  0  0  0  0  0  0  0  0
   -0.8835   -0.4362    0.9430 C   0  0  1  0  0  0  0  0  0  0  0  0
   -0.2555   -0.8964    1.7090 H   0  0  0  0  0  0  0  0  0  0  0  0
   -0.1917   -0.4944   -0.4341 C   0  0  0  0  0  0  0  0  0  0  0  0
   -0.2616   -1.5180   -0.8187 H   0  0  0  0  0  0  0  0  0  0  0  0
   -0.7382    0.1480   -1.1342 H   0  0  0  0  0  0  0  0  0  0  0  0
    1.2921   -0.0865   -0.4324 C   0  0  0  0  0  0  0  0  0  0  0  0
    1.6591   -0.1544   -1.4627 H   0  0  0  0  0  0  0  0  0  0  0  0
    1.3888    0.9589   -0.1180 H   0  0  0  0  0  0  0  0  0  0  0  0
    2.1442   -0.9871    0.4781 C   0  0  0  0  0  0  0  0  0  0  0  0
    1.9510   -0.7514    1.5292 H   0  0  0  0  0  0  0  0  0  0  0  0
    1.8644   -2.0332    0.3072 H   0  0  0  0  0  0  0  0  0  0  0  0
    3.6295   -0.8019    0.1763 C   0  0  0  0  0  0  0  0  0  0  0  0
    3.8002   -0.9500   -0.9003 H   0  0  0  0  0  0  0  0  0  0  0  0
    3.9243    0.2313    0.4121 H   0  0  0  0  0  0  0  0  0  0  0  0
    4.4036   -1.7802    0.9720 N   0  3  0  0  0  0  0  0  0  0  0  0
    4.1089   -2.7308    0.7364 H   0  0  0  0  0  0  0  0  0  0  0  0
    5.4022   -1.6849    0.7740 H   0  0  0  0  0  0  0  0  0  0  0  0
    4.2465   -1.6249    1.9695 H   0  0  0  0  0  0  0  0  0  0  0  0
   -1.1482    1.0197    1.3775 C   0  0  0  0  0  0  0  0  0  0  0  0
   -2.0214    1.6645    0.8139 O   0  0  0  0  0  0  0  0  0  0  0  0
   -0.3863    1.6208    2.3637 N   0  0  0  0  0  0  0  0  0  0  0  0
    0.1812    1.0123    2.9445 H   0  0  0  0  0  0  0  0  0  0  0  0
   -0.6694    2.9692    2.8487 C   0  0  0  0  0  0  0  0  0  0  0  0
   -1.6686    3.0150    3.2956 H   0  0  0  0  0  0  0  0  0  0  0  0
    0.0629    3.2635    3.6068 H   0  0  0  0  0  0  0  0  0  0  0  0
   -0.6210    3.6920    2.0268 H   0  0  0  0  0  0  0  0  0  0  0  0
  1  2  1  0  0  0  0
  2  3  1  0  0  0  0
  2  4  1  0  0  0  0
  2  5  1  0  0  0  0
  5  6  2  0  0  0  0
  5  7  1  0  0  0  0
  7  8  1  0  0  0  0
  7  9  1  0  0  0  0
  9 10  1  0  0  0  0
  9 11  1  0  0  0  0
  9 27  1  0  0  0  0
 11 12  1  0  0  0  0
 11 13  1  0  0  0  0
 11 14  1  0  0  0  0
 14 15  1  0  0  0  0
 14 16  1  0  0  0  0
 14 17  1  0  0  0  0
 17 18  1  0  0  0  0
 17 19  1  0  0  0  0
 17 20  1  0  0  0  0
 20 21  1  0  0  0  0
 20 22  1  0  0  0  0
 20 23  1  0  0  0  0
 23 24  1  0  0  0  0
 23 25  1  0  0  0  0
 23 26  1  0  0  0  0
 27 28  2  0  0  0  0
 27 29  1  0  0  0  0
 29 30  1  0  0  0  0
 29 31  1  0  0  0  0
 31 32  1  0  0  0  0
 31 33  1  0  0  0  0
 31 34  1  0  0  0  0
M  CHG  1  23   1
M  END
$$$$

  -OEChem-02102214153D

 34 33  0     1  0  0  0  0  0999 V2000
   -3.6525   -4.0842    1.7798 H   0  0  0  0  0  0  0  0  0  0  0  0
   -3.7006   -3.0761    1.3583 C   0  0  0  0  0  0  0  0  0  0  0  0
   -4.3575   -2.4652    1.9824 H   0  0  0  0  0  0  0  0  0  0  0  0
   -4.1192   -3.1353    0.3506 H   0  0  0  0  0  0  0  0  0  0  0  0
   -2.3145   -2.4629    1.3090 C   0  0  0  0  0  0  0  0  0  0  0  0
   -1.3403   -3.0982    1.6890 O   0  0  0  0  0  0  0  0  0  0  0  0
   -2.1363   -1.1855    0.8176 N   0  0  0  0  0  0  0  0  0  0  0  0
   -2.9722   -0.6507    0.5792 H   0  0  0  0  0  0  0  0  0  0  0  0
   -0.8672   -0.4520    0.9037 C   0  0  1  0  0  0  0  0  0  0  0  0
   -0.2198   -0.9221    1.6477 H   0  0  0  0  0  0  0  0  0  0  0  0
   -0.2118   -0.5173   -0.4897 C   0  0  0  0  0  0  0  0  0  0  0  0
   -0.3141   -1.5303   -0.8945 H   0  0  0  0  0  0  0  0  0  0  0  0
   -0.7581    0.1514   -1.1648 H   0  0  0  0  0  0  0  0  0  0  0  0
    1.2749   -0.1247   -0.4932 C   0  0  0  0  0  0  0  0  0  0  0  0
    1.5783    0.0535   -1.5309 H   0  0  0  0  0  0  0  0  0  0  0  0
    1.4240    0.8111    0.0566 H   0  0  0  0  0  0  0  0  0  0  0  0
    2.1430   -1.2474    0.0987 C   0  0  0  0  0  0  0  0  0  0  0  0
    1.9095   -1.3836    1.1594 H   0  0  0  0  0  0  0  0  0  0  0  0
    1.9130   -2.1860   -0.4182 H   0  0  0  0  0  0  0  0  0  0  0  0
    3.6262   -0.9258   -0.0629 C   0  0  0  0  0  0  0  0  0  0  0  0
    3.8406   -0.7246   -1.1229 H   0  0  0  0  0  0  0  0  0  0  0  0
    3.8642   -0.0090    0.4962 H   0  0  0  0  0  0  0  0  0  0  0  0
    4.4147   -2.0769    0.4291 N   0  3  0  0  0  0  0  0  0  0  0  0
    4.2028   -2.9073   -0.1284 H   0  0  0  0  0  0  0  0  0  0  0  0
    5.4148   -1.8770    0.3584 H   0  0  0  0  0  0  0  0  0  0  0  0
    4.1823   -2.2694    1.4055 H   0  0  0  0  0  0  0  0  0  0  0  0
   -1.1057    1.0027    1.3594 C   0  0  0  0  0  0  0  0  0  0  0  0
   -1.9958    1.6573    0.8351 O   0  0  0  0  0  0  0  0  0  0  0  0
   -0.3102    1.5877    2.3288 N   0  0  0  0  0  0  0  0  0  0  0  0
    0.2884    0.9731    2.8711 H   0  0  0  0  0  0  0  0  0  0  0  0
   -0.5694    2.9295    2.8444 C   0  0  0  0  0  0  0  0  0  0  0  0
   -1.5506    2.9719    3.3294 H   0  0  0  0  0  0  0  0  0  0  0  0
    0.1918    3.2093    3.5791 H   0  0  0  0  0  0  0  0  0  0  0  0
   -0.5484    3.6651    2.0329 H   0  0  0  0  0  0  0  0  0  0  0  0
  1  2  1  0  0  0  0
  2  3  1  0  0  0  0
  2  4  1  0  0  0  0
  2  5  1  0  0  0  0
  5  6  2  0  0  0  0
  5  7  1  0  0  0  0
  7  8  1  0  0  0  0
  7  9  1  0  0  0  0
  9 10  1  0  0  0  0
  9 11  1  0  0  0  0
  9 27  1  0  0  0  0
 11 12  1  0  0  0  0
 11 13  1  0  0  0  0
 11 14  1  0  0  0  0
 14 15  1  0  0  0  0
 14 16  1  0  0  0  0
 14 17  1  0  0  0  0
 17 18  1  0  0  0  0
 17 19  1  0  0  0  0
 17 20  1  0  0  0  0
 20 21  1  0  0  0  0
 20 22  1  0  0  0  0
 20 23  1  0  0  0  0
 23 24  1  0  0  0  0
 23 25  1  0  0  0  0
 23 26  1  0  0  0  0
 27 28  2  0  0  0  0
 27 29  1  0  0  0  0
 29 30  1  0  0  0  0
 29 31  1  0  0  0  0
 31 32  1  0  0  0  0
 31 33  1  0  0  0  0
 31 34  1  0  0  0  0
M  CHG  1  23   1
M  END
$$$$

  -OEChem-02102214153D

 34 33  0     1  0  0  0  0  0999 V2000
   -3.6195   -4.0912    1.8030 H   0  0  0  0  0  0  0  0  0  0  0  0
   -3.6763   -3.0857    1.3770 C   0  0  0  0  0  0  0  0  0  0  0  0
   -4.3232   -2.4728    2.0095 H   0  0  0  0  0  0  0  0  0  0  0  0
   -4.1129   -3.1510    0.3774 H   0  0  0  0  0  0  0  0  0  0  0  0
   -2.2918   -2.4714    1.2998 C   0  0  0  0  0  0  0  0  0  0  0  0
   -1.3074   -3.1144    1.6378 O   0  0  0  0  0  0  0  0  0  0  0  0
   -2.1254   -1.1883    0.8199 N   0  0  0  0  0  0  0  0  0  0  0  0
   -2.9668   -0.6484    0.6141 H   0  0  0  0  0  0  0  0  0  0  0  0
   -0.8529   -0.4578    0.8778 C   0  0  1  0  0  0  0  0  0  0  0  0
   -0.1772   -0.9376    1.5923 H   0  0  0  0  0  0  0  0  0  0  0  0
   -0.2390   -0.5168   -0.5330 C   0  0  0  0  0  0  0  0  0  0  0  0
   -0.3640   -1.5214   -0.9522 H   0  0  0  0  0  0  0  0  0  0  0  0
   -0.7976    0.1681   -1.1812 H   0  0  0  0  0  0  0  0  0  0  0  0
    1.2475   -0.1248   -0.5543 C   0  0  0  0  0  0  0  0  0  0  0  0
    1.4794    0.3092   -1.5334 H   0  0  0  0  0  0  0  0  0  0  0  0
    1.4613    0.6391    0.2007 H   0  0  0  0  0  0  0  0  0  0  0  0
    2.1205   -1.3702   -0.3411 C   0  0  0  0  0  0  0  0  0  0  0  0
    1.8674   -1.8316    0.6199 H   0  0  0  0  0  0  0  0  0  0  0  0
    1.9061   -2.1000   -1.1301 H   0  0  0  0  0  0  0  0  0  0  0  0
    3.6024   -1.0079   -0.3665 C   0  0  0  0  0  0  0  0  0  0  0  0
    3.8436   -0.5280   -1.3266 H   0  0  0  0  0  0  0  0  0  0  0  0
    3.8121   -0.2738    0.4253 H   0  0  0  0  0  0  0  0  0  0  0  0
    4.3909   -2.2447   -0.1735 N   0  3  0  0  0  0  0  0  0  0  0  0
    4.1944   -2.9047   -0.9291 H   0  0  0  0  0  0  0  0  0  0  0  0
    5.3905   -2.0303   -0.1721 H   0  0  0  0  0  0  0  0  0  0  0  0
    4.1431   -2.6818    0.7168 H   0  0  0  0  0  0  0  0  0  0  0  0
   -1.0775    0.9913    1.3589 C   0  0  0  0  0  0  0  0  0  0  0  0
   -1.9806    1.6531    0.8665 O   0  0  0  0  0  0  0  0  0  0  0  0
   -0.2539    1.5638    2.3122 N   0  0  0  0  0  0  0  0  0  0  0  0
    0.3616    0.9427    2.8280 H   0  0  0  0  0  0  0  0  0  0  0  0
   -0.4920    2.9015    2.8478 C   0  0  0  0  0  0  0  0  0  0  0  0
   -1.4608    2.9449    3.3572 H   0  0  0  0  0  0  0  0  0  0  0  0
    0.2891    3.1684    3.5664 H   0  0  0  0  0  0  0  0  0  0  0  0
   -0.4864    3.6450    2.0433 H   0  0  0  0  0  0  0  0  0  0  0  0
  1  2  1  0  0  0  0
  2  3  1  0  0  0  0
  2  4  1  0  0  0  0
  2  5  1  0  0  0  0
  5  6  2  0  0  0  0
  5  7  1  0  0  0  0
  7  8  1  0  0  0  0
  7  9  1  0  0  0  0
  9 10  1  0  0  0  0
  9 11  1  0  0  0  0
  9 27  1  0  0  0  0
 11 12  1  0  0  0  0
 11 13  1  0  0  0  0
 11 14  1  0  0  0  0
 14 15  1  0  0  0  0
 14 16  1  0  0  0  0
 14 17  1  0  0  0  0
 17 18  1  0  0  0  0
 17 19  1  0  0  0  0
 17 20  1  0  0  0  0
 20 21  1  0  0  0  0
 20 22  1  0  0  0  0
 20 23  1  0  0  0  0
 23 24  1  0  0  0  0
 23 25  1  0  0  0  0
 23 26  1  0  0  0  0
 27 28  2  0  0  0  0
 27 29  1  0  0  0  0
 29 30  1  0  0  0  0
 29 31  1  0  0  0  0
 31 32  1  0  0  0  0
 31 33  1  0  0  0  0
 31 34  1  0  0  0  0
M  CHG  1  23   1
M  END
$$$$

  -OEChem-02102214153D

 34 33  0     1  0  0  0  0  0999 V2000
   -3.6322   -4.0848    1.8083 H   0  0  0  0  0  0  0  0  0  0  0  0
   -3.6866   -3.0793    1.3816 C   0  0  0  0  0  0  0  0  0  0  0  0
   -4.3202   -2.4603    2.0216 H   0  0  0  0  0  0  0  0  0  0  0  0
   -4.1364   -3.1424    0.3877 H   0  0  0  0  0  0  0  0  0  0  0  0
   -2.2988   -2.4756    1.2856 C   0  0  0  0  0  0  0  0  0  0  0  0
   -1.3148   -3.1307    1.5989 O   0  0  0  0  0  0  0  0  0  0  0  0
   -2.1304   -1.1903    0.8122 N   0  0  0  0  0  0  0  0  0  0  0  0
   -2.9718   -0.6429    0.6279 H   0  0  0  0  0  0  0  0  0  0  0  0
   -0.8556   -0.4634    0.8692 C   0  0  1  0  0  0  0  0  0  0  0  0
   -0.1782   -0.9507    1.5775 H   0  0  0  0  0  0  0  0  0  0  0  0
   -0.2438   -0.5170   -0.5422 C   0  0  0  0  0  0  0  0  0  0  0  0
   -0.3751   -1.5211   -0.9611 H   0  0  0  0  0  0  0  0  0  0  0  0
   -0.8023    0.1695   -1.1892 H   0  0  0  0  0  0  0  0  0  0  0  0
    1.2460   -0.1268   -0.5623 C   0  0  0  0  0  0  0  0  0  0  0  0
    1.4209    0.5492   -1.4070 H   0  0  0  0  0  0  0  0  0  0  0  0
    1.5224    0.4127    0.3497 H   0  0  0  0  0  0  0  0  0  0  0  0
    2.1160   -1.3803   -0.7323 C   0  0  0  0  0  0  0  0  0  0  0  0
    1.9044   -2.0764    0.0878 H   0  0  0  0  0  0  0  0  0  0  0  0
    1.8542   -1.8772   -1.6733 H   0  0  0  0  0  0  0  0  0  0  0  0
    3.5988   -1.0205   -0.7373 C   0  0  0  0  0  0  0  0  0  0  0  0
    3.8000   -0.3198   -1.5612 H   0  0  0  0  0  0  0  0  0  0  0  0
    3.8519   -0.5026    0.1994 H   0  0  0  0  0  0  0  0  0  0  0  0
    4.3835   -2.2653   -0.8890 N   0  3  0  0  0  0  0  0  0  0  0  0
    4.1405   -2.7251   -1.7689 H   0  0  0  0  0  0  0  0  0  0  0  0
    5.3839   -2.0554   -0.8897 H   0  0  0  0  0  0  0  0  0  0  0  0
    4.1784   -2.9035   -0.1170 H   0  0  0  0  0  0  0  0  0  0  0  0
   -1.0740    0.9835    1.3589 C   0  0  0  0  0  0  0  0  0  0  0  0
   -1.9810    1.6475    0.8764 O   0  0  0  0  0  0  0  0  0  0  0  0
   -0.2464    1.5505    2.3119 N   0  0  0  0  0  0  0  0  0  0  0  0
    0.3769    0.9285    2.8177 H   0  0  0  0  0  0  0  0  0  0  0  0
   -0.4811    2.8859    2.8545 C   0  0  0  0  0  0  0  0  0  0  0  0
   -1.4501    2.9282    3.3638 H   0  0  0  0  0  0  0  0  0  0  0  0
    0.3002    3.1481    3.5748 H   0  0  0  0  0  0  0  0  0  0  0  0
   -0.4735    3.6336    2.0538 H   0  0  0  0  0  0  0  0  0  0  0  0
  1  2  1  0  0  0  0
  2  3  1  0  0  0  0
  2  4  1  0  0  0  0
  2  5  1  0  0  0  0
  5  6  2  0  0  0  0
  5  7  1  0  0  0  0
  7  8  1  0  0  0  0
  7  9  1  0  0  0  0
  9 10  1  0  0  0  0
  9 11  1  0  0  0  0
  9 27  1  0  0  0  0
 11 12  1  0  0  0  0
 11 13  1  0  0  0  0
 11 14  1  0  0  0  0
 14 15  1  0  0  0  0
 14 16  1  0  0  0  0
 14 17  1  0  0  0  0
 17 18  1  0  0  0  0
 17 19  1  0  0  0  0
 17 20  1  0  0  0  0
 20 21  1  0  0  0  0
 20 22  1  0  0  0  0
 20 23  1  0  0  0  0
 23 24  1  0  0  0  0
 23 25  1  0  0  0  0
 23 26  1  0  0  0  0
 27 28  2  0  0  0  0
 27 29  1  0  0  0  0
 29 30  1  0  0  0  0
 29 31  1  0  0  0  0
 31 32  1  0  0  0  0
 31 33  1  0  0  0  0
 31 34  1  0  0  0  0
M  CHG  1  23   1
M  END
$$$$

  -OEChem-02102214153D

 34 33  0     1  0  0  0  0  0999 V2000
   -3.6795   -4.0748    1.8072 H   0  0  0  0  0  0  0  0  0  0  0  0
   -3.7230   -3.0696    1.3784 C   0  0  0  0  0  0  0  0  0  0  0  0
   -4.3516   -2.4430    2.0159 H   0  0  0  0  0  0  0  0  0  0  0  0
   -4.1716   -3.1301    0.3838 H   0  0  0  0  0  0  0  0  0  0  0  0
   -2.3287   -2.4804    1.2834 C   0  0  0  0  0  0  0  0  0  0  0  0
   -1.3519   -3.1449    1.5978 O   0  0  0  0  0  0  0  0  0  0  0  0
   -2.1485   -1.1966    0.8106 N   0  0  0  0  0  0  0  0  0  0  0  0
   -2.9861   -0.6443    0.6254 H   0  0  0  0  0  0  0  0  0  0  0  0
   -0.8697   -0.4757    0.8685 C   0  0  1  0  0  0  0  0  0  0  0  0
   -0.1986   -0.9698    1.5783 H   0  0  0  0  0  0  0  0  0  0  0  0
   -0.2526   -0.5283   -0.5403 C   0  0  0  0  0  0  0  0  0  0  0  0
   -0.3778   -1.5414   -0.9384 H   0  0  0  0  0  0  0  0  0  0  0  0
   -0.8100    0.1433   -1.2036 H   0  0  0  0  0  0  0  0  0  0  0  0
    1.2397   -0.1421   -0.5554 C   0  0  0  0  0  0  0  0  0  0  0  0
    1.3714    0.7403   -1.1920 H   0  0  0  0  0  0  0  0  0  0  0  0
    1.5790    0.1276    0.4504 H   0  0  0  0  0  0  0  0  0  0  0  0
    2.0910   -1.3016   -1.0909 C   0  0  0  0  0  0  0  0  0  0  0  0
    1.9392   -2.1809   -0.4541 H   0  0  0  0  0  0  0  0  0  0  0  0
    1.7603   -1.5553   -2.1045 H   0  0  0  0  0  0  0  0  0  0  0  0
    3.5696   -0.9240   -1.1089 C   0  0  0  0  0  0  0  0  0  0  0  0
    3.7111   -0.0408   -1.7493 H   0  0  0  0  0  0  0  0  0  0  0  0
    3.8853   -0.6430   -0.0935 H   0  0  0  0  0  0  0  0  0  0  0  0
    4.3481   -2.0781   -1.6091 N   0  3  0  0  0  0  0  0  0  0  0  0
    4.0451   -2.3196   -2.5548 H   0  0  0  0  0  0  0  0  0  0  0  0
    5.3445   -1.8505   -1.6282 H   0  0  0  0  0  0  0  0  0  0  0  0
    4.2040   -2.8867   -1.0004 H   0  0  0  0  0  0  0  0  0  0  0  0
   -1.0716    0.9736    1.3558 C   0  0  0  0  0  0  0  0  0  0  0  0
   -1.9674    1.6495    0.8688 O   0  0  0  0  0  0  0  0  0  0  0  0
   -0.2353    1.5301    2.3071 N   0  0  0  0  0  0  0  0  0  0  0  0
    0.3792    0.8990    2.8129 H   0  0  0  0  0  0  0  0  0  0  0  0
   -0.4474    2.8700    2.8478 C   0  0  0  0  0  0  0  0  0  0  0  0
   -1.4123    2.9293    3.3629 H   0  0  0  0  0  0  0  0  0  0  0  0
    0.3425    3.1215    3.5623 H   0  0  0  0  0  0  0  0  0  0  0  0
   -0.4336    3.6153    2.0451 H   0  0  0  0  0  0  0  0  0  0  0  0
  1  2  1  0  0  0  0
  2  3  1  0  0  0  0
  2  4  1  0  0  0  0
  2  5  1  0  0  0  0
  5  6  2  0  0  0  0
  5  7  1  0  0  0  0
  7  8  1  0  0  0  0
  7  9  1  0  0  0  0
  9 10  1  0  0  0  0
  9 11  1  0  0  0  0
  9 27  1  0  0  0  0
 11 12  1  0  0  0  0
 11 13  1  0  0  0  0
 11 14  1  0  0  0  0
 14 15  1  0  0  0  0
 14 16  1  0  0  0  0
 14 17  1  0  0  0  0
 17 18  1  0  0  0  0
 17 19  1  0  0  0  0
 17 20  1  0  0  0  0
 20 21  1  0  0  0  0
 20 22  1  0  0  0  0
 20 23  1  0  0  0  0
 23 24  1  0  0  0  0
 23 25  1  0  0  0  0
 23 26  1  0  0  0  0
 27 28  2  0  0  0  0
 27 29  1  0  0  0  0
 29 30  1  0  0  0  0
 29 31  1  0  0  0  0
 31 32  1  0  0  0  0
 31 33  1  0  0  0  0
 31 34  1  0  0  0  0
M  CHG  1  23   1
M  END
$$$$

  -OEChem-02102214153D

 34 33  0     1  0  0  0  0  0999 V2000
   -3.7147   -4.0638    1.8125 H   0  0  0  0  0  0  0  0  0  0  0  0
   -3.7507   -3.0590    1.3822 C   0  0  0  0  0  0  0  0  0  0  0  0
   -4.3715   -2.4259    2.0208 H   0  0  0  0  0  0  0  0  0  0  0  0
   -4.2032   -3.1171    0.3893 H   0  0  0  0  0  0  0  0  0  0  0  0
   -2.3515   -2.4819    1.2822 C   0  0  0  0  0  0  0  0  0  0  0  0
   -1.3809   -3.1534    1.5991 O   0  0  0  0  0  0  0  0  0  0  0  0
   -2.1609   -1.2001    0.8076 N   0  0  0  0  0  0  0  0  0  0  0  0
   -2.9950   -0.6417    0.6249 H   0  0  0  0  0  0  0  0  0  0  0  0
   -0.8777   -0.4862    0.8658 C   0  0  1  0  0  0  0  0  0  0  0  0
   -0.2130   -0.9855    1.5781 H   0  0  0  0  0  0  0  0  0  0  0  0
   -0.2563   -0.5378   -0.5410 C   0  0  0  0  0  0  0  0  0  0  0  0
   -0.3719   -1.5597   -0.9191 H   0  0  0  0  0  0  0  0  0  0  0  0
   -0.8112    0.1195   -1.2202 H   0  0  0  0  0  0  0  0  0  0  0  0
    1.2369   -0.1573   -0.5483 C   0  0  0  0  0  0  0  0  0  0  0  0
    1.3443    0.8663   -0.9255 H   0  0  0  0  0  0  0  0  0  0  0  0
    1.6379   -0.1764    0.4709 H   0  0  0  0  0  0  0  0  0  0  0  0
    2.0423   -1.1372   -1.4120 C   0  0  0  0  0  0  0  0  0  0  0  0
    1.9380   -2.1484   -1.0018 H   0  0  0  0  0  0  0  0  0  0  0  0
    1.6352   -1.1392   -2.4294 H   0  0  0  0  0  0  0  0  0  0  0  0
    3.5160   -0.7406   -1.4442 C   0  0  0  0  0  0  0  0  0  0  0  0
    3.6088    0.2752   -1.8560 H   0  0  0  0  0  0  0  0  0  0  0  0
    3.9070   -0.7120   -0.4166 H   0  0  0  0  0  0  0  0  0  0  0  0
    4.2551   -1.7214   -2.2687 N   0  3  0  0  0  0  0  0  0  0  0  0
    3.8812   -1.7295   -3.2198 H   0  0  0  0  0  0  0  0  0  0  0  0
    5.2470   -1.4765   -2.3044 H   0  0  0  0  0  0  0  0  0  0  0  0
    4.1586   -2.6569   -1.8682 H   0  0  0  0  0  0  0  0  0  0  0  0
   -1.0652    0.9657    1.3494 C   0  0  0  0  0  0  0  0  0  0  0  0
   -1.9506    1.6507    0.8559 O   0  0  0  0  0  0  0  0  0  0  0  0
   -0.2236    1.5166    2.2994 N   0  0  0  0  0  0  0  0  0  0  0  0
    0.3848    0.8806    2.8068 H   0  0  0  0  0  0  0  0  0  0  0  0
   -0.4262    2.8582    2.8392 C   0  0  0  0  0  0  0  0  0  0  0  0
   -1.3900    2.9225    3.3558 H   0  0  0  0  0  0  0  0  0  0  0  0
    0.3662    3.1056    3.5525 H   0  0  0  0  0  0  0  0  0  0  0  0
   -0.4090    3.6031    2.0362 H   0  0  0  0  0  0  0  0  0  0  0  0
  1  2  1  0  0  0  0
  2  3  1  0  0  0  0
  2  4  1  0  0  0  0
  2  5  1  0  0  0  0
  5  6  2  0  0  0  0
  5  7  1  0  0  0  0
  7  8  1  0  0  0  0
  7  9  1  0  0  0  0
  9 10  1  0  0  0  0
  9 11  1  0  0  0  0
  9 27  1  0  0  0  0
 11 12  1  0  0  0  0
 11 13  1  0  0  0  0
 11 14  1  0  0  0  0
 14 15  1  0  0  0  0
 14 16  1  0  0  0  0
 14 17  1  0  0  0  0
 17 18  1  0  0  0  0
 17 19  1  0  0  0  0
 17 20  1  0  0  0  0
 20 21  1  0  0  0  0
 20 22  1  0  0  0  0
 20 23  1  0  0  0  0
 23 24  1  0  0  0  0
 23 25  1  0  0  0  0
 23 26  1  0  0  0  0
 27 28  2  0  0  0  0
 27 29  1  0  0  0  0
 29 30  1  0  0  0  0
 29 31  1  0  0  0  0
 31 32  1  0  0  0  0
 31 33  1  0  0  0  0
 31 34  1  0  0  0  0
M  CHG  1  23   1
M  END
$$$$

  -OEChem-02102214153D

 34 33  0     1  0  0  0  0  0999 V2000
   -3.7268   -4.0622    1.8120 H   0  0  0  0  0  0  0  0  0  0  0  0
   -3.7596   -3.0583    1.3794 C   0  0  0  0  0  0  0  0  0  0  0  0
   -4.3844   -2.4236    2.0125 H   0  0  0  0  0  0  0  0  0  0  0  0
   -4.2049   -3.1182    0.3834 H   0  0  0  0  0  0  0  0  0  0  0  0
   -2.3596   -2.4822    1.2880 C   0  0  0  0  0  0  0  0  0  0  0  0
   -1.3918   -3.1534    1.6125 O   0  0  0  0  0  0  0  0  0  0  0  0
   -2.1662   -1.2017    0.8113 N   0  0  0  0  0  0  0  0  0  0  0  0
   -2.9992   -0.6435    0.6234 H   0  0  0  0  0  0  0  0  0  0  0  0
   -0.8811   -0.4907    0.8646 C   0  0  1  0  0  0  0  0  0  0  0  0
   -0.2157   -0.9912    1.5755 H   0  0  0  0  0  0  0  0  0  0  0  0
   -0.2647   -0.5451   -0.5439 C   0  0  0  0  0  0  0  0  0  0  0  0
   -0.3731   -1.5715   -0.9122 H   0  0  0  0  0  0  0  0  0  0  0  0
   -0.8210    0.1066   -1.2271 H   0  0  0  0  0  0  0  0  0  0  0  0
    1.2264   -0.1673   -0.5501 C   0  0  0  0  0  0  0  0  0  0  0  0
    1.3236    0.9190   -0.6586 H   0  0  0  0  0  0  0  0  0  0  0  0
    1.6866   -0.4507    0.4029 H   0  0  0  0  0  0  0  0  0  0  0  0
    1.9623   -0.8953   -1.6823 C   0  0  0  0  0  0  0  0  0  0  0  0
    1.8793   -1.9777   -1.5312 H   0  0  0  0  0  0  0  0  0  0  0  0
    1.4870   -0.6478   -2.6381 H   0  0  0  0  0  0  0  0  0  0  0  0
    3.4334   -0.4881   -1.7126 C   0  0  0  0  0  0  0  0  0  0  0  0
    3.5054    0.5998   -1.8594 H   0  0  0  0  0  0  0  0  0  0  0  0
    3.8925   -0.7156   -0.7394 H   0  0  0  0  0  0  0  0  0  0  0  0
    4.1106   -1.2202   -2.8051 N   0  3  0  0  0  0  0  0  0  0  0  0
    3.6738   -0.9926   -3.7006 H   0  0  0  0  0  0  0  0  0  0  0  0
    5.0991   -0.9619   -2.8432 H   0  0  0  0  0  0  0  0  0  0  0  0
    4.0371   -2.2277   -2.6483 H   0  0  0  0  0  0  0  0  0  0  0  0
   -1.0594    0.9626    1.3463 C   0  0  0  0  0  0  0  0  0  0  0  0
   -1.9363    1.6551    0.8480 O   0  0  0  0  0  0  0  0  0  0  0  0
   -0.2106    1.5093    2.2921 N   0  0  0  0  0  0  0  0  0  0  0  0
    0.3932    0.8691    2.8003 H   0  0  0  0  0  0  0  0  0  0  0  0
   -0.4012    2.8535    2.8298 C   0  0  0  0  0  0  0  0  0  0  0  0
   -1.3618    2.9258    3.3512 H   0  0  0  0  0  0  0  0  0  0  0  0
    0.3967    3.0968    3.5383 H   0  0  0  0  0  0  0  0  0  0  0  0
   -0.3831    3.5964    2.0251 H   0  0  0  0  0  0  0  0  0  0  0  0
  1  2  1  0  0  0  0
  2  3  1  0  0  0  0
  2  4  1  0  0  0  0
  2  5  1  0  0  0  0
  5  6  2  0  0  0  0
  5  7  1  0  0  0  0
  7  8  1  0  0  0  0
  7  9  1  0  0  0  0
  9 10  1  0  0  0  0
  9 11  1  0  0  0  0
  9 27  1  0  0  0  0
 11 12  1  0  0  0  0
 11 13  1  0  0  0  0
 11 14  1  0  0  0  0
 14 15  1  0  0  0  0
 14 16  1  0  0  0  0
 14 17  1  0  0  0  0
 17 18  1  0  0  0  0
 17 19  1  0  0  0  0
 17 20  1  0  0  0  0
 20 21  1  0  0  0  0
 20 22  1  0  0  0  0
 20 23  1  0  0  0  0
 23 24  1  0  0  0  0
 23 25  1  0  0  0  0
 23 26  1  0  0  0  0
 27 28  2  0  0  0  0
 27 29  1  0  0  0  0
 29 30  1  0  0  0  0
 29 31  1  0  0  0  0
 31 32  1  0  0  0  0
 31 33  1  0  0  0  0
 31 34  1  0  0  0  0
M  CHG  1  23   1
M  END
$$$$

  -OEChem-02102214153D

 34 33  0     1  0  0  0  0  0999 V2000
   -3.7242   -4.0612    1.8152 H   0  0  0  0  0  0  0  0  0  0  0  0
   -3.7567   -3.0579    1.3810 C   0  0  0  0  0  0  0  0  0  0  0  0
   -4.3807   -2.4220    2.0137 H   0  0  0  0  0  0  0  0  0  0  0  0
   -4.2027   -3.1191    0.3855 H   0  0  0  0  0  0  0  0  0  0  0  0
   -2.3568   -2.4824    1.2876 C   0  0  0  0  0  0  0  0  0  0  0  0
   -1.3898   -3.1521    1.6160 O   0  0  0  0  0  0  0  0  0  0  0  0
   -2.1638   -1.2020    0.8109 N   0  0  0  0  0  0  0  0  0  0  0  0
   -2.9967   -0.6446    0.6218 H   0  0  0  0  0  0  0  0  0  0  0  0
   -0.8786   -0.4917    0.8616 C   0  0  1  0  0  0  0  0  0  0  0  0
   -0.2091   -0.9912    1.5694 H   0  0  0  0  0  0  0  0  0  0  0  0
   -0.2672   -0.5461   -0.5489 C   0  0  0  0  0  0  0  0  0  0  0  0
   -0.3718   -1.5701   -0.9245 H   0  0  0  0  0  0  0  0  0  0  0  0
   -0.8256    0.1112   -1.2249 H   0  0  0  0  0  0  0  0  0  0  0  0
    1.2216   -0.1692   -0.5543 C   0  0  0  0  0  0  0  0  0  0  0  0
    1.3259    0.9111   -0.4020 H   0  0  0  0  0  0  0  0  0  0  0  0
    1.7327   -0.6787    0.2703 H   0  0  0  0  0  0  0  0  0  0  0  0
    1.8685   -0.5878   -1.8803 C   0  0  0  0  0  0  0  0  0  0  0  0
    1.7740   -1.6727   -2.0031 H   0  0  0  0  0  0  0  0  0  0  0  0
    1.3378   -0.1048   -2.7084 H   0  0  0  0  0  0  0  0  0  0  0  0
    3.3417   -0.1889   -1.9056 C   0  0  0  0  0  0  0  0  0  0  0  0
    3.4238    0.9000   -1.7740 H   0  0  0  0  0  0  0  0  0  0  0  0
    3.8599   -0.6590   -1.0568 H   0  0  0  0  0  0  0  0  0  0  0  0
    3.9309   -0.6165   -3.1931 N   0  3  0  0  0  0  0  0  0  0  0  0
    3.4379   -0.1686   -3.9681 H   0  0  0  0  0  0  0  0  0  0  0  0
    4.9186   -0.3556   -3.2333 H   0  0  0  0  0  0  0  0  0  0  0  0
    3.8516   -1.6306   -3.2936 H   0  0  0  0  0  0  0  0  0  0  0  0
   -1.0580    0.9612    1.3445 C   0  0  0  0  0  0  0  0  0  0  0  0
   -1.9307    1.6563    0.8421 O   0  0  0  0  0  0  0  0  0  0  0  0
   -0.2075    1.5068    2.2892 N   0  0  0  0  0  0  0  0  0  0  0  0
    0.3912    0.8637    2.8002 H   0  0  0  0  0  0  0  0  0  0  0  0
   -0.3949    2.8513    2.8271 C   0  0  0  0  0  0  0  0  0  0  0  0
   -1.3545    2.9250    3.3503 H   0  0  0  0  0  0  0  0  0  0  0  0
    0.4047    3.0930    3.5342 H   0  0  0  0  0  0  0  0  0  0  0  0
   -0.3768    3.5943    2.0224 H   0  0  0  0  0  0  0  0  0  0  0  0
  1  2  1  0  0  0  0
  2  3  1  0  0  0  0
  2  4  1  0  0  0  0
  2  5  1  0  0  0  0
  5  6  2  0  0  0  0
  5  7  1  0  0  0  0
  7  8  1  0  0  0  0
  7  9  1  0  0  0  0
  9 10  1  0  0  0  0
  9 11  1  0  0  0  0
  9 27  1  0  0  0  0
 11 12  1  0  0  0  0
 11 13  1  0  0  0  0
 11 14  1  0  0  0  0
 14 15  1  0  0  0  0
 14 16  1  0  0  0  0
 14 17  1  0  0  0  0
 17 18  1  0  0  0  0
 17 19  1  0  0  0  0
 17 20  1  0  0  0  0
 20 21  1  0  0  0  0
 20 22  1  0  0  0  0
 20 23  1  0  0  0  0
 23 24  1  0  0  0  0
 23 25  1  0  0  0  0
 23 26  1  0  0  0  0
 27 28  2  0  0  0  0
 27 29  1  0  0  0  0
 29 30  1  0  0  0  0
 29 31  1  0  0  0  0
 31 32  1  0  0  0  0
 31 33  1  0  0  0  0
 31 34  1  0  0  0  0
M  CHG  1  23   1
M  END
$$$$

  -OEChem-02102214153D

 34 33  0     1  0  0  0  0  0999 V2000
   -3.7024   -4.0712    1.8365 H   0  0  0  0  0  0  0  0  0  0  0  0
   -3.7482   -3.0676    1.4041 C   0  0  0  0  0  0  0  0  0  0  0  0
   -4.3610   -2.4347    2.0507 H   0  0  0  0  0  0  0  0  0  0  0  0
   -4.2160   -3.1297    0.4187 H   0  0  0  0  0  0  0  0  0  0  0  0
   -2.3523   -2.4875    1.2807 C   0  0  0  0  0  0  0  0  0  0  0  0
   -1.3753   -3.1585    1.5766 O   0  0  0  0  0  0  0  0  0  0  0  0
   -2.1740   -1.2031    0.8087 N   0  0  0  0  0  0  0  0  0  0  0  0
   -3.0130   -0.6461    0.6462 H   0  0  0  0  0  0  0  0  0  0  0  0
   -0.8910   -0.4864    0.8419 C   0  0  1  0  0  0  0  0  0  0  0  0
   -0.2172   -0.9877    1.5446 H   0  0  0  0  0  0  0  0  0  0  0  0
   -0.2831   -0.5352   -0.5727 C   0  0  0  0  0  0  0  0  0  0  0  0
   -0.5985   -1.4614   -1.0662 H   0  0  0  0  0  0  0  0  0  0  0  0
   -0.6662    0.3002   -1.1697 H   0  0  0  0  0  0  0  0  0  0  0  0
    1.2503   -0.5123   -0.5350 C   0  0  0  0  0  0  0  0  0  0  0  0
    1.5918    0.3992   -0.0315 H   0  0  0  0  0  0  0  0  0  0  0  0
    1.6123   -1.3740    0.0379 H   0  0  0  0  0  0  0  0  0  0  0  0
    1.8146   -0.5622   -1.9597 C   0  0  0  0  0  0  0  0  0  0  0  0
    1.4503   -1.4666   -2.4600 H   0  0  0  0  0  0  0  0  0  0  0  0
    1.4551    0.3061   -2.5233 H   0  0  0  0  0  0  0  0  0  0  0  0
    3.3407   -0.5668   -1.9268 C   0  0  0  0  0  0  0  0  0  0  0  0
    3.6950    0.3450   -1.4241 H   0  0  0  0  0  0  0  0  0  0  0  0
    3.6875   -1.4227   -1.3289 H   0  0  0  0  0  0  0  0  0  0  0  0
    3.8504   -0.6440   -3.3133 N   0  3  0  0  0  0  0  0  0  0  0  0
    3.5127    0.1543   -3.8546 H   0  0  0  0  0  0  0  0  0  0  0  0
    4.8727   -0.6366   -3.3139 H   0  0  0  0  0  0  0  0  0  0  0  0
    3.5253   -1.5055   -3.7571 H   0  0  0  0  0  0  0  0  0  0  0  0
   -1.0618    0.9637    1.3358 C   0  0  0  0  0  0  0  0  0  0  0  0
   -1.9543    1.6558    0.8649 O   0  0  0  0  0  0  0  0  0  0  0  0
   -0.1947    1.5056    2.2673 N   0  0  0  0  0  0  0  0  0  0  0  0
    0.4235    0.8630    2.7547 H   0  0  0  0  0  0  0  0  0  0  0  0
   -0.3801    2.8425    2.8242 C   0  0  0  0  0  0  0  0  0  0  0  0
   -1.3324    2.9060    3.3619 H   0  0  0  0  0  0  0  0  0  0  0  0
    0.4285    3.0789    3.5227 H   0  0  0  0  0  0  0  0  0  0  0  0
   -0.3769    3.5954    2.0286 H   0  0  0  0  0  0  0  0  0  0  0  0
  1  2  1  0  0  0  0
  2  3  1  0  0  0  0
  2  4  1  0  0  0  0
  2  5  1  0  0  0  0
  5  6  2  0  0  0  0
  5  7  1  0  0  0  0
  7  8  1  0  0  0  0
  7  9  1  0  0  0  0
  9 10  1  0  0  0  0
  9 11  1  0  0  0  0
  9 27  1  0  0  0  0
 11 12  1  0  0  0  0
 11 13  1  0  0  0  0
 11 14  1  0  0  0  0
 14 15  1  0  0  0  0
 14 16  1  0  0  0  0
 14 17  1  0  0  0  0
 17 18  1  0  0  0  0
 17 19  1  0  0  0  0
 17 20  1  0  0  0  0
 20 21  1  0  0  0  0
 20 22  1  0  0  0  0
 20 23  1  0  0  0  0
 23 24  1  0  0  0  0
 23 25  1  0  0  0  0
 23 26  1  0  0  0  0
 27 28  2  0  0  0  0
 27 29  1  0  0  0  0
 29 30  1  0  0  0  0
 29 31  1  0  0  0  0
 31 32  1  0  0  0  0
 31 33  1  0  0  0  0
 31 34  1  0  0  0  0
M  CHG  1  23   1
M  END
$$$$

  -OEChem-02102214153D

 34 33  0     1  0  0  0  0  0999 V2000
   -3.6967   -4.0777    1.8320 H   0  0  0  0  0  0  0  0  0  0  0  0
   -3.7436   -3.0771    1.3929 C   0  0  0  0  0  0  0  0  0  0  0  0
   -4.3685   -2.4444    2.0279 H   0  0  0  0  0  0  0  0  0  0  0  0
   -4.1981   -3.1482    0.4020 H   0  0  0  0  0  0  0  0  0  0  0  0
   -2.3499   -2.4886    1.2843 C   0  0  0  0  0  0  0  0  0  0  0  0
   -1.3735   -3.1508    1.5999 O   0  0  0  0  0  0  0  0  0  0  0  0
   -2.1732   -1.2035    0.8129 N   0  0  0  0  0  0  0  0  0  0  0  0
   -3.0129   -0.6525    0.6352 H   0  0  0  0  0  0  0  0  0  0  0  0
   -0.8920   -0.4838    0.8472 C   0  0  1  0  0  0  0  0  0  0  0  0
   -0.2156   -0.9848    1.5478 H   0  0  0  0  0  0  0  0  0  0  0  0
   -0.2853   -0.5322   -0.5680 C   0  0  0  0  0  0  0  0  0  0  0  0
   -0.5991   -1.4522   -1.0736 H   0  0  0  0  0  0  0  0  0  0  0  0
   -0.6733    0.3089   -1.1536 H   0  0  0  0  0  0  0  0  0  0  0  0
    1.2490   -0.5060   -0.5335 C   0  0  0  0  0  0  0  0  0  0  0  0
    1.5893    0.2599    0.1721 H   0  0  0  0  0  0  0  0  0  0  0  0
    1.6206   -1.4765   -0.1846 H   0  0  0  0  0  0  0  0  0  0  0  0
    1.8040   -0.1843   -1.9259 C   0  0  0  0  0  0  0  0  0  0  0  0
    1.4309   -0.9258   -2.6413 H   0  0  0  0  0  0  0  0  0  0  0  0
    1.4453    0.8022   -2.2409 H   0  0  0  0  0  0  0  0  0  0  0  0
    3.3306   -0.2018   -1.9107 C   0  0  0  0  0  0  0  0  0  0  0  0
    3.6957    0.5454   -1.1906 H   0  0  0  0  0  0  0  0  0  0  0  0
    3.6785   -1.1856   -1.5623 H   0  0  0  0  0  0  0  0  0  0  0  0
    3.8240    0.0856   -3.2753 N   0  3  0  0  0  0  0  0  0  0  0  0
    3.4778    0.9952   -3.5873 H   0  0  0  0  0  0  0  0  0  0  0  0
    4.8463    0.0981   -3.2856 H   0  0  0  0  0  0  0  0  0  0  0  0
    3.4949   -0.6331   -3.9234 H   0  0  0  0  0  0  0  0  0  0  0  0
   -1.0656    0.9657    1.3415 C   0  0  0  0  0  0  0  0  0  0  0  0
   -1.9462    1.6644    0.8577 O   0  0  0  0  0  0  0  0  0  0  0  0
   -0.1982    1.5055    2.2739 N   0  0  0  0  0  0  0  0  0  0  0  0
    0.4060    0.8582    2.7731 H   0  0  0  0  0  0  0  0  0  0  0  0
   -0.3765    2.8462    2.8236 C   0  0  0  0  0  0  0  0  0  0  0  0
   -1.3282    2.9182    3.3613 H   0  0  0  0  0  0  0  0  0  0  0  0
    0.4337    3.0821    3.5205 H   0  0  0  0  0  0  0  0  0  0  0  0
   -0.3692    3.5943    2.0235 H   0  0  0  0  0  0  0  0  0  0  0  0
  1  2  1  0  0  0  0
  2  3  1  0  0  0  0
  2  4  1  0  0  0  0
  2  5  1  0  0  0  0
  5  6  2  0  0  0  0
  5  7  1  0  0  0  0
  7  8  1  0  0  0  0
  7  9  1  0  0  0  0
  9 10  1  0  0  0  0
  9 11  1  0  0  0  0
  9 27  1  0  0  0  0
 11 12  1  0  0  0  0
 11 13  1  0  0  0  0
 11 14  1  0  0  0  0
 14 15  1  0  0  0  0
 14 16  1  0  0  0  0
 14 17  1  0  0  0  0
 17 18  1  0  0  0  0
 17 19  1  0  0  0  0
 17 20  1  0  0  0  0
 20 21  1  0  0  0  0
 20 22  1  0  0  0  0
 20 23  1  0  0  0  0
 23 24  1  0  0  0  0
 23 25  1  0  0  0  0
 23 26  1  0  0  0  0
 27 28  2  0  0  0  0
 27 29  1  0  0  0  0
 29 30  1  0  0  0  0
 29 31  1  0  0  0  0
 31 32  1  0  0  0  0
 31 33  1  0  0  0  0
 31 34  1  0  0  0  0
M  CHG  1  23   1
M  END
$$$$

  -OEChem-02102214153D

 34 33  0     1  0  0  0  0  0999 V2000
   -3.6961   -4.0870    1.8131 H   0  0  0  0  0  0  0  0  0  0  0  0
   -3.7421   -3.0852    1.3767 C   0  0  0  0  0  0  0  0  0  0  0  0
   -4.3840   -2.4595    2.0016 H   0  0  0  0  0  0  0  0  0  0  0  0
   -4.1761   -3.1564    0.3765 H   0  0  0  0  0  0  0  0  0  0  0  0
   -2.3510   -2.4866    1.2970 C   0  0  0  0  0  0  0  0  0  0  0  0
   -1.3772   -3.1405    1.6366 O   0  0  0  0  0  0  0  0  0  0  0  0
   -2.1741   -1.2023    0.8231 N   0  0  0  0  0  0  0  0  0  0  0  0
   -3.0134   -0.6588    0.6232 H   0  0  0  0  0  0  0  0  0  0  0  0
   -0.8940   -0.4804    0.8573 C   0  0  1  0  0  0  0  0  0  0  0  0
   -0.2181   -0.9815    1.5582 H   0  0  0  0  0  0  0  0  0  0  0  0
   -0.2879   -0.5321   -0.5589 C   0  0  0  0  0  0  0  0  0  0  0  0
   -0.6024   -1.4509   -1.0666 H   0  0  0  0  0  0  0  0  0  0  0  0
   -0.6840    0.3071   -1.1418 H   0  0  0  0  0  0  0  0  0  0  0  0
    1.2490   -0.5038   -0.5332 C   0  0  0  0  0  0  0  0  0  0  0  0
    1.5969    0.0636    0.3369 H   0  0  0  0  0  0  0  0  0  0  0  0
    1.6283   -1.5279   -0.4373 H   0  0  0  0  0  0  0  0  0  0  0  0
    1.7932    0.1660   -1.8009 C   0  0  0  0  0  0  0  0  0  0  0  0
    1.4148   -0.3683   -2.6795 H   0  0  0  0  0  0  0  0  0  0  0  0
    1.4306    1.1992   -1.8494 H   0  0  0  0  0  0  0  0  0  0  0  0
    3.3199    0.1507   -1.8024 C   0  0  0  0  0  0  0  0  0  0  0  0
    3.6901    0.6871   -0.9162 H   0  0  0  0  0  0  0  0  0  0  0  0
    3.6725   -0.8883   -1.7234 H   0  0  0  0  0  0  0  0  0  0  0  0
    3.8003    0.7839   -3.0499 N   0  3  0  0  0  0  0  0  0  0  0  0
    3.4511    1.7424   -3.1118 H   0  0  0  0  0  0  0  0  0  0  0  0
    4.8223    0.8013   -3.0661 H   0  0  0  0  0  0  0  0  0  0  0  0
    3.4651    0.2576   -3.8593 H   0  0  0  0  0  0  0  0  0  0  0  0
   -1.0630    0.9713    1.3472 C   0  0  0  0  0  0  0  0  0  0  0  0
   -1.9298    1.6774    0.8496 O   0  0  0  0  0  0  0  0  0  0  0  0
   -0.1933    1.5105    2.2781 N   0  0  0  0  0  0  0  0  0  0  0  0
    0.3947    0.8583    2.7902 H   0  0  0  0  0  0  0  0  0  0  0  0
   -0.3719    2.8522    2.8254 C   0  0  0  0  0  0  0  0  0  0  0  0
   -1.3246    2.9248    3.3613 H   0  0  0  0  0  0  0  0  0  0  0  0
    0.4371    3.0892    3.5233 H   0  0  0  0  0  0  0  0  0  0  0  0
   -0.3638    3.5989    2.0241 H   0  0  0  0  0  0  0  0  0  0  0  0
  1  2  1  0  0  0  0
  2  3  1  0  0  0  0
  2  4  1  0  0  0  0
  2  5  1  0  0  0  0
  5  6  2  0  0  0  0
  5  7  1  0  0  0  0
  7  8  1  0  0  0  0
  7  9  1  0  0  0  0
  9 10  1  0  0  0  0
  9 11  1  0  0  0  0
  9 27  1  0  0  0  0
 11 12  1  0  0  0  0
 11 13  1  0  0  0  0
 11 14  1  0  0  0  0
 14 15  1  0  0  0  0
 14 16  1  0  0  0  0
 14 17  1  0  0  0  0
 17 18  1  0  0  0  0
 17 19  1  0  0  0  0
 17 20  1  0  0  0  0
 20 21  1  0  0  0  0
 20 22  1  0  0  0  0
 20 23  1  0  0  0  0
 23 24  1  0  0  0  0
 23 25  1  0  0  0  0
 23 26  1  0  0  0  0
 27 28  2  0  0  0  0
 27 29  1  0  0  0  0
 29 30  1  0  0  0  0
 29 31  1  0  0  0  0
 31 32  1  0  0  0  0
 31 33  1  0  0  0  0
 31 34  1  0  0  0  0
M  CHG  1  23   1
M  END
$$$$

  -OEChem-02102214153D

 34 33  0     1  0  0  0  0  0999 V2000
   -3.7055   -4.0892    1.8011 H   0  0  0  0  0  0  0  0  0  0  0  0
   -3.7474   -3.0875    1.3640 C   0  0  0  0  0  0  0  0  0  0  0  0
   -4.4001   -2.4636    1.9794 H   0  0  0  0  0  0  0  0  0  0  0  0
   -4.1667   -3.1601    0.3577 H   0  0  0  0  0  0  0  0  0  0  0  0
   -2.3569   -2.4848    1.3047 C   0  0  0  0  0  0  0  0  0  0  0  0
   -1.3874   -3.1337    1.6649 O   0  0  0  0  0  0  0  0  0  0  0  0
   -2.1763   -1.2021    0.8279 N   0  0  0  0  0  0  0  0  0  0  0  0
   -3.0136   -0.6640    0.6068 H   0  0  0  0  0  0  0  0  0  0  0  0
   -0.8970   -0.4789    0.8673 C   0  0  1  0  0  0  0  0  0  0  0  0
   -0.2272   -0.9803    1.5737 H   0  0  0  0  0  0  0  0  0  0  0  0
   -0.2838   -0.5346   -0.5462 C   0  0  0  0  0  0  0  0  0  0  0  0
   -0.5926   -1.4615   -1.0428 H   0  0  0  0  0  0  0  0  0  0  0  0
   -0.6894    0.2914   -1.1413 H   0  0  0  0  0  0  0  0  0  0  0  0
    1.2560   -0.5047   -0.5288 C   0  0  0  0  0  0  0  0  0  0  0  0
    1.6193   -0.1866    0.4545 H   0  0  0  0  0  0  0  0  0  0  0  0
    1.6381   -1.5160   -0.7101 H   0  0  0  0  0  0  0  0  0  0  0  0
    1.7847    0.4704   -1.5882 C   0  0  0  0  0  0  0  0  0  0  0  0
    1.4030    0.1734   -2.5715 H   0  0  0  0  0  0  0  0  0  0  0  0
    1.4139    1.4784   -1.3696 H   0  0  0  0  0  0  0  0  0  0  0  0
    3.3109    0.4703   -1.6042 C   0  0  0  0  0  0  0  0  0  0  0  0
    3.6848    0.7662   -0.6131 H   0  0  0  0  0  0  0  0  0  0  0  0
    3.6721   -0.5509   -1.7962 H   0  0  0  0  0  0  0  0  0  0  0  0
    3.7743    1.4065   -2.6515 N   0  3  0  0  0  0  0  0  0  0  0  0
    3.4161    2.3451   -2.4638 H   0  0  0  0  0  0  0  0  0  0  0  0
    4.7960    1.4386   -2.6699 H   0  0  0  0  0  0  0  0  0  0  0  0
    3.4359    1.1012   -3.5663 H   0  0  0  0  0  0  0  0  0  0  0  0
   -1.0606    0.9754    1.3500 C   0  0  0  0  0  0  0  0  0  0  0  0
   -1.9092    1.6907    0.8349 O   0  0  0  0  0  0  0  0  0  0  0  0
   -0.1903    1.5114    2.2823 N   0  0  0  0  0  0  0  0  0  0  0  0
    0.3730    0.8515    2.8122 H   0  0  0  0  0  0  0  0  0  0  0  0
   -0.3623    2.8559    2.8251 C   0  0  0  0  0  0  0  0  0  0  0  0
   -1.3145    2.9346    3.3608 H   0  0  0  0  0  0  0  0  0  0  0  0
    0.4478    3.0903    3.5225 H   0  0  0  0  0  0  0  0  0  0  0  0
   -0.3499    3.6011    2.0225 H   0  0  0  0  0  0  0  0  0  0  0  0
  1  2  1  0  0  0  0
  2  3  1  0  0  0  0
  2  4  1  0  0  0  0
  2  5  1  0  0  0  0
  5  6  2  0  0  0  0
  5  7  1  0  0  0  0
  7  8  1  0  0  0  0
  7  9  1  0  0  0  0
  9 10  1  0  0  0  0
  9 11  1  0  0  0  0
  9 27  1  0  0  0  0
 11 12  1  0  0  0  0
 11 13  1  0  0  0  0
 11 14  1  0  0  0  0
 14 15  1  0  0  0  0
 14 16  1  0  0  0  0
 14 17  1  0  0  0  0
 17 18  1  0  0  0  0
 17 19  1  0  0  0  0
 17 20  1  0  0  0  0
 20 21  1  0  0  0  0
 20 22  1  0  0  0  0
 20 23  1  0  0  0  0
 23 24  1  0  0  0  0
 23 25  1  0  0  0  0
 23 26  1  0  0  0  0
 27 28  2  0  0  0  0
 27 29  1  0  0  0  0
 29 30  1  0  0  0  0
 29 31  1  0  0  0  0
 31 32  1  0  0  0  0
 31 33  1  0  0  0  0
 31 34  1  0  0  0  0
M  CHG  1  23   1
M  END
$$$$

  -OEChem-02102214153D

 34 33  0     1  0  0  0  0  0999 V2000
   -3.7163   -4.0905    1.7858 H   0  0  0  0  0  0  0  0  0  0  0  0
   -3.7533   -3.0883    1.3495 C   0  0  0  0  0  0  0  0  0  0  0  0
   -4.4202   -2.4673    1.9526 H   0  0  0  0  0  0  0  0  0  0  0  0
   -4.1526   -3.1610    0.3350 H   0  0  0  0  0  0  0  0  0  0  0  0
   -2.3638   -2.4807    1.3180 C   0  0  0  0  0  0  0  0  0  0  0  0
   -1.4003   -3.1231    1.7049 O   0  0  0  0  0  0  0  0  0  0  0  0
   -2.1774   -1.2001    0.8370 N   0  0  0  0  0  0  0  0  0  0  0  0
   -3.0111   -0.6692    0.5870 H   0  0  0  0  0  0  0  0  0  0  0  0
   -0.8978   -0.4770    0.8772 C   0  0  1  0  0  0  0  0  0  0  0  0
   -0.2337   -0.9783    1.5887 H   0  0  0  0  0  0  0  0  0  0  0  0
   -0.2813   -0.5376   -0.5352 C   0  0  0  0  0  0  0  0  0  0  0  0
   -0.5828   -1.4793   -1.0081 H   0  0  0  0  0  0  0  0  0  0  0  0
   -0.6958    0.2668   -1.1533 H   0  0  0  0  0  0  0  0  0  0  0  0
    1.2596   -0.5078   -0.5253 C   0  0  0  0  0  0  0  0  0  0  0  0
    1.6432   -0.4779    0.5002 H   0  0  0  0  0  0  0  0  0  0  0  0
    1.6358   -1.4281   -0.9867 H   0  0  0  0  0  0  0  0  0  0  0  0
    1.7739    0.7099   -1.3041 C   0  0  0  0  0  0  0  0  0  0  0  0
    1.3907    0.6691   -2.3302 H   0  0  0  0  0  0  0  0  0  0  0  0
    1.3935    1.6252   -0.8358 H   0  0  0  0  0  0  0  0  0  0  0  0
    3.2999    0.7310   -1.3237 C   0  0  0  0  0  0  0  0  0  0  0  0
    3.6765    0.7721   -0.2911 H   0  0  0  0  0  0  0  0  0  0  0  0
    3.6702   -0.2051   -1.7673 H   0  0  0  0  0  0  0  0  0  0  0  0
    3.7478    1.9051   -2.1041 N   0  3  0  0  0  0  0  0  0  0  0  0
    3.3843    2.7629   -1.6837 H   0  0  0  0  0  0  0  0  0  0  0  0
    4.7691    1.9498   -2.1201 H   0  0  0  0  0  0  0  0  0  0  0  0
    3.4039    1.8371   -3.0642 H   0  0  0  0  0  0  0  0  0  0  0  0
   -1.0520    0.9805    1.3518 C   0  0  0  0  0  0  0  0  0  0  0  0
   -1.8809    1.7065    0.8202 O   0  0  0  0  0  0  0  0  0  0  0  0
   -0.1774    1.5125    2.2826 N   0  0  0  0  0  0  0  0  0  0  0  0
    0.3629    0.8452    2.8272 H   0  0  0  0  0  0  0  0  0  0  0  0
   -0.3468    2.8577    2.8252 C   0  0  0  0  0  0  0  0  0  0  0  0
   -1.2991    2.9383    3.3606 H   0  0  0  0  0  0  0  0  0  0  0  0
    0.4633    3.0908    3.5233 H   0  0  0  0  0  0  0  0  0  0  0  0
   -0.3327    3.6032    2.0229 H   0  0  0  0  0  0  0  0  0  0  0  0
  1  2  1  0  0  0  0
  2  3  1  0  0  0  0
  2  4  1  0  0  0  0
  2  5  1  0  0  0  0
  5  6  2  0  0  0  0
  5  7  1  0  0  0  0
  7  8  1  0  0  0  0
  7  9  1  0  0  0  0
  9 10  1  0  0  0  0
  9 11  1  0  0  0  0
  9 27  1  0  0  0  0
 11 12  1  0  0  0  0
 11 13  1  0  0  0  0
 11 14  1  0  0  0  0
 14 15  1  0  0  0  0
 14 16  1  0  0  0  0
 14 17  1  0  0  0  0
 17 18  1  0  0  0  0
 17 19  1  0  0  0  0
 17 20  1  0  0  0  0
 20 21  1  0  0  0  0
 20 22  1  0  0  0  0
 20 23  1  0  0  0  0
 23 24  1  0  0  0  0
 23 25  1  0  0  0  0
 23 26  1  0  0  0  0
 27 28  2  0  0  0  0
 27 29  1  0  0  0  0
 29 30  1  0  0  0  0
 29 31  1  0  0  0  0
 31 32  1  0  0  0  0
 31 33  1  0  0  0  0
 31 34  1  0  0  0  0
M  CHG  1  23   1
M  END
$$$$

  -OEChem-02102214153D

 34 33  0     1  0  0  0  0  0999 V2000
   -3.7072   -4.0973    1.7723 H   0  0  0  0  0  0  0  0  0  0  0  0
   -3.7464   -3.0957    1.3344 C   0  0  0  0  0  0  0  0  0  0  0  0
   -4.4298   -2.4809    1.9251 H   0  0  0  0  0  0  0  0  0  0  0  0
   -4.1264   -3.1735    0.3128 H   0  0  0  0  0  0  0  0  0  0  0  0
   -2.3627   -2.4748    1.3278 C   0  0  0  0  0  0  0  0  0  0  0  0
   -1.4015   -3.1070    1.7365 O   0  0  0  0  0  0  0  0  0  0  0  0
   -2.1783   -1.1939    0.8465 N   0  0  0  0  0  0  0  0  0  0  0  0
   -3.0099   -0.6732    0.5699 H   0  0  0  0  0  0  0  0  0  0  0  0
   -0.8992   -0.4696    0.8874 C   0  0  1  0  0  0  0  0  0  0  0  0
   -0.2351   -0.9696    1.5993 H   0  0  0  0  0  0  0  0  0  0  0  0
   -0.2850   -0.5342   -0.5270 C   0  0  0  0  0  0  0  0  0  0  0  0
   -0.5812   -1.4870   -0.9810 H   0  0  0  0  0  0  0  0  0  0  0  0
   -0.7037    0.2551   -1.1615 H   0  0  0  0  0  0  0  0  0  0  0  0
    1.2546   -0.5045   -0.5256 C   0  0  0  0  0  0  0  0  0  0  0  0
    1.6517   -0.7636    0.4618 H   0  0  0  0  0  0  0  0  0  0  0  0
    1.6187   -1.2619   -1.2294 H   0  0  0  0  0  0  0  0  0  0  0  0
    1.7639    0.8736   -0.9696 C   0  0  0  0  0  0  0  0  0  0  0  0
    1.3764    1.0952   -1.9704 H   0  0  0  0  0  0  0  0  0  0  0  0
    1.3864    1.6408   -0.2843 H   0  0  0  0  0  0  0  0  0  0  0  0
    3.2895    0.8985   -0.9904 C   0  0  0  0  0  0  0  0  0  0  0  0
    3.6714    0.6766    0.0169 H   0  0  0  0  0  0  0  0  0  0  0  0
    3.6550    0.1043   -1.6581 H   0  0  0  0  0  0  0  0  0  0  0  0
    3.7368    2.2307   -1.4519 N   0  3  0  0  0  0  0  0  0  0  0  0
    3.3824    2.9553   -0.8243 H   0  0  0  0  0  0  0  0  0  0  0  0
    4.7581    2.2743   -1.4672 H   0  0  0  0  0  0  0  0  0  0  0  0
    3.3833    2.4095   -2.3941 H   0  0  0  0  0  0  0  0  0  0  0  0
   -1.0503    0.9884    1.3614 C   0  0  0  0  0  0  0  0  0  0  0  0
   -1.8597    1.7248    0.8146 O   0  0  0  0  0  0  0  0  0  0  0  0
   -0.1730    1.5168    2.2927 N   0  0  0  0  0  0  0  0  0  0  0  0
    0.3461    0.8433    2.8506 H   0  0  0  0  0  0  0  0  0  0  0  0
   -0.3402    2.8630    2.8344 C   0  0  0  0  0  0  0  0  0  0  0  0
   -1.2914    2.9450    3.3718 H   0  0  0  0  0  0  0  0  0  0  0  0
    0.4717    3.0965    3.5304 H   0  0  0  0  0  0  0  0  0  0  0  0
   -0.3283    3.6077    2.0313 H   0  0  0  0  0  0  0  0  0  0  0  0
  1  2  1  0  0  0  0
  2  3  1  0  0  0  0
  2  4  1  0  0  0  0
  2  5  1  0  0  0  0
  5  6  2  0  0  0  0
  5  7  1  0  0  0  0
  7  8  1  0  0  0  0
  7  9  1  0  0  0  0
  9 10  1  0  0  0  0
  9 11  1  0  0  0  0
  9 27  1  0  0  0  0
 11 12  1  0  0  0  0
 11 13  1  0  0  0  0
 11 14  1  0  0  0  0
 14 15  1  0  0  0  0
 14 16  1  0  0  0  0
 14 17  1  0  0  0  0
 17 18  1  0  0  0  0
 17 19  1  0  0  0  0
 17 20  1  0  0  0  0
 20 21  1  0  0  0  0
 20 22  1  0  0  0  0
 20 23  1  0  0  0  0
 23 24  1  0  0  0  0
 23 25  1  0  0  0  0
 23 26  1  0  0  0  0
 27 28  2  0  0  0  0
 27 29  1  0  0  0  0
 29 30  1  0  0  0  0
 29 31  1  0  0  0  0
 31 32  1  0  0  0  0
 31 33  1  0  0  0  0
 31 34  1  0  0  0  0
M  CHG  1  23   1
M  END
$$$$

  -OEChem-02102214153D

 34 33  0     1  0  0  0  0  0999 V2000
   -3.6936   -4.1004    1.7197 H   0  0  0  0  0  0  0  0  0  0  0  0
   -3.7346   -3.0881    1.3071 C   0  0  0  0  0  0  0  0  0  0  0  0
   -4.4203   -2.4900    1.9121 H   0  0  0  0  0  0  0  0  0  0  0  0
   -4.1137   -3.1410    0.2837 H   0  0  0  0  0  0  0  0  0  0  0  0
   -2.3526   -2.4637    1.3174 C   0  0  0  0  0  0  0  0  0  0  0  0
   -1.3946   -3.0922    1.7394 O   0  0  0  0  0  0  0  0  0  0  0  0
   -2.1661   -1.1793    0.8468 N   0  0  0  0  0  0  0  0  0  0  0  0
   -2.9949   -0.6590    0.5608 H   0  0  0  0  0  0  0  0  0  0  0  0
   -0.8911   -0.4503    0.9175 C   0  0  1  0  0  0  0  0  0  0  0  0
   -0.2300   -0.9440    1.6368 H   0  0  0  0  0  0  0  0  0  0  0  0
   -0.2611   -0.5161   -0.4926 C   0  0  0  0  0  0  0  0  0  0  0  0
   -0.5533   -1.4697   -0.9472 H   0  0  0  0  0  0  0  0  0  0  0  0
   -0.6719    0.2732   -1.1320 H   0  0  0  0  0  0  0  0  0  0  0  0
    1.2772   -0.4873   -0.4959 C   0  0  0  0  0  0  0  0  0  0  0  0
    1.6714   -1.0024    0.3872 H   0  0  0  0  0  0  0  0  0  0  0  0
    1.6255   -1.0399   -1.3760 H   0  0  0  0  0  0  0  0  0  0  0  0
    1.8141    0.9490   -0.5748 C   0  0  0  0  0  0  0  0  0  0  0  0
    1.3718    1.4511   -1.4429 H   0  0  0  0  0  0  0  0  0  0  0  0
    1.5235    1.5063    0.3201 H   0  0  0  0  0  0  0  0  0  0  0  0
    3.3346    0.9392   -0.7059 C   0  0  0  0  0  0  0  0  0  0  0  0
    3.7731    0.4615    0.1825 H   0  0  0  0  0  0  0  0  0  0  0  0
    3.6190    0.3289   -1.5758 H   0  0  0  0  0  0  0  0  0  0  0  0
    3.8084    2.3323   -0.8564 N   0  3  0  0  0  0  0  0  0  0  0  0
    3.5291    2.8864   -0.0447 H   0  0  0  0  0  0  0  0  0  0  0  0
    4.8273    2.3517   -0.9379 H   0  0  0  0  0  0  0  0  0  0  0  0
    3.4011    2.7496   -1.6960 H   0  0  0  0  0  0  0  0  0  0  0  0
   -1.0888    0.9996    1.3998 C   0  0  0  0  0  0  0  0  0  0  0  0
   -1.9034    1.7207    0.8407 O   0  0  0  0  0  0  0  0  0  0  0  0
   -0.2499    1.5407    2.3590 N   0  0  0  0  0  0  0  0  0  0  0  0
    0.2631    0.8712    2.9273 H   0  0  0  0  0  0  0  0  0  0  0  0
   -0.4822    2.8685    2.9215 C   0  0  0  0  0  0  0  0  0  0  0  0
   -1.4552    2.9081    3.4236 H   0  0  0  0  0  0  0  0  0  0  0  0
    0.2942    3.1122    3.6532 H   0  0  0  0  0  0  0  0  0  0  0  0
   -0.4645    3.6305    2.1348 H   0  0  0  0  0  0  0  0  0  0  0  0
  1  2  1  0  0  0  0
  2  3  1  0  0  0  0
  2  4  1  0  0  0  0
  2  5  1  0  0  0  0
  5  6  2  0  0  0  0
  5  7  1  0  0  0  0
  7  8  1  0  0  0  0
  7  9  1  0  0  0  0
  9 10  1  0  0  0  0
  9 11  1  0  0  0  0
  9 27  1  0  0  0  0
 11 12  1  0  0  0  0
 11 13  1  0  0  0  0
 11 14  1  0  0  0  0
 14 15  1  0  0  0  0
 14 16  1  0  0  0  0
 14 17  1  0  0  0  0
 17 18  1  0  0  0  0
 17 19  1  0  0  0  0
 17 20  1  0  0  0  0
 20 21  1  0  0  0  0
 20 22  1  0  0  0  0
 20 23  1  0  0  0  0
 23 24  1  0  0  0  0
 23 25  1  0  0  0  0
 23 26  1  0  0  0  0
 27 28  2  0  0  0  0
 27 29  1  0  0  0  0
 29 30  1  0  0  0  0
 29 31  1  0  0  0  0
 31 32  1  0  0  0  0
 31 33  1  0  0  0  0
 31 34  1  0  0  0  0
M  CHG  1  23   1
M  END
$$$$

  -OEChem-02102214153D

 34 33  0     1  0  0  0  0  0999 V2000
   -3.7257   -4.0868    1.6559 H   0  0  0  0  0  0  0  0  0  0  0  0
   -3.7496   -3.0709    1.2515 C   0  0  0  0  0  0  0  0  0  0  0  0
   -4.4574   -2.4770    1.8349 H   0  0  0  0  0  0  0  0  0  0  0  0
   -4.0891   -3.1137    0.2138 H   0  0  0  0  0  0  0  0  0  0  0  0
   -2.3682   -2.4488    1.3204 C   0  0  0  0  0  0  0  0  0  0  0  0
   -1.4312   -3.0746    1.7907 O   0  0  0  0  0  0  0  0  0  0  0  0
   -2.1585   -1.1678    0.8508 N   0  0  0  0  0  0  0  0  0  0  0  0
   -2.9730   -0.6455    0.5289 H   0  0  0  0  0  0  0  0  0  0  0  0
   -0.8837   -0.4441    0.9673 C   0  0  1  0  0  0  0  0  0  0  0  0
   -0.2404   -0.9325    1.7062 H   0  0  0  0  0  0  0  0  0  0  0  0
   -0.2218   -0.5198   -0.4295 C   0  0  0  0  0  0  0  0  0  0  0  0
   -0.5188   -1.4652   -0.8981 H   0  0  0  0  0  0  0  0  0  0  0  0
   -0.6071    0.2813   -1.0699 H   0  0  0  0  0  0  0  0  0  0  0  0
    1.3157   -0.5060   -0.4243 C   0  0  0  0  0  0  0  0  0  0  0  0
    1.6918   -1.2336    0.3040 H   0  0  0  0  0  0  0  0  0  0  0  0
    1.6523   -0.8326   -1.4147 H   0  0  0  0  0  0  0  0  0  0  0  0
    1.8975    0.8848   -0.1370 C   0  0  0  0  0  0  0  0  0  0  0  0
    1.3797    1.6276   -0.7543 H   0  0  0  0  0  0  0  0  0  0  0  0
    1.7418    1.1443    0.9128 H   0  0  0  0  0  0  0  0  0  0  0  0
    3.3913    0.9046   -0.4522 C   0  0  0  0  0  0  0  0  0  0  0  0
    3.9102    0.1861    0.1994 H   0  0  0  0  0  0  0  0  0  0  0  0
    3.5463    0.5719   -1.4894 H   0  0  0  0  0  0  0  0  0  0  0  0
    3.9049    2.2776   -0.2558 N   0  3  0  0  0  0  0  0  0  0  0  0
    3.7647    2.5685    0.7134 H   0  0  0  0  0  0  0  0  0  0  0  0
    4.9034    2.3147   -0.4730 H   0  0  0  0  0  0  0  0  0  0  0  0
    3.4080    2.9259   -0.8705 H   0  0  0  0  0  0  0  0  0  0  0  0
   -1.1244    1.0055    1.4361 C   0  0  0  0  0  0  0  0  0  0  0  0
   -1.9273    1.7097    0.8395 O   0  0  0  0  0  0  0  0  0  0  0  0
   -0.3425    1.5691    2.4303 N   0  0  0  0  0  0  0  0  0  0  0  0
    0.1452    0.9099    3.0319 H   0  0  0  0  0  0  0  0  0  0  0  0
   -0.6430    2.8886    2.9809 C   0  0  0  0  0  0  0  0  0  0  0  0
   -1.6429    2.8972    3.4291 H   0  0  0  0  0  0  0  0  0  0  0  0
    0.0845    3.1538    3.7543 H   0  0  0  0  0  0  0  0  0  0  0  0
   -0.6056    3.6530    2.1971 H   0  0  0  0  0  0  0  0  0  0  0  0
  1  2  1  0  0  0  0
  2  3  1  0  0  0  0
  2  4  1  0  0  0  0
  2  5  1  0  0  0  0
  5  6  2  0  0  0  0
  5  7  1  0  0  0  0
  7  8  1  0  0  0  0
  7  9  1  0  0  0  0
  9 10  1  0  0  0  0
  9 11  1  0  0  0  0
  9 27  1  0  0  0  0
 11 12  1  0  0  0  0
 11 13  1  0  0  0  0
 11 14  1  0  0  0  0
 14 15  1  0  0  0  0
 14 16  1  0  0  0  0
 14 17  1  0  0  0  0
 17 18  1  0  0  0  0
 17 19  1  0  0  0  0
 17 20  1  0  0  0  0
 20 21  1  0  0  0  0
 20 22  1  0  0  0  0
 20 23  1  0  0  0  0
 23 24  1  0  0  0  0
 23 25  1  0  0  0  0
 23 26  1  0  0  0  0
 27 28  2  0  0  0  0
 27 29  1  0  0  0  0
 29 30  1  0  0  0  0
 29 31  1  0  0  0  0
 31 32  1  0  0  0  0
 31 33  1  0  0  0  0
 31 34  1  0  0  0  0
M  CHG  1  23   1
M  END
$$$$

  -OEChem-02102214153D

 34 33  0     1  0  0  0  0  0999 V2000
   -3.7563   -4.0823    1.6326 H   0  0  0  0  0  0  0  0  0  0  0  0
   -3.7716   -3.0660    1.2287 C   0  0  0  0  0  0  0  0  0  0  0  0
   -4.4935   -2.4732    1.7958 H   0  0  0  0  0  0  0  0  0  0  0  0
   -4.0863   -3.1084    0.1832 H   0  0  0  0  0  0  0  0  0  0  0  0
   -2.3926   -2.4433    1.3311 C   0  0  0  0  0  0  0  0  0  0  0  0
   -1.4695   -3.0653    1.8333 O   0  0  0  0  0  0  0  0  0  0  0  0
   -2.1680   -1.1664    0.8570 N   0  0  0  0  0  0  0  0  0  0  0  0
   -2.9700   -0.6478    0.4996 H   0  0  0  0  0  0  0  0  0  0  0  0
   -0.8913   -0.4495    0.9903 C   0  0  1  0  0  0  0  0  0  0  0  0
   -0.2568   -0.9357    1.7383 H   0  0  0  0  0  0  0  0  0  0  0  0
   -0.2155   -0.5347   -0.4004 C   0  0  0  0  0  0  0  0  0  0  0  0
   -0.5238   -1.4686   -0.8846 H   0  0  0  0  0  0  0  0  0  0  0  0
   -0.5815    0.2823   -1.0326 H   0  0  0  0  0  0  0  0  0  0  0  0
    1.3224   -0.5333   -0.3972 C   0  0  0  0  0  0  0  0  0  0  0  0
    1.6807   -1.4204    0.1378 H   0  0  0  0  0  0  0  0  0  0  0  0
    1.6545   -0.6228   -1.4376 H   0  0  0  0  0  0  0  0  0  0  0  0
    1.9397    0.7241    0.2275 C   0  0  0  0  0  0  0  0  0  0  0  0
    1.4170    1.6106   -0.1498 H   0  0  0  0  0  0  0  0  0  0  0  0
    1.8251    0.6902    1.3143 H   0  0  0  0  0  0  0  0  0  0  0  0
    3.4225    0.8089   -0.1280 C   0  0  0  0  0  0  0  0  0  0  0  0
    3.9430   -0.0719    0.2759 H   0  0  0  0  0  0  0  0  0  0  0  0
    3.5337    0.7770   -1.2221 H   0  0  0  0  0  0  0  0  0  0  0  0
    3.9811    2.0627    0.4228 N   0  3  0  0  0  0  0  0  0  0  0  0
    3.8796    2.0743    1.4391 H   0  0  0  0  0  0  0  0  0  0  0  0
    4.9733    2.1393    0.1876 H   0  0  0  0  0  0  0  0  0  0  0  0
    3.4851    2.8663    0.0309 H   0  0  0  0  0  0  0  0  0  0  0  0
   -1.1445    1.0033    1.4467 C   0  0  0  0  0  0  0  0  0  0  0  0
   -1.9351    1.7023    0.8285 O   0  0  0  0  0  0  0  0  0  0  0  0
   -0.3847    1.5770    2.4524 N   0  0  0  0  0  0  0  0  0  0  0  0
    0.0709    0.9212    3.0818 H   0  0  0  0  0  0  0  0  0  0  0  0
   -0.6919    2.9071    2.9740 C   0  0  0  0  0  0  0  0  0  0  0  0
   -1.7026    2.9297    3.3965 H   0  0  0  0  0  0  0  0  0  0  0  0
    0.0175    3.1810    3.7611 H   0  0  0  0  0  0  0  0  0  0  0  0
   -0.6302    3.6581    2.1789 H   0  0  0  0  0  0  0  0  0  0  0  0
  1  2  1  0  0  0  0
  2  3  1  0  0  0  0
  2  4  1  0  0  0  0
  2  5  1  0  0  0  0
  5  6  2  0  0  0  0
  5  7  1  0  0  0  0
  7  8  1  0  0  0  0
  7  9  1  0  0  0  0
  9 10  1  0  0  0  0
  9 11  1  0  0  0  0
  9 27  1  0  0  0  0
 11 12  1  0  0  0  0
 11 13  1  0  0  0  0
 11 14  1  0  0  0  0
 14 15  1  0  0  0  0
 14 16  1  0  0  0  0
 14 17  1  0  0  0  0
 17 18  1  0  0  0  0
 17 19  1  0  0  0  0
 17 20  1  0  0  0  0
 20 21  1  0  0  0  0
 20 22  1  0  0  0  0
 20 23  1  0  0  0  0
 23 24  1  0  0  0  0
 23 25  1  0  0  0  0
 23 26  1  0  0  0  0
 27 28  2  0  0  0  0
 27 29  1  0  0  0  0
 29 30  1  0  0  0  0
 29 31  1  0  0  0  0
 31 32  1  0  0  0  0
 31 33  1  0  0  0  0
 31 34  1  0  0  0  0
M  CHG  1  23   1
M  END
$$$$

  -OEChem-02102214153D

 34 33  0     1  0  0  0  0  0999 V2000
   -3.7667   -4.0937    1.6286 H   0  0  0  0  0  0  0  0  0  0  0  0
   -3.7830   -3.0779    1.2235 C   0  0  0  0  0  0  0  0  0  0  0  0
   -4.5131   -2.4881    1.7831 H   0  0  0  0  0  0  0  0  0  0  0  0
   -4.0873   -3.1228    0.1751 H   0  0  0  0  0  0  0  0  0  0  0  0
   -2.4083   -2.4480    1.3382 C   0  0  0  0  0  0  0  0  0  0  0  0
   -1.4873   -3.0629    1.8532 O   0  0  0  0  0  0  0  0  0  0  0  0
   -2.1858   -1.1714    0.8627 N   0  0  0  0  0  0  0  0  0  0  0  0
   -2.9864   -0.6583    0.4938 H   0  0  0  0  0  0  0  0  0  0  0  0
   -0.9132   -0.4485    1.0007 C   0  0  1  0  0  0  0  0  0  0  0  0
   -0.2841   -0.9326    1.7541 H   0  0  0  0  0  0  0  0  0  0  0  0
   -0.2283   -0.5360   -0.3862 C   0  0  0  0  0  0  0  0  0  0  0  0
   -0.5418   -1.4614   -0.8831 H   0  0  0  0  0  0  0  0  0  0  0  0
   -0.5913    0.2902   -1.0076 H   0  0  0  0  0  0  0  0  0  0  0  0
    1.3120   -0.5295   -0.3999 C   0  0  0  0  0  0  0  0  0  0  0  0
    1.6622   -1.5217   -0.0922 H   0  0  0  0  0  0  0  0  0  0  0  0
    1.6361   -0.3758   -1.4355 H   0  0  0  0  0  0  0  0  0  0  0  0
    1.9659    0.5208    0.5072 C   0  0  0  0  0  0  0  0  0  0  0  0
    1.5076    1.4976    0.3155 H   0  0  0  0  0  0  0  0  0  0  0  0
    1.8059    0.2586    1.5575 H   0  0  0  0  0  0  0  0  0  0  0  0
    3.4639    0.5900    0.2164 C   0  0  0  0  0  0  0  0  0  0  0  0
    3.9203   -0.3885    0.4280 H   0  0  0  0  0  0  0  0  0  0  0  0
    3.6128    0.7918   -0.8548 H   0  0  0  0  0  0  0  0  0  0  0  0
    4.0718    1.6555    1.0427 N   0  3  0  0  0  0  0  0  0  0  0  0
    3.9607    1.4361    2.0340 H   0  0  0  0  0  0  0  0  0  0  0  0
    5.0690    1.7383    0.8314 H   0  0  0  0  0  0  0  0  0  0  0  0
    3.6170    2.5499    0.8472 H   0  0  0  0  0  0  0  0  0  0  0  0
   -1.1737    1.0049    1.4523 C   0  0  0  0  0  0  0  0  0  0  0  0
   -1.9654    1.6986    0.8299 O   0  0  0  0  0  0  0  0  0  0  0  0
   -0.4201    1.5835    2.4604 N   0  0  0  0  0  0  0  0  0  0  0  0
    0.0162    0.9305    3.1056 H   0  0  0  0  0  0  0  0  0  0  0  0
   -0.7205    2.9239    2.9598 C   0  0  0  0  0  0  0  0  0  0  0  0
   -1.7340    2.9611    3.3747 H   0  0  0  0  0  0  0  0  0  0  0  0
   -0.0142    3.2051    3.7470 H   0  0  0  0  0  0  0  0  0  0  0  0
   -0.6476    3.6621    2.1536 H   0  0  0  0  0  0  0  0  0  0  0  0
  1  2  1  0  0  0  0
  2  3  1  0  0  0  0
  2  4  1  0  0  0  0
  2  5  1  0  0  0  0
  5  6  2  0  0  0  0
  5  7  1  0  0  0  0
  7  8  1  0  0  0  0
  7  9  1  0  0  0  0
  9 10  1  0  0  0  0
  9 11  1  0  0  0  0
  9 27  1  0  0  0  0
 11 12  1  0  0  0  0
 11 13  1  0  0  0  0
 11 14  1  0  0  0  0
 14 15  1  0  0  0  0
 14 16  1  0  0  0  0
 14 17  1  0  0  0  0
 17 18  1  0  0  0  0
 17 19  1  0  0  0  0
 17 20  1  0  0  0  0
 20 21  1  0  0  0  0
 20 22  1  0  0  0  0
 20 23  1  0  0  0  0
 23 24  1  0  0  0  0
 23 25  1  0  0  0  0
 23 26  1  0  0  0  0
 27 28  2  0  0  0  0
 27 29  1  0  0  0  0
 29 30  1  0  0  0  0
 29 31  1  0  0  0  0
 31 32  1  0  0  0  0
 31 33  1  0  0  0  0
 31 34  1  0  0  0  0
M  CHG  1  23   1
M  END
$$$$

  -OEChem-02102214153D

 34 33  0     1  0  0  0  0  0999 V2000
   -3.7705   -4.1112    1.6113 H   0  0  0  0  0  0  0  0  0  0  0  0
   -3.7921   -3.0926    1.2136 C   0  0  0  0  0  0  0  0  0  0  0  0
   -4.5360   -2.5145    1.7670 H   0  0  0  0  0  0  0  0  0  0  0  0
   -4.0820   -3.1330    0.1609 H   0  0  0  0  0  0  0  0  0  0  0  0
   -2.4258   -2.4492    1.3509 C   0  0  0  0  0  0  0  0  0  0  0  0
   -1.5078   -3.0529    1.8849 O   0  0  0  0  0  0  0  0  0  0  0  0
   -2.2061   -1.1751    0.8675 N   0  0  0  0  0  0  0  0  0  0  0  0
   -3.0055   -0.6709    0.4835 H   0  0  0  0  0  0  0  0  0  0  0  0
   -0.9413   -0.4403    1.0148 C   0  0  1  0  0  0  0  0  0  0  0  0
   -0.3275   -0.9174    1.7837 H   0  0  0  0  0  0  0  0  0  0  0  0
   -0.2343   -0.5345   -0.3617 C   0  0  0  0  0  0  0  0  0  0  0  0
   -0.5438   -1.4598   -0.8615 H   0  0  0  0  0  0  0  0  0  0  0  0
   -0.5991    0.2896   -0.9853 H   0  0  0  0  0  0  0  0  0  0  0  0
    1.3094   -0.5161   -0.3853 C   0  0  0  0  0  0  0  0  0  0  0  0
    1.6515   -1.5558   -0.3248 H   0  0  0  0  0  0  0  0  0  0  0  0
    1.6273   -0.1275   -1.3595 H   0  0  0  0  0  0  0  0  0  0  0  0
    2.0044    0.2702    0.7348 C   0  0  0  0  0  0  0  0  0  0  0  0
    1.6316    1.2999    0.7361 H   0  0  0  0  0  0  0  0  0  0  0  0
    1.7911   -0.1828    1.7078 H   0  0  0  0  0  0  0  0  0  0  0  0
    3.5123    0.2704    0.4874 C   0  0  0  0  0  0  0  0  0  0  0  0
    3.8786   -0.7671    0.4841 H   0  0  0  0  0  0  0  0  0  0  0  0
    3.7117    0.6857   -0.5118 H   0  0  0  0  0  0  0  0  0  0  0  0
    4.1847    1.0700    1.5346 N   0  3  0  0  0  0  0  0  0  0  0  0
    4.0296    0.6475    2.4518 H   0  0  0  0  0  0  0  0  0  0  0  0
    5.1907    1.1083    1.3541 H   0  0  0  0  0  0  0  0  0  0  0  0
    3.8133    2.0222    1.5389 H   0  0  0  0  0  0  0  0  0  0  0  0
   -1.2128    1.0155    1.4499 C   0  0  0  0  0  0  0  0  0  0  0  0
   -2.0151    1.6934    0.8237 O   0  0  0  0  0  0  0  0  0  0  0  0
   -0.4722    1.6053    2.4608 N   0  0  0  0  0  0  0  0  0  0  0  0
   -0.0415    0.9617    3.1180 H   0  0  0  0  0  0  0  0  0  0  0  0
   -0.7752    2.9531    2.9373 C   0  0  0  0  0  0  0  0  0  0  0  0
   -1.7920    2.9980    3.3431 H   0  0  0  0  0  0  0  0  0  0  0  0
   -0.0751    3.2461    3.7255 H   0  0  0  0  0  0  0  0  0  0  0  0
   -0.6939    3.6787    2.1205 H   0  0  0  0  0  0  0  0  0  0  0  0
  1  2  1  0  0  0  0
  2  3  1  0  0  0  0
  2  4  1  0  0  0  0
  2  5  1  0  0  0  0
  5  6  2  0  0  0  0
  5  7  1  0  0  0  0
  7  8  1  0  0  0  0
  7  9  1  0  0  0  0
  9 10  1  0  0  0  0
  9 11  1  0  0  0  0
  9 27  1  0  0  0  0
 11 12  1  0  0  0  0
 11 13  1  0  0  0  0
 11 14  1  0  0  0  0
 14 15  1  0  0  0  0
 14 16  1  0  0  0  0
 14 17  1  0  0  0  0
 17 18  1  0  0  0  0
 17 19  1  0  0  0  0
 17 20  1  0  0  0  0
 20 21  1  0  0  0  0
 20 22  1  0  0  0  0
 20 23  1  0  0  0  0
 23 24  1  0  0  0  0
 23 25  1  0  0  0  0
 23 26  1  0  0  0  0
 27 28  2  0  0  0  0
 27 29  1  0  0  0  0
 29 30  1  0  0  0  0
 29 31  1  0  0  0  0
 31 32  1  0  0  0  0
 31 33  1  0  0  0  0
 31 34  1  0  0  0  0
M  CHG  1  23   1
M  END
$$$$

  -OEChem-02102214153D

 34 33  0     1  0  0  0  0  0999 V2000
   -3.8030   -4.0918    1.6346 H   0  0  0  0  0  0  0  0  0  0  0  0
   -3.8170   -3.0798    1.2201 C   0  0  0  0  0  0  0  0  0  0  0  0
   -4.5624   -2.4892    1.7582 H   0  0  0  0  0  0  0  0  0  0  0  0
   -4.0993   -3.1360    0.1660 H   0  0  0  0  0  0  0  0  0  0  0  0
   -2.4489   -2.4400    1.3583 C   0  0  0  0  0  0  0  0  0  0  0  0
   -1.5375   -3.0391    1.9098 O   0  0  0  0  0  0  0  0  0  0  0  0
   -2.2202   -1.1731    0.8602 N   0  0  0  0  0  0  0  0  0  0  0  0
   -3.0155   -0.6682    0.4683 H   0  0  0  0  0  0  0  0  0  0  0  0
   -0.9570   -0.4378    1.0196 C   0  0  1  0  0  0  0  0  0  0  0  0
   -0.3656   -0.9051    1.8095 H   0  0  0  0  0  0  0  0  0  0  0  0
   -0.2240   -0.5390   -0.3432 C   0  0  0  0  0  0  0  0  0  0  0  0
   -0.5290   -1.4697   -0.8357 H   0  0  0  0  0  0  0  0  0  0  0  0
   -0.5846    0.2754   -0.9821 H   0  0  0  0  0  0  0  0  0  0  0  0
    1.3234   -0.5218   -0.3626 C   0  0  0  0  0  0  0  0  0  0  0  0
    1.6569   -1.5435   -0.5786 H   0  0  0  0  0  0  0  0  0  0  0  0
    1.6402    0.1029   -1.2055 H   0  0  0  0  0  0  0  0  0  0  0  0
    2.0480   -0.0543    0.9086 C   0  0  0  0  0  0  0  0  0  0  0  0
    1.7366    0.9659    1.1528 H   0  0  0  0  0  0  0  0  0  0  0  0
    1.8020   -0.7113    1.7486 H   0  0  0  0  0  0  0  0  0  0  0  0
    3.5564   -0.0880    0.6621 C   0  0  0  0  0  0  0  0  0  0  0  0
    3.8534   -1.1112    0.3876 H   0  0  0  0  0  0  0  0  0  0  0  0
    3.7951    0.5580   -0.1957 H   0  0  0  0  0  0  0  0  0  0  0  0
    4.2696    0.3610    1.8776 N   0  3  0  0  0  0  0  0  0  0  0  0
    4.0541   -0.2608    2.6595 H   0  0  0  0  0  0  0  0  0  0  0  0
    5.2794    0.3493    1.7155 H   0  0  0  0  0  0  0  0  0  0  0  0
    3.9849    1.3122    2.1188 H   0  0  0  0  0  0  0  0  0  0  0  0
   -1.2350    1.0240    1.4291 C   0  0  0  0  0  0  0  0  0  0  0  0
   -2.0483    1.6834    0.7974 O   0  0  0  0  0  0  0  0  0  0  0  0
   -0.5130    1.6292    2.4437 N   0  0  0  0  0  0  0  0  0  0  0  0
   -0.0673    0.9998    3.1037 H   0  0  0  0  0  0  0  0  0  0  0  0
   -0.8260    2.9808    2.9022 C   0  0  0  0  0  0  0  0  0  0  0  0
   -1.8487    3.0268    3.2928 H   0  0  0  0  0  0  0  0  0  0  0  0
   -0.1382    3.2832    3.6978 H   0  0  0  0  0  0  0  0  0  0  0  0
   -0.7343    3.6982    2.0791 H   0  0  0  0  0  0  0  0  0  0  0  0
  1  2  1  0  0  0  0
  2  3  1  0  0  0  0
  2  4  1  0  0  0  0
  2  5  1  0  0  0  0
  5  6  2  0  0  0  0
  5  7  1  0  0  0  0
  7  8  1  0  0  0  0
  7  9  1  0  0  0  0
  9 10  1  0  0  0  0
  9 11  1  0  0  0  0
  9 27  1  0  0  0  0
 11 12  1  0  0  0  0
 11 13  1  0  0  0  0
 11 14  1  0  0  0  0
 14 15  1  0  0  0  0
 14 16  1  0  0  0  0
 14 17  1  0  0  0  0
 17 18  1  0  0  0  0
 17 19  1  0  0  0  0
 17 20  1  0  0  0  0
 20 21  1  0  0  0  0
 20 22  1  0  0  0  0
 20 23  1  0  0  0  0
 23 24  1  0  0  0  0
 23 25  1  0  0  0  0
 23 26  1  0  0  0  0
 27 28  2  0  0  0  0
 27 29  1  0  0  0  0
 29 30  1  0  0  0  0
 29 31  1  0  0  0  0
 31 32  1  0  0  0  0
 31 33  1  0  0  0  0
 31 34  1  0  0  0  0
M  CHG  1  23   1
M  END
$$$$

  -OEChem-02102214153D

 34 33  0     1  0  0  0  0  0999 V2000
   -3.8184   -4.0643    1.6860 H   0  0  0  0  0  0  0  0  0  0  0  0
   -3.8264   -3.0607    1.2516 C   0  0  0  0  0  0  0  0  0  0  0  0
   -4.5633   -2.4532    1.7827 H   0  0  0  0  0  0  0  0  0  0  0  0
   -4.1156   -3.1348    0.2004 H   0  0  0  0  0  0  0  0  0  0  0  0
   -2.4522   -2.4303    1.3679 C   0  0  0  0  0  0  0  0  0  0  0  0
   -1.5379   -3.0318    1.9131 O   0  0  0  0  0  0  0  0  0  0  0  0
   -2.2199   -1.1702    0.8552 N   0  0  0  0  0  0  0  0  0  0  0  0
   -3.0168   -0.6592    0.4743 H   0  0  0  0  0  0  0  0  0  0  0  0
   -0.9546   -0.4393    1.0117 C   0  0  1  0  0  0  0  0  0  0  0  0
   -0.3733   -0.8976    1.8133 H   0  0  0  0  0  0  0  0  0  0  0  0
   -0.2137   -0.5390   -0.3470 C   0  0  0  0  0  0  0  0  0  0  0  0
   -0.5110   -1.4820   -0.8203 H   0  0  0  0  0  0  0  0  0  0  0  0
   -0.5788    0.2578   -1.0051 H   0  0  0  0  0  0  0  0  0  0  0  0
    1.3349   -0.5245   -0.3620 C   0  0  0  0  0  0  0  0  0  0  0  0
    1.6700   -1.4416   -0.8604 H   0  0  0  0  0  0  0  0  0  0  0  0
    1.6509    0.3146   -0.9925 H   0  0  0  0  0  0  0  0  0  0  0  0
    2.0587   -0.4127    0.9883 C   0  0  0  0  0  0  0  0  0  0  0  0
    1.7843    0.5238    1.4831 H   0  0  0  0  0  0  0  0  0  0  0  0
    1.7702   -1.2521    1.6303 H   0  0  0  0  0  0  0  0  0  0  0  0
    3.5683   -0.4530    0.7547 C   0  0  0  0  0  0  0  0  0  0  0  0
    3.8191   -1.3624    0.1886 H   0  0  0  0  0  0  0  0  0  0  0  0
    3.8614    0.4054    0.1325 H   0  0  0  0  0  0  0  0  0  0  0  0
    4.2700   -0.4343    2.0566 N   0  3  0  0  0  0  0  0  0  0  0  0
    3.9800   -1.2364    2.6205 H   0  0  0  0  0  0  0  0  0  0  0  0
    5.2811   -0.4823    1.9104 H   0  0  0  0  0  0  0  0  0  0  0  0
    4.0495    0.4257    2.5618 H   0  0  0  0  0  0  0  0  0  0  0  0
   -1.2282    1.0281    1.4036 C   0  0  0  0  0  0  0  0  0  0  0  0
   -2.0527    1.6757    0.7739 O   0  0  0  0  0  0  0  0  0  0  0  0
   -0.5092    1.6441    2.4134 N   0  0  0  0  0  0  0  0  0  0  0  0
   -0.0456    1.0271    3.0721 H   0  0  0  0  0  0  0  0  0  0  0  0
   -0.8168    3.0028    2.8540 C   0  0  0  0  0  0  0  0  0  0  0  0
   -1.8406    3.0593    3.2397 H   0  0  0  0  0  0  0  0  0  0  0  0
   -0.1299    3.3114    3.6481 H   0  0  0  0  0  0  0  0  0  0  0  0
   -0.7180    3.7090    2.0222 H   0  0  0  0  0  0  0  0  0  0  0  0
  1  2  1  0  0  0  0
  2  3  1  0  0  0  0
  2  4  1  0  0  0  0
  2  5  1  0  0  0  0
  5  6  2  0  0  0  0
  5  7  1  0  0  0  0
  7  8  1  0  0  0  0
  7  9  1  0  0  0  0
  9 10  1  0  0  0  0
  9 11  1  0  0  0  0
  9 27  1  0  0  0  0
 11 12  1  0  0  0  0
 11 13  1  0  0  0  0
 11 14  1  0  0  0  0
 14 15  1  0  0  0  0
 14 16  1  0  0  0  0
 14 17  1  0  0  0  0
 17 18  1  0  0  0  0
 17 19  1  0  0  0  0
 17 20  1  0  0  0  0
 20 21  1  0  0  0  0
 20 22  1  0  0  0  0
 20 23  1  0  0  0  0
 23 24  1  0  0  0  0
 23 25  1  0  0  0  0
 23 26  1  0  0  0  0
 27 28  2  0  0  0  0
 27 29  1  0  0  0  0
 29 30  1  0  0  0  0
 29 31  1  0  0  0  0
 31 32  1  0  0  0  0
 31 33  1  0  0  0  0
 31 34  1  0  0  0  0
M  CHG  1  23   1
M  END
$$$$

  -OEChem-02102214153D

 34 33  0     1  0  0  0  0  0999 V2000
   -3.7865   -4.0657    1.7307 H   0  0  0  0  0  0  0  0  0  0  0  0
   -3.8044   -3.0649    1.2899 C   0  0  0  0  0  0  0  0  0  0  0  0
   -4.5290   -2.4537    1.8338 H   0  0  0  0  0  0  0  0  0  0  0  0
   -4.1187   -3.1464    0.2464 H   0  0  0  0  0  0  0  0  0  0  0  0
   -2.4279   -2.4333    1.3697 C   0  0  0  0  0  0  0  0  0  0  0  0
   -1.4982   -3.0349    1.8897 O   0  0  0  0  0  0  0  0  0  0  0  0
   -2.2090   -1.1736    0.8494 N   0  0  0  0  0  0  0  0  0  0  0  0
   -3.0153   -0.6627    0.4884 H   0  0  0  0  0  0  0  0  0  0  0  0
   -0.9458   -0.4366    0.9912 C   0  0  1  0  0  0  0  0  0  0  0  0
   -0.3646   -0.8884    1.7959 H   0  0  0  0  0  0  0  0  0  0  0  0
   -0.2058   -0.5279   -0.3680 C   0  0  0  0  0  0  0  0  0  0  0  0
   -0.4876   -1.4836   -0.8247 H   0  0  0  0  0  0  0  0  0  0  0  0
   -0.5800    0.2533   -1.0398 H   0  0  0  0  0  0  0  0  0  0  0  0
    1.3416   -0.5009   -0.3721 C   0  0  0  0  0  0  0  0  0  0  0  0
    1.6886   -1.2416   -1.1018 H   0  0  0  0  0  0  0  0  0  0  0  0
    1.6552    0.4828   -0.7399 H   0  0  0  0  0  0  0  0  0  0  0  0
    2.0409   -0.7469    0.9740 C   0  0  0  0  0  0  0  0  0  0  0  0
    1.8143    0.0661    1.6710 H   0  0  0  0  0  0  0  0  0  0  0  0
    1.6753   -1.6887    1.3996 H   0  0  0  0  0  0  0  0  0  0  0  0
    3.5506   -0.8448    0.7614 C   0  0  0  0  0  0  0  0  0  0  0  0
    3.7541   -1.5902   -0.0218 H   0  0  0  0  0  0  0  0  0  0  0  0
    3.9304    0.1206    0.3954 H   0  0  0  0  0  0  0  0  0  0  0  0
    4.1987   -1.2324    2.0336 N   0  3  0  0  0  0  0  0  0  0  0  0
    3.8144   -2.1210    2.3632 H   0  0  0  0  0  0  0  0  0  0  0  0
    5.2063   -1.3397    1.8958 H   0  0  0  0  0  0  0  0  0  0  0  0
    4.0362   -0.5168    2.7439 H   0  0  0  0  0  0  0  0  0  0  0  0
   -1.2092    1.0330    1.3805 C   0  0  0  0  0  0  0  0  0  0  0  0
   -2.0530    1.6742    0.7702 O   0  0  0  0  0  0  0  0  0  0  0  0
   -0.4761    1.6512    2.3784 N   0  0  0  0  0  0  0  0  0  0  0  0
    0.0292    1.0439    3.0144 H   0  0  0  0  0  0  0  0  0  0  0  0
   -0.7681    3.0134    2.8186 C   0  0  0  0  0  0  0  0  0  0  0  0
   -1.7836    3.0767    3.2250 H   0  0  0  0  0  0  0  0  0  0  0  0
   -0.0637    3.3225    3.5968 H   0  0  0  0  0  0  0  0  0  0  0  0
   -0.6825    3.7152    1.9817 H   0  0  0  0  0  0  0  0  0  0  0  0
  1  2  1  0  0  0  0
  2  3  1  0  0  0  0
  2  4  1  0  0  0  0
  2  5  1  0  0  0  0
  5  6  2  0  0  0  0
  5  7  1  0  0  0  0
  7  8  1  0  0  0  0
  7  9  1  0  0  0  0
  9 10  1  0  0  0  0
  9 11  1  0  0  0  0
  9 27  1  0  0  0  0
 11 12  1  0  0  0  0
 11 13  1  0  0  0  0
 11 14  1  0  0  0  0
 14 15  1  0  0  0  0
 14 16  1  0  0  0  0
 14 17  1  0  0  0  0
 17 18  1  0  0  0  0
 17 19  1  0  0  0  0
 17 20  1  0  0  0  0
 20 21  1  0  0  0  0
 20 22  1  0  0  0  0
 20 23  1  0  0  0  0
 23 24  1  0  0  0  0
 23 25  1  0  0  0  0
 23 26  1  0  0  0  0
 27 28  2  0  0  0  0
 27 29  1  0  0  0  0
 29 30  1  0  0  0  0
 29 31  1  0  0  0  0
 31 32  1  0  0  0  0
 31 33  1  0  0  0  0
 31 34  1  0  0  0  0
M  CHG  1  23   1
M  END
$$$$

  -OEChem-02102214153D

 34 33  0     1  0  0  0  0  0999 V2000
   -3.7071   -4.0801    1.7653 H   0  0  0  0  0  0  0  0  0  0  0  0
   -3.7439   -3.0799    1.3245 C   0  0  0  0  0  0  0  0  0  0  0  0
   -4.4536   -2.4717    1.8907 H   0  0  0  0  0  0  0  0  0  0  0  0
   -4.0909   -3.1636    0.2917 H   0  0  0  0  0  0  0  0  0  0  0  0
   -2.3688   -2.4411    1.3598 C   0  0  0  0  0  0  0  0  0  0  0  0
   -1.4152   -3.0436    1.8356 O   0  0  0  0  0  0  0  0  0  0  0  0
   -2.1755   -1.1777    0.8384 N   0  0  0  0  0  0  0  0  0  0  0  0
   -2.9990   -0.6653    0.5203 H   0  0  0  0  0  0  0  0  0  0  0  0
   -0.9202   -0.4259    0.9683 C   0  0  1  0  0  0  0  0  0  0  0  0
   -0.3326   -0.8681    1.7730 H   0  0  0  0  0  0  0  0  0  0  0  0
   -0.1833   -0.5046   -0.3921 C   0  0  0  0  0  0  0  0  0  0  0  0
   -0.4486   -1.4646   -0.8495 H   0  0  0  0  0  0  0  0  0  0  0  0
   -0.5640    0.2734   -1.0638 H   0  0  0  0  0  0  0  0  0  0  0  0
    1.3610   -0.4555   -0.3757 C   0  0  0  0  0  0  0  0  0  0  0  0
    1.7231   -0.9788   -1.2680 H   0  0  0  0  0  0  0  0  0  0  0  0
    1.6719    0.5915   -0.4657 H   0  0  0  0  0  0  0  0  0  0  0  0
    2.0222   -1.0451    0.8808 C   0  0  0  0  0  0  0  0  0  0  0  0
    1.8720   -0.3767    1.7349 H   0  0  0  0  0  0  0  0  0  0  0  0
    1.5527   -2.0103    1.1061 H   0  0  0  0  0  0  0  0  0  0  0  0
    3.5163   -1.2572    0.6461 C   0  0  0  0  0  0  0  0  0  0  0  0
    3.6564   -1.8268   -0.2846 H   0  0  0  0  0  0  0  0  0  0  0  0
    4.0078   -0.2829    0.5069 H   0  0  0  0  0  0  0  0  0  0  0  0
    4.0820   -1.9913    1.7995 N   0  3  0  0  0  0  0  0  0  0  0  0
    3.5844   -2.8762    1.9253 H   0  0  0  0  0  0  0  0  0  0  0  0
    5.0724   -2.1893    1.6401 H   0  0  0  0  0  0  0  0  0  0  0  0
    3.9877   -1.4359    2.6513 H   0  0  0  0  0  0  0  0  0  0  0  0
   -1.1919    1.0400    1.3632 C   0  0  0  0  0  0  0  0  0  0  0  0
   -2.0690    1.6639    0.7826 O   0  0  0  0  0  0  0  0  0  0  0  0
   -0.4536    1.6648    2.3528 N   0  0  0  0  0  0  0  0  0  0  0  0
    0.1199    1.0757    2.9467 H   0  0  0  0  0  0  0  0  0  0  0  0
   -0.7531    3.0204    2.8068 C   0  0  0  0  0  0  0  0  0  0  0  0
   -1.7611    3.0688    3.2330 H   0  0  0  0  0  0  0  0  0  0  0  0
   -0.0377    3.3329    3.5735 H   0  0  0  0  0  0  0  0  0  0  0  0
   -0.6918    3.7277    1.9724 H   0  0  0  0  0  0  0  0  0  0  0  0
  1  2  1  0  0  0  0
  2  3  1  0  0  0  0
  2  4  1  0  0  0  0
  2  5  1  0  0  0  0
  5  6  2  0  0  0  0
  5  7  1  0  0  0  0
  7  8  1  0  0  0  0
  7  9  1  0  0  0  0
  9 10  1  0  0  0  0
  9 11  1  0  0  0  0
  9 27  1  0  0  0  0
 11 12  1  0  0  0  0
 11 13  1  0  0  0  0
 11 14  1  0  0  0  0
 14 15  1  0  0  0  0
 14 16  1  0  0  0  0
 14 17  1  0  0  0  0
 17 18  1  0  0  0  0
 17 19  1  0  0  0  0
 17 20  1  0  0  0  0
 20 21  1  0  0  0  0
 20 22  1  0  0  0  0
 20 23  1  0  0  0  0
 23 24  1  0  0  0  0
 23 25  1  0  0  0  0
 23 26  1  0  0  0  0
 27 28  2  0  0  0  0
 27 29  1  0  0  0  0
 29 30  1  0  0  0  0
 29 31  1  0  0  0  0
 31 32  1  0  0  0  0
 31 33  1  0  0  0  0
 31 34  1  0  0  0  0
M  CHG  1  23   1
M  END
$$$$

  -OEChem-02102214153D

 34 33  0     1  0  0  0  0  0999 V2000
   -3.6316   -4.0974    1.7674 H   0  0  0  0  0  0  0  0  0  0  0  0
   -3.6830   -3.0938    1.3363 C   0  0  0  0  0  0  0  0  0  0  0  0
   -4.3744   -2.4910    1.9304 H   0  0  0  0  0  0  0  0  0  0  0  0
   -4.0631   -3.1684    0.3143 H   0  0  0  0  0  0  0  0  0  0  0  0
   -2.3086   -2.4535    1.3322 C   0  0  0  0  0  0  0  0  0  0  0  0
   -1.3355   -3.0629    1.7589 O   0  0  0  0  0  0  0  0  0  0  0  0
   -2.1372   -1.1837    0.8193 N   0  0  0  0  0  0  0  0  0  0  0  0
   -2.9742   -0.6686    0.5431 H   0  0  0  0  0  0  0  0  0  0  0  0
   -0.8894   -0.4201    0.9449 C   0  0  1  0  0  0  0  0  0  0  0  0
   -0.2914   -0.8583    1.7444 H   0  0  0  0  0  0  0  0  0  0  0  0
   -0.1563   -0.4892   -0.4151 C   0  0  0  0  0  0  0  0  0  0  0  0
   -0.4119   -1.4439   -0.8884 H   0  0  0  0  0  0  0  0  0  0  0  0
   -0.5330    0.2993   -1.0767 H   0  0  0  0  0  0  0  0  0  0  0  0
    1.3826   -0.4222   -0.3622 C   0  0  0  0  0  0  0  0  0  0  0  0
    1.7632   -0.7101   -1.3485 H   0  0  0  0  0  0  0  0  0  0  0  0
    1.6901    0.6140   -0.1821 H   0  0  0  0  0  0  0  0  0  0  0  0
    1.9981   -1.3240    0.7226 C   0  0  0  0  0  0  0  0  0  0  0  0
    1.9098   -0.8468    1.7040 H   0  0  0  0  0  0  0  0  0  0  0  0
    1.4457   -2.2712    0.7497 H   0  0  0  0  0  0  0  0  0  0  0  0
    3.4668   -1.6091    0.4212 C   0  0  0  0  0  0  0  0  0  0  0  0
    3.5575   -1.9817   -0.6098 H   0  0  0  0  0  0  0  0  0  0  0  0
    4.0430   -0.6741    0.4806 H   0  0  0  0  0  0  0  0  0  0  0  0
    3.9597   -2.6146    1.3881 N   0  3  0  0  0  0  0  0  0  0  0  0
    3.3841   -3.4587    1.3337 H   0  0  0  0  0  0  0  0  0  0  0  0
    4.9294   -2.8612    1.1783 H   0  0  0  0  0  0  0  0  0  0  0  0
    3.9091   -2.2435    2.3384 H   0  0  0  0  0  0  0  0  0  0  0  0
   -1.1723    1.0395    1.3548 C   0  0  0  0  0  0  0  0  0  0  0  0
   -2.0748    1.6517    0.8011 O   0  0  0  0  0  0  0  0  0  0  0  0
   -0.4318    1.6639    2.3427 N   0  0  0  0  0  0  0  0  0  0  0  0
    0.1923    1.0880    2.8976 H   0  0  0  0  0  0  0  0  0  0  0  0
   -0.7344    3.0132    2.8129 C   0  0  0  0  0  0  0  0  0  0  0  0
   -1.7365    3.0511    3.2538 H   0  0  0  0  0  0  0  0  0  0  0  0
   -0.0100    3.3239    3.5722 H   0  0  0  0  0  0  0  0  0  0  0  0
   -0.6901    3.7284    1.9842 H   0  0  0  0  0  0  0  0  0  0  0  0
  1  2  1  0  0  0  0
  2  3  1  0  0  0  0
  2  4  1  0  0  0  0
  2  5  1  0  0  0  0
  5  6  2  0  0  0  0
  5  7  1  0  0  0  0
  7  8  1  0  0  0  0
  7  9  1  0  0  0  0
  9 10  1  0  0  0  0
  9 11  1  0  0  0  0
  9 27  1  0  0  0  0
 11 12  1  0  0  0  0
 11 13  1  0  0  0  0
 11 14  1  0  0  0  0
 14 15  1  0  0  0  0
 14 16  1  0  0  0  0
 14 17  1  0  0  0  0
 17 18  1  0  0  0  0
 17 19  1  0  0  0  0
 17 20  1  0  0  0  0
 20 21  1  0  0  0  0
 20 22  1  0  0  0  0
 20 23  1  0  0  0  0
 23 24  1  0  0  0  0
 23 25  1  0  0  0  0
 23 26  1  0  0  0  0
 27 28  2  0  0  0  0
 27 29  1  0  0  0  0
 29 30  1  0  0  0  0
 29 31  1  0  0  0  0
 31 32  1  0  0  0  0
 31 33  1  0  0  0  0
 31 34  1  0  0  0  0
M  CHG  1  23   1
M  END
$$$$

  -OEChem-02102214153D

 34 33  0     1  0  0  0  0  0999 V2000
   -3.6080   -4.0971    1.7699 H   0  0  0  0  0  0  0  0  0  0  0  0
   -3.6659   -3.0886    1.3512 C   0  0  0  0  0  0  0  0  0  0  0  0
   -4.3280   -2.4858    1.9777 H   0  0  0  0  0  0  0  0  0  0  0  0
   -4.0856   -3.1490    0.3441 H   0  0  0  0  0  0  0  0  0  0  0  0
   -2.2864   -2.4612    1.3008 C   0  0  0  0  0  0  0  0  0  0  0  0
   -1.3030   -3.0870    1.6777 O   0  0  0  0  0  0  0  0  0  0  0  0
   -2.1219   -1.1863    0.7985 N   0  0  0  0  0  0  0  0  0  0  0  0
   -2.9643   -0.6588    0.5649 H   0  0  0  0  0  0  0  0  0  0  0  0
   -0.8687   -0.4299    0.9142 C   0  0  1  0  0  0  0  0  0  0  0  0
   -0.2574   -0.8759    1.6998 H   0  0  0  0  0  0  0  0  0  0  0  0
   -0.1504   -0.4956   -0.4515 C   0  0  0  0  0  0  0  0  0  0  0  0
   -0.4210   -1.4318   -0.9527 H   0  0  0  0  0  0  0  0  0  0  0  0
   -0.5123    0.3185   -1.0900 H   0  0  0  0  0  0  0  0  0  0  0  0
    1.3851   -0.4348   -0.3697 C   0  0  0  0  0  0  0  0  0  0  0  0
    1.7776   -0.4757   -1.3919 H   0  0  0  0  0  0  0  0  0  0  0  0
    1.6988    0.5205    0.0656 H   0  0  0  0  0  0  0  0  0  0  0  0
    1.9572   -1.6041    0.4541 C   0  0  0  0  0  0  0  0  0  0  0  0
    1.8290   -1.4116    1.5238 H   0  0  0  0  0  0  0  0  0  0  0  0
    1.4020   -2.5167    0.2069 H   0  0  0  0  0  0  0  0  0  0  0  0
    3.4373   -1.8199    0.1535 C   0  0  0  0  0  0  0  0  0  0  0  0
    3.5757   -1.9252   -0.9327 H   0  0  0  0  0  0  0  0  0  0  0  0
    4.0099   -0.9359    0.4706 H   0  0  0  0  0  0  0  0  0  0  0  0
    3.8819   -3.0393    0.8645 N   0  3  0  0  0  0  0  0  0  0  0  0
    3.3262   -3.8414    0.5581 H   0  0  0  0  0  0  0  0  0  0  0  0
    4.8678   -3.2248    0.6687 H   0  0  0  0  0  0  0  0  0  0  0  0
    3.7586   -2.9226    1.8720 H   0  0  0  0  0  0  0  0  0  0  0  0
   -1.1403    1.0262    1.3453 C   0  0  0  0  0  0  0  0  0  0  0  0
   -2.0568    1.6430    0.8204 O   0  0  0  0  0  0  0  0  0  0  0  0
   -0.3836    1.6374    2.3291 N   0  0  0  0  0  0  0  0  0  0  0  0
    0.2627    1.0589    2.8556 H   0  0  0  0  0  0  0  0  0  0  0  0
   -0.6757    2.9807    2.8221 C   0  0  0  0  0  0  0  0  0  0  0  0
   -1.6688    3.0134    3.2831 H   0  0  0  0  0  0  0  0  0  0  0  0
    0.0637    3.2811    3.5709 H   0  0  0  0  0  0  0  0  0  0  0  0
   -0.6467    3.7061    2.0018 H   0  0  0  0  0  0  0  0  0  0  0  0
  1  2  1  0  0  0  0
  2  3  1  0  0  0  0
  2  4  1  0  0  0  0
  2  5  1  0  0  0  0
  5  6  2  0  0  0  0
  5  7  1  0  0  0  0
  7  8  1  0  0  0  0
  7  9  1  0  0  0  0
  9 10  1  0  0  0  0
  9 11  1  0  0  0  0
  9 27  1  0  0  0  0
 11 12  1  0  0  0  0
 11 13  1  0  0  0  0
 11 14  1  0  0  0  0
 14 15  1  0  0  0  0
 14 16  1  0  0  0  0
 14 17  1  0  0  0  0
 17 18  1  0  0  0  0
 17 19  1  0  0  0  0
 17 20  1  0  0  0  0
 20 21  1  0  0  0  0
 20 22  1  0  0  0  0
 20 23  1  0  0  0  0
 23 24  1  0  0  0  0
 23 25  1  0  0  0  0
 23 26  1  0  0  0  0
 27 28  2  0  0  0  0
 27 29  1  0  0  0  0
 29 30  1  0  0  0  0
 29 31  1  0  0  0  0
 31 32  1  0  0  0  0
 31 33  1  0  0  0  0
 31 34  1  0  0  0  0
M  CHG  1  23   1
M  END
$$$$

  -OEChem-02102214153D

 34 33  0     1  0  0  0  0  0999 V2000
   -3.6185   -4.0869    1.8165 H   0  0  0  0  0  0  0  0  0  0  0  0
   -3.6791   -3.0784    1.3980 C   0  0  0  0  0  0  0  0  0  0  0  0
   -4.3097   -2.4661    2.0474 H   0  0  0  0  0  0  0  0  0  0  0  0
   -4.1370   -3.1351    0.4074 H   0  0  0  0  0  0  0  0  0  0  0  0
   -2.2941   -2.4695    1.2950 C   0  0  0  0  0  0  0  0  0  0  0  0
   -1.3046   -3.1162    1.6162 O   0  0  0  0  0  0  0  0  0  0  0  0
   -2.1317   -1.1894    0.8053 N   0  0  0  0  0  0  0  0  0  0  0  0
   -2.9744   -0.6450    0.6159 H   0  0  0  0  0  0  0  0  0  0  0  0
   -0.8605   -0.4579    0.8696 C   0  0  1  0  0  0  0  0  0  0  0  0
   -0.2107   -0.9252    1.6127 H   0  0  0  0  0  0  0  0  0  0  0  0
   -0.2132   -0.5179   -0.5298 C   0  0  0  0  0  0  0  0  0  0  0  0
   -0.5300   -1.4293   -1.0490 H   0  0  0  0  0  0  0  0  0  0  0  0
   -0.5763    0.3264   -1.1270 H   0  0  0  0  0  0  0  0  0  0  0  0
    1.3226   -0.4850   -0.4829 C   0  0  0  0  0  0  0  0  0  0  0  0
    1.6974   -0.2648   -1.4888 H   0  0  0  0  0  0  0  0  0  0  0  0
    1.6633    0.3174    0.1808 H   0  0  0  0  0  0  0  0  0  0  0  0
    1.8740   -1.8467   -0.0217 C   0  0  0  0  0  0  0  0  0  0  0  0
    1.5363   -2.0656    0.9960 H   0  0  0  0  0  0  0  0  0  0  0  0
    1.4783   -2.6309   -0.6774 H   0  0  0  0  0  0  0  0  0  0  0  0
    3.3980   -1.8704   -0.0642 C   0  0  0  0  0  0  0  0  0  0  0  0
    3.7393   -1.6289   -1.0816 H   0  0  0  0  0  0  0  0  0  0  0  0
    3.7947   -1.0939    0.6060 H   0  0  0  0  0  0  0  0  0  0  0  0
    3.8481   -3.2185    0.3465 N   0  3  0  0  0  0  0  0  0  0  0  0
    3.4960   -3.9176   -0.3109 H   0  0  0  0  0  0  0  0  0  0  0  0
    4.8690   -3.2624    0.3632 H   0  0  0  0  0  0  0  0  0  0  0  0
    3.4895   -3.4372    1.2786 H   0  0  0  0  0  0  0  0  0  0  0  0
   -1.0835    0.9952    1.3374 C   0  0  0  0  0  0  0  0  0  0  0  0
   -2.0110    1.6393    0.8674 O   0  0  0  0  0  0  0  0  0  0  0  0
   -0.2659    1.5737    2.2917 N   0  0  0  0  0  0  0  0  0  0  0  0
    0.3881    0.9701    2.7793 H   0  0  0  0  0  0  0  0  0  0  0  0
   -0.5134    2.9080    2.8312 C   0  0  0  0  0  0  0  0  0  0  0  0
   -1.4811    2.9421    3.3434 H   0  0  0  0  0  0  0  0  0  0  0  0
    0.2672    3.1791    3.5486 H   0  0  0  0  0  0  0  0  0  0  0  0
   -0.5156    3.6538    2.0287 H   0  0  0  0  0  0  0  0  0  0  0  0
  1  2  1  0  0  0  0
  2  3  1  0  0  0  0
  2  4  1  0  0  0  0
  2  5  1  0  0  0  0
  5  6  2  0  0  0  0
  5  7  1  0  0  0  0
  7  8  1  0  0  0  0
  7  9  1  0  0  0  0
  9 10  1  0  0  0  0
  9 11  1  0  0  0  0
  9 27  1  0  0  0  0
 11 12  1  0  0  0  0
 11 13  1  0  0  0  0
 11 14  1  0  0  0  0
 14 15  1  0  0  0  0
 14 16  1  0  0  0  0
 14 17  1  0  0  0  0
 17 18  1  0  0  0  0
 17 19  1  0  0  0  0
 17 20  1  0  0  0  0
 20 21  1  0  0  0  0
 20 22  1  0  0  0  0
 20 23  1  0  0  0  0
 23 24  1  0  0  0  0
 23 25  1  0  0  0  0
 23 26  1  0  0  0  0
 27 28  2  0  0  0  0
 27 29  1  0  0  0  0
 29 30  1  0  0  0  0
 29 31  1  0  0  0  0
 31 32  1  0  0  0  0
 31 33  1  0  0  0  0
 31 34  1  0  0  0  0
M  CHG  1  23   1
M  END
$$$$

  -OEChem-02102214153D

 34 33  0     1  0  0  0  0  0999 V2000
   -3.5665   -4.1068    1.8353 H   0  0  0  0  0  0  0  0  0  0  0  0
   -3.6416   -3.1025    1.4090 C   0  0  0  0  0  0  0  0  0  0  0  0
   -4.2567   -2.4862    2.0695 H   0  0  0  0  0  0  0  0  0  0  0  0
   -4.1256   -3.1697    0.4316 H   0  0  0  0  0  0  0  0  0  0  0  0
   -2.2617   -2.4906    1.2631 C   0  0  0  0  0  0  0  0  0  0  0  0
   -1.2603   -3.1468    1.5216 O   0  0  0  0  0  0  0  0  0  0  0  0
   -2.1185   -1.1996    0.7966 N   0  0  0  0  0  0  0  0  0  0  0  0
   -2.9688   -0.6523    0.6556 H   0  0  0  0  0  0  0  0  0  0  0  0
   -0.8488   -0.4631    0.8376 C   0  0  1  0  0  0  0  0  0  0  0  0
   -0.1697   -0.9489    1.5449 H   0  0  0  0  0  0  0  0  0  0  0  0
   -0.2413   -0.5038   -0.5778 C   0  0  0  0  0  0  0  0  0  0  0  0
   -0.5752   -1.4006   -1.1117 H   0  0  0  0  0  0  0  0  0  0  0  0
   -0.6138    0.3560   -1.1462 H   0  0  0  0  0  0  0  0  0  0  0  0
    1.2945   -0.4635   -0.5409 C   0  0  0  0  0  0  0  0  0  0  0  0
    1.6591    0.0111   -1.4588 H   0  0  0  0  0  0  0  0  0  0  0  0
    1.6475    0.1377    0.3041 H   0  0  0  0  0  0  0  0  0  0  0  0
    1.8359   -1.8999   -0.4676 C   0  0  0  0  0  0  0  0  0  0  0  0
    1.4086   -2.4007    0.4091 H   0  0  0  0  0  0  0  0  0  0  0  0
    1.5142   -2.4528   -1.3574 H   0  0  0  0  0  0  0  0  0  0  0  0
    3.3577   -1.9209   -0.3766 C   0  0  0  0  0  0  0  0  0  0  0  0
    3.7853   -1.4396   -1.2685 H   0  0  0  0  0  0  0  0  0  0  0  0
    3.6801   -1.3355    0.4968 H   0  0  0  0  0  0  0  0  0  0  0  0
    3.7895   -3.3313   -0.2652 N   0  3  0  0  0  0  0  0  0  0  0  0
    3.4915   -3.8530   -1.0921 H   0  0  0  0  0  0  0  0  0  0  0  0
    4.8070   -3.3863   -0.1860 H   0  0  0  0  0  0  0  0  0  0  0  0
    3.3670   -3.7599    0.5619 H   0  0  0  0  0  0  0  0  0  0  0  0
   -1.0621    0.9792    1.3426 C   0  0  0  0  0  0  0  0  0  0  0  0
   -2.0044    1.6283    0.9102 O   0  0  0  0  0  0  0  0  0  0  0  0
   -0.2199    1.5448    2.2832 N   0  0  0  0  0  0  0  0  0  0  0  0
    0.4555    0.9388    2.7382 H   0  0  0  0  0  0  0  0  0  0  0  0
   -0.4514    2.8732    2.8439 C   0  0  0  0  0  0  0  0  0  0  0  0
   -1.4116    2.9067    3.3704 H   0  0  0  0  0  0  0  0  0  0  0  0
    0.3411    3.1312    3.5532 H   0  0  0  0  0  0  0  0  0  0  0  0
   -0.4611    3.6288    2.0507 H   0  0  0  0  0  0  0  0  0  0  0  0
  1  2  1  0  0  0  0
  2  3  1  0  0  0  0
  2  4  1  0  0  0  0
  2  5  1  0  0  0  0
  5  6  2  0  0  0  0
  5  7  1  0  0  0  0
  7  8  1  0  0  0  0
  7  9  1  0  0  0  0
  9 10  1  0  0  0  0
  9 11  1  0  0  0  0
  9 27  1  0  0  0  0
 11 12  1  0  0  0  0
 11 13  1  0  0  0  0
 11 14  1  0  0  0  0
 14 15  1  0  0  0  0
 14 16  1  0  0  0  0
 14 17  1  0  0  0  0
 17 18  1  0  0  0  0
 17 19  1  0  0  0  0
 17 20  1  0  0  0  0
 20 21  1  0  0  0  0
 20 22  1  0  0  0  0
 20 23  1  0  0  0  0
 23 24  1  0  0  0  0
 23 25  1  0  0  0  0
 23 26  1  0  0  0  0
 27 28  2  0  0  0  0
 27 29  1  0  0  0  0
 29 30  1  0  0  0  0
 29 31  1  0  0  0  0
 31 32  1  0  0  0  0
 31 33  1  0  0  0  0
 31 34  1  0  0  0  0
M  CHG  1  23   1
M  END
$$$$

  -OEChem-02102214153D

 34 33  0     1  0  0  0  0  0999 V2000
   -3.6005   -4.0941    1.8328 H   0  0  0  0  0  0  0  0  0  0  0  0
   -3.6688   -3.0877    1.4103 C   0  0  0  0  0  0  0  0  0  0  0  0
   -4.2687   -2.4662    2.0797 H   0  0  0  0  0  0  0  0  0  0  0  0
   -4.1648   -3.1460    0.4383 H   0  0  0  0  0  0  0  0  0  0  0  0
   -2.2836   -2.4912    1.2506 C   0  0  0  0  0  0  0  0  0  0  0  0
   -1.2870   -3.1600    1.4914 O   0  0  0  0  0  0  0  0  0  0  0  0
   -2.1334   -1.1992    0.7898 N   0  0  0  0  0  0  0  0  0  0  0  0
   -2.9816   -0.6455    0.6638 H   0  0  0  0  0  0  0  0  0  0  0  0
   -0.8607   -0.4669    0.8304 C   0  0  1  0  0  0  0  0  0  0  0  0
   -0.1848   -0.9627    1.5340 H   0  0  0  0  0  0  0  0  0  0  0  0
   -0.2521   -0.5085   -0.5844 C   0  0  0  0  0  0  0  0  0  0  0  0
   -0.5934   -1.4055   -1.1133 H   0  0  0  0  0  0  0  0  0  0  0  0
   -0.6249    0.3496   -1.1555 H   0  0  0  0  0  0  0  0  0  0  0  0
    1.2869   -0.4715   -0.5522 C   0  0  0  0  0  0  0  0  0  0  0  0
    1.6410    0.2300   -1.3162 H   0  0  0  0  0  0  0  0  0  0  0  0
    1.6498   -0.1095    0.4159 H   0  0  0  0  0  0  0  0  0  0  0  0
    1.8440   -1.8699   -0.8560 C   0  0  0  0  0  0  0  0  0  0  0  0
    1.4149   -2.5839   -0.1426 H   0  0  0  0  0  0  0  0  0  0  0  0
    1.5369   -2.1732   -1.8633 H   0  0  0  0  0  0  0  0  0  0  0  0
    3.3656   -1.8925   -0.7519 C   0  0  0  0  0  0  0  0  0  0  0  0
    3.7929   -1.2006   -1.4926 H   0  0  0  0  0  0  0  0  0  0  0  0
    3.6675   -1.5332    0.2427 H   0  0  0  0  0  0  0  0  0  0  0  0
    3.8269   -3.2793   -0.9796 N   0  3  0  0  0  0  0  0  0  0  0  0
    3.5367   -3.5955   -1.9071 H   0  0  0  0  0  0  0  0  0  0  0  0
    4.8457   -3.3294   -0.9150 H   0  0  0  0  0  0  0  0  0  0  0  0
    3.4182   -3.9009   -0.2779 H   0  0  0  0  0  0  0  0  0  0  0  0
   -1.0638    0.9746    1.3412 C   0  0  0  0  0  0  0  0  0  0  0  0
   -2.0040    1.6307    0.9145 O   0  0  0  0  0  0  0  0  0  0  0  0
   -0.2147    1.5312    2.2810 N   0  0  0  0  0  0  0  0  0  0  0  0
    0.4559    0.9171    2.7326 H   0  0  0  0  0  0  0  0  0  0  0  0
   -0.4406    2.8553    2.8545 C   0  0  0  0  0  0  0  0  0  0  0  0
   -1.4003    2.8868    3.3818 H   0  0  0  0  0  0  0  0  0  0  0  0
    0.3530    3.1033    3.5662 H   0  0  0  0  0  0  0  0  0  0  0  0
   -0.4474    3.6188    2.0690 H   0  0  0  0  0  0  0  0  0  0  0  0
  1  2  1  0  0  0  0
  2  3  1  0  0  0  0
  2  4  1  0  0  0  0
  2  5  1  0  0  0  0
  5  6  2  0  0  0  0
  5  7  1  0  0  0  0
  7  8  1  0  0  0  0
  7  9  1  0  0  0  0
  9 10  1  0  0  0  0
  9 11  1  0  0  0  0
  9 27  1  0  0  0  0
 11 12  1  0  0  0  0
 11 13  1  0  0  0  0
 11 14  1  0  0  0  0
 14 15  1  0  0  0  0
 14 16  1  0  0  0  0
 14 17  1  0  0  0  0
 17 18  1  0  0  0  0
 17 19  1  0  0  0  0
 17 20  1  0  0  0  0
 20 21  1  0  0  0  0
 20 22  1  0  0  0  0
 20 23  1  0  0  0  0
 23 24  1  0  0  0  0
 23 25  1  0  0  0  0
 23 26  1  0  0  0  0
 27 28  2  0  0  0  0
 27 29  1  0  0  0  0
 29 30  1  0  0  0  0
 29 31  1  0  0  0  0
 31 32  1  0  0  0  0
 31 33  1  0  0  0  0
 31 34  1  0  0  0  0
M  CHG  1  23   1
M  END
$$$$

  -OEChem-02102214153D

 34 33  0     1  0  0  0  0  0999 V2000
   -3.6615   -4.0724    1.8376 H   0  0  0  0  0  0  0  0  0  0  0  0
   -3.7179   -3.0681    1.4084 C   0  0  0  0  0  0  0  0  0  0  0  0
   -4.3124   -2.4360    2.0727 H   0  0  0  0  0  0  0  0  0  0  0  0
   -4.2125   -3.1275    0.4359 H   0  0  0  0  0  0  0  0  0  0  0  0
   -2.3256   -2.4885    1.2483 C   0  0  0  0  0  0  0  0  0  0  0  0
   -1.3385   -3.1687    1.4917 O   0  0  0  0  0  0  0  0  0  0  0  0
   -2.1590   -1.1984    0.7880 N   0  0  0  0  0  0  0  0  0  0  0  0
   -3.0013   -0.6364    0.6602 H   0  0  0  0  0  0  0  0  0  0  0  0
   -0.8811   -0.4749    0.8378 C   0  0  1  0  0  0  0  0  0  0  0  0
   -0.2197   -0.9779    1.5503 H   0  0  0  0  0  0  0  0  0  0  0  0
   -0.2566   -0.5208   -0.5706 C   0  0  0  0  0  0  0  0  0  0  0  0
   -0.5941   -1.4306   -1.0795 H   0  0  0  0  0  0  0  0  0  0  0  0
   -0.6294    0.3229   -1.1628 H   0  0  0  0  0  0  0  0  0  0  0  0
    1.2851   -0.4922   -0.5368 C   0  0  0  0  0  0  0  0  0  0  0  0
    1.6356    0.3950   -1.0765 H   0  0  0  0  0  0  0  0  0  0  0  0
    1.6512   -0.4115    0.4922 H   0  0  0  0  0  0  0  0  0  0  0  0
    1.8576   -1.7570   -1.1922 C   0  0  0  0  0  0  0  0  0  0  0  0
    1.4639   -2.6365   -0.6689 H   0  0  0  0  0  0  0  0  0  0  0  0
    1.5277   -1.8071   -2.2361 H   0  0  0  0  0  0  0  0  0  0  0  0
    3.3823   -1.7601   -1.1288 C   0  0  0  0  0  0  0  0  0  0  0  0
    3.7707   -0.8913   -1.6803 H   0  0  0  0  0  0  0  0  0  0  0  0
    3.7021   -1.6512   -0.0820 H   0  0  0  0  0  0  0  0  0  0  0  0
    3.8771   -3.0287   -1.7062 N   0  3  0  0  0  0  0  0  0  0  0  0
    3.5690   -3.1142   -2.6768 H   0  0  0  0  0  0  0  0  0  0  0  0
    4.8986   -3.0553   -1.6783 H   0  0  0  0  0  0  0  0  0  0  0  0
    3.5098   -3.8201   -1.1729 H   0  0  0  0  0  0  0  0  0  0  0  0
   -1.0713    0.9690    1.3442 C   0  0  0  0  0  0  0  0  0  0  0  0
   -1.9953    1.6382    0.9025 O   0  0  0  0  0  0  0  0  0  0  0  0
   -0.2214    1.5163    2.2884 N   0  0  0  0  0  0  0  0  0  0  0  0
    0.4358    0.8935    2.7482 H   0  0  0  0  0  0  0  0  0  0  0  0
   -0.4264    2.8485    2.8498 C   0  0  0  0  0  0  0  0  0  0  0  0
   -1.3849    2.8996    3.3775 H   0  0  0  0  0  0  0  0  0  0  0  0
    0.3719    3.0911    3.5580 H   0  0  0  0  0  0  0  0  0  0  0  0
   -0.4221    3.6043    2.0568 H   0  0  0  0  0  0  0  0  0  0  0  0
  1  2  1  0  0  0  0
  2  3  1  0  0  0  0
  2  4  1  0  0  0  0
  2  5  1  0  0  0  0
  5  6  2  0  0  0  0
  5  7  1  0  0  0  0
  7  8  1  0  0  0  0
  7  9  1  0  0  0  0
  9 10  1  0  0  0  0
  9 11  1  0  0  0  0
  9 27  1  0  0  0  0
 11 12  1  0  0  0  0
 11 13  1  0  0  0  0
 11 14  1  0  0  0  0
 14 15  1  0  0  0  0
 14 16  1  0  0  0  0
 14 17  1  0  0  0  0
 17 18  1  0  0  0  0
 17 19  1  0  0  0  0
 17 20  1  0  0  0  0
 20 21  1  0  0  0  0
 20 22  1  0  0  0  0
 20 23  1  0  0  0  0
 23 24  1  0  0  0  0
 23 25  1  0  0  0  0
 23 26  1  0  0  0  0
 27 28  2  0  0  0  0
 27 29  1  0  0  0  0
 29 30  1  0  0  0  0
 29 31  1  0  0  0  0
 31 32  1  0  0  0  0
 31 33  1  0  0  0  0
 31 34  1  0  0  0  0
M  CHG  1  23   1
M  END
$$$$

  -OEChem-02102214153D

 34 33  0     1  0  0  0  0  0999 V2000
   -3.7088   -4.0635    1.8346 H   0  0  0  0  0  0  0  0  0  0  0  0
   -3.7530   -3.0618    1.3980 C   0  0  0  0  0  0  0  0  0  0  0  0
   -4.3592   -2.4238    2.0458 H   0  0  0  0  0  0  0  0  0  0  0  0
   -4.2272   -3.1260    0.4157 H   0  0  0  0  0  0  0  0  0  0  0  0
   -2.3556   -2.4874    1.2640 C   0  0  0  0  0  0  0  0  0  0  0  0
   -1.3772   -3.1687    1.5341 O   0  0  0  0  0  0  0  0  0  0  0  0
   -2.1753   -1.2010    0.7981 N   0  0  0  0  0  0  0  0  0  0  0  0
   -3.0133   -0.6376    0.6513 H   0  0  0  0  0  0  0  0  0  0  0  0
   -0.8932   -0.4837    0.8498 C   0  0  1  0  0  0  0  0  0  0  0  0
   -0.2399   -0.9881    1.5684 H   0  0  0  0  0  0  0  0  0  0  0  0
   -0.2618   -0.5344   -0.5563 C   0  0  0  0  0  0  0  0  0  0  0  0
   -0.5920   -1.4598   -1.0413 H   0  0  0  0  0  0  0  0  0  0  0  0
   -0.6372    0.2927   -1.1698 H   0  0  0  0  0  0  0  0  0  0  0  0
    1.2796   -0.5121   -0.5226 C   0  0  0  0  0  0  0  0  0  0  0  0
    1.6294    0.4908   -0.7923 H   0  0  0  0  0  0  0  0  0  0  0  0
    1.6445   -0.7264    0.4875 H   0  0  0  0  0  0  0  0  0  0  0  0
    1.8575   -1.5599   -1.4838 C   0  0  0  0  0  0  0  0  0  0  0  0
    1.4976   -2.5528   -1.1896 H   0  0  0  0  0  0  0  0  0  0  0  0
    1.5007   -1.3556   -2.4996 H   0  0  0  0  0  0  0  0  0  0  0  0
    3.3834   -1.5353   -1.4529 C   0  0  0  0  0  0  0  0  0  0  0  0
    3.7369   -0.5416   -1.7653 H   0  0  0  0  0  0  0  0  0  0  0  0
    3.7271   -1.6935   -0.4200 H   0  0  0  0  0  0  0  0  0  0  0  0
    3.8952   -2.5934   -2.3507 N   0  3  0  0  0  0  0  0  0  0  0  0
    3.5663   -2.4313   -3.3046 H   0  0  0  0  0  0  0  0  0  0  0  0
    4.9174   -2.5954   -2.3477 H   0  0  0  0  0  0  0  0  0  0  0  0
    3.5610   -3.5073   -2.0371 H   0  0  0  0  0  0  0  0  0  0  0  0
   -1.0700    0.9652    1.3461 C   0  0  0  0  0  0  0  0  0  0  0  0
   -1.9772    1.6461    0.8877 O   0  0  0  0  0  0  0  0  0  0  0  0
   -0.2166    1.5087    2.2895 N   0  0  0  0  0  0  0  0  0  0  0  0
    0.4265    0.8789    2.7603 H   0  0  0  0  0  0  0  0  0  0  0  0
   -0.4019    2.8498    2.8366 C   0  0  0  0  0  0  0  0  0  0  0  0
   -1.3577    2.9199    3.3670 H   0  0  0  0  0  0  0  0  0  0  0  0
    0.4021    3.0892    3.5395 H   0  0  0  0  0  0  0  0  0  0  0  0
   -0.3901    3.5971    2.0357 H   0  0  0  0  0  0  0  0  0  0  0  0
  1  2  1  0  0  0  0
  2  3  1  0  0  0  0
  2  4  1  0  0  0  0
  2  5  1  0  0  0  0
  5  6  2  0  0  0  0
  5  7  1  0  0  0  0
  7  8  1  0  0  0  0
  7  9  1  0  0  0  0
  9 10  1  0  0  0  0
  9 11  1  0  0  0  0
  9 27  1  0  0  0  0
 11 12  1  0  0  0  0
 11 13  1  0  0  0  0
 11 14  1  0  0  0  0
 14 15  1  0  0  0  0
 14 16  1  0  0  0  0
 14 17  1  0  0  0  0
 17 18  1  0  0  0  0
 17 19  1  0  0  0  0
 17 20  1  0  0  0  0
 20 21  1  0  0  0  0
 20 22  1  0  0  0  0
 20 23  1  0  0  0  0
 23 24  1  0  0  0  0
 23 25  1  0  0  0  0
 23 26  1  0  0  0  0
 27 28  2  0  0  0  0
 27 29  1  0  0  0  0
 29 30  1  0  0  0  0
 29 31  1  0  0  0  0
 31 32  1  0  0  0  0
 31 33  1  0  0  0  0
 31 34  1  0  0  0  0
M  CHG  1  23   1
M  END
$$$$

  -OEChem-02102214153D

 34 33  0     1  0  0  0  0  0999 V2000
   -3.7227   -4.0589    1.8378 H   0  0  0  0  0  0  0  0  0  0  0  0
   -3.7626   -3.0562    1.4028 C   0  0  0  0  0  0  0  0  0  0  0  0
   -4.3692   -2.4175    2.0496 H   0  0  0  0  0  0  0  0  0  0  0  0
   -4.2335   -3.1175    0.4186 H   0  0  0  0  0  0  0  0  0  0  0  0
   -2.3634   -2.4852    1.2739 C   0  0  0  0  0  0  0  0  0  0  0  0
   -1.3886   -3.1663    1.5554 O   0  0  0  0  0  0  0  0  0  0  0  0
   -2.1783   -1.2014    0.8029 N   0  0  0  0  0  0  0  0  0  0  0  0
   -3.0145   -0.6371    0.6499 H   0  0  0  0  0  0  0  0  0  0  0  0
   -0.8932   -0.4889    0.8488 C   0  0  1  0  0  0  0  0  0  0  0  0
   -0.2370   -0.9922    1.5656 H   0  0  0  0  0  0  0  0  0  0  0  0
   -0.2671   -0.5393   -0.5593 C   0  0  0  0  0  0  0  0  0  0  0  0
   -0.5918   -1.4709   -1.0362 H   0  0  0  0  0  0  0  0  0  0  0  0
   -0.6440    0.2842   -1.1765 H   0  0  0  0  0  0  0  0  0  0  0  0
    1.2714   -0.5215   -0.5239 C   0  0  0  0  0  0  0  0  0  0  0  0
    1.6217    0.5168   -0.5136 H   0  0  0  0  0  0  0  0  0  0  0  0
    1.6312   -1.0053    0.3908 H   0  0  0  0  0  0  0  0  0  0  0  0
    1.8470   -1.2799   -1.7270 C   0  0  0  0  0  0  0  0  0  0  0  0
    1.4966   -2.3181   -1.7012 H   0  0  0  0  0  0  0  0  0  0  0  0
    1.4821   -0.8204   -2.6524 H   0  0  0  0  0  0  0  0  0  0  0  0
    3.3730   -1.2499   -1.6972 C   0  0  0  0  0  0  0  0  0  0  0  0
    3.7158   -0.2053   -1.7360 H   0  0  0  0  0  0  0  0  0  0  0  0
    3.7253   -1.6728   -0.7447 H   0  0  0  0  0  0  0  0  0  0  0  0
    3.8897   -2.0253   -2.8462 N   0  3  0  0  0  0  0  0  0  0  0  0
    3.5519   -1.6195   -3.7212 H   0  0  0  0  0  0  0  0  0  0  0  0
    4.9121   -2.0146   -2.8481 H   0  0  0  0  0  0  0  0  0  0  0  0
    3.5686   -2.9941   -2.7854 H   0  0  0  0  0  0  0  0  0  0  0  0
   -1.0642    0.9621    1.3403 C   0  0  0  0  0  0  0  0  0  0  0  0
   -1.9655    1.6471    0.8764 O   0  0  0  0  0  0  0  0  0  0  0  0
   -0.2065    1.5053    2.2799 N   0  0  0  0  0  0  0  0  0  0  0  0
    0.4279    0.8712    2.7570 H   0  0  0  0  0  0  0  0  0  0  0  0
   -0.3926    2.8450    2.8302 C   0  0  0  0  0  0  0  0  0  0  0  0
   -1.3481    2.9125    3.3615 H   0  0  0  0  0  0  0  0  0  0  0  0
    0.4119    3.0834    3.5328 H   0  0  0  0  0  0  0  0  0  0  0  0
   -0.3830    3.5942    2.0311 H   0  0  0  0  0  0  0  0  0  0  0  0
  1  2  1  0  0  0  0
  2  3  1  0  0  0  0
  2  4  1  0  0  0  0
  2  5  1  0  0  0  0
  5  6  2  0  0  0  0
  5  7  1  0  0  0  0
  7  8  1  0  0  0  0
  7  9  1  0  0  0  0
  9 10  1  0  0  0  0
  9 11  1  0  0  0  0
  9 27  1  0  0  0  0
 11 12  1  0  0  0  0
 11 13  1  0  0  0  0
 11 14  1  0  0  0  0
 14 15  1  0  0  0  0
 14 16  1  0  0  0  0
 14 17  1  0  0  0  0
 17 18  1  0  0  0  0
 17 19  1  0  0  0  0
 17 20  1  0  0  0  0
 20 21  1  0  0  0  0
 20 22  1  0  0  0  0
 20 23  1  0  0  0  0
 23 24  1  0  0  0  0
 23 25  1  0  0  0  0
 23 26  1  0  0  0  0
 27 28  2  0  0  0  0
 27 29  1  0  0  0  0
 29 30  1  0  0  0  0
 29 31  1  0  0  0  0
 31 32  1  0  0  0  0
 31 33  1  0  0  0  0
 31 34  1  0  0  0  0
M  CHG  1  23   1
M  END
$$$$

  -OEChem-02102214153D

 34 33  0     1  0  0  0  0  0999 V2000
   -3.7149   -4.0627    1.8414 H   0  0  0  0  0  0  0  0  0  0  0  0
   -3.7573   -3.0611    1.4041 C   0  0  0  0  0  0  0  0  0  0  0  0
   -4.3664   -2.4224    2.0483 H   0  0  0  0  0  0  0  0  0  0  0  0
   -4.2262   -3.1263    0.4194 H   0  0  0  0  0  0  0  0  0  0  0  0
   -2.3595   -2.4867    1.2769 C   0  0  0  0  0  0  0  0  0  0  0  0
   -1.3843   -3.1628    1.5677 O   0  0  0  0  0  0  0  0  0  0  0  0
   -2.1768   -1.2026    0.8053 N   0  0  0  0  0  0  0  0  0  0  0  0
   -3.0137   -0.6404    0.6493 H   0  0  0  0  0  0  0  0  0  0  0  0
   -0.8917   -0.4901    0.8442 C   0  0  1  0  0  0  0  0  0  0  0  0
   -0.2265   -0.9926    1.5537 H   0  0  0  0  0  0  0  0  0  0  0  0
   -0.2757   -0.5380   -0.5678 C   0  0  0  0  0  0  0  0  0  0  0  0
   -0.5960   -1.4673   -1.0521 H   0  0  0  0  0  0  0  0  0  0  0  0
   -0.6533    0.2917   -1.1764 H   0  0  0  0  0  0  0  0  0  0  0  0
    1.2594   -0.5200   -0.5280 C   0  0  0  0  0  0  0  0  0  0  0  0
    1.6066    0.4828   -0.2546 H   0  0  0  0  0  0  0  0  0  0  0  0
    1.6146   -1.2221    0.2352 H   0  0  0  0  0  0  0  0  0  0  0  0
    1.8312   -0.9367   -1.8886 C   0  0  0  0  0  0  0  0  0  0  0  0
    1.4772   -1.9437   -2.1369 H   0  0  0  0  0  0  0  0  0  0  0  0
    1.4670   -0.2489   -2.6599 H   0  0  0  0  0  0  0  0  0  0  0  0
    3.3570   -0.9194   -1.8539 C   0  0  0  0  0  0  0  0  0  0  0  0
    3.7026    0.0966   -1.6124 H   0  0  0  0  0  0  0  0  0  0  0  0
    3.7092   -1.5824   -1.0497 H   0  0  0  0  0  0  0  0  0  0  0  0
    3.8692   -1.3605   -3.1695 N   0  3  0  0  0  0  0  0  0  0  0  0
    3.5279   -0.7371   -3.9039 H   0  0  0  0  0  0  0  0  0  0  0  0
    4.8915   -1.3484   -3.1723 H   0  0  0  0  0  0  0  0  0  0  0  0
    3.5486   -2.3107   -3.3674 H   0  0  0  0  0  0  0  0  0  0  0  0
   -1.0619    0.9601    1.3375 C   0  0  0  0  0  0  0  0  0  0  0  0
   -1.9580    1.6495    0.8697 O   0  0  0  0  0  0  0  0  0  0  0  0
   -0.1991    1.5021    2.2730 N   0  0  0  0  0  0  0  0  0  0  0  0
    0.4270    0.8635    2.7555 H   0  0  0  0  0  0  0  0  0  0  0  0
   -0.3817    2.8423    2.8231 C   0  0  0  0  0  0  0  0  0  0  0  0
   -1.3352    2.9108    3.3582 H   0  0  0  0  0  0  0  0  0  0  0  0
    0.4258    3.0807    3.5226 H   0  0  0  0  0  0  0  0  0  0  0  0
   -0.3743    3.5910    2.0233 H   0  0  0  0  0  0  0  0  0  0  0  0
  1  2  1  0  0  0  0
  2  3  1  0  0  0  0
  2  4  1  0  0  0  0
  2  5  1  0  0  0  0
  5  6  2  0  0  0  0
  5  7  1  0  0  0  0
  7  8  1  0  0  0  0
  7  9  1  0  0  0  0
  9 10  1  0  0  0  0
  9 11  1  0  0  0  0
  9 27  1  0  0  0  0
 11 12  1  0  0  0  0
 11 13  1  0  0  0  0
 11 14  1  0  0  0  0
 14 15  1  0  0  0  0
 14 16  1  0  0  0  0
 14 17  1  0  0  0  0
 17 18  1  0  0  0  0
 17 19  1  0  0  0  0
 17 20  1  0  0  0  0
 20 21  1  0  0  0  0
 20 22  1  0  0  0  0
 20 23  1  0  0  0  0
 23 24  1  0  0  0  0
 23 25  1  0  0  0  0
 23 26  1  0  0  0  0
 27 28  2  0  0  0  0
 27 29  1  0  0  0  0
 29 30  1  0  0  0  0
 29 31  1  0  0  0  0
 31 32  1  0  0  0  0
 31 33  1  0  0  0  0
 31 34  1  0  0  0  0
M  CHG  1  23   1
M  END
$$$$

  -OEChem-02102214153D

 34 33  0     1  0  0  0  0  0999 V2000
   -3.6782   -4.0737    1.8495 H   0  0  0  0  0  0  0  0  0  0  0  0
   -3.7359   -3.0691    1.4212 C   0  0  0  0  0  0  0  0  0  0  0  0
   -4.3317   -2.4386    2.0858 H   0  0  0  0  0  0  0  0  0  0  0  0
   -4.2293   -3.1284    0.4482 H   0  0  0  0  0  0  0  0  0  0  0  0
   -2.3440   -2.4880    1.2626 C   0  0  0  0  0  0  0  0  0  0  0  0
   -1.3581   -3.1648    1.5144 O   0  0  0  0  0  0  0  0  0  0  0  0
   -2.1783   -1.1989    0.7994 N   0  0  0  0  0  0  0  0  0  0  0  0
   -3.0209   -0.6373    0.6736 H   0  0  0  0  0  0  0  0  0  0  0  0
   -0.8964   -0.4798    0.8264 C   0  0  1  0  0  0  0  0  0  0  0  0
   -0.2222   -0.9790    1.5304 H   0  0  0  0  0  0  0  0  0  0  0  0
   -0.2869   -0.5195   -0.5907 C   0  0  0  0  0  0  0  0  0  0  0  0
   -0.7993   -1.2814   -1.1889 H   0  0  0  0  0  0  0  0  0  0  0  0
   -0.4425    0.4426   -1.0920 H   0  0  0  0  0  0  0  0  0  0  0  0
    1.2072   -0.8632   -0.5473 C   0  0  0  0  0  0  0  0  0  0  0  0
    1.7379   -0.1176    0.0552 H   0  0  0  0  0  0  0  0  0  0  0  0
    1.3373   -1.8419   -0.0697 H   0  0  0  0  0  0  0  0  0  0  0  0
    1.7890   -0.8972   -1.9650 C   0  0  0  0  0  0  0  0  0  0  0  0
    1.2278   -1.6201   -2.5677 H   0  0  0  0  0  0  0  0  0  0  0  0
    1.6787    0.0895   -2.4287 H   0  0  0  0  0  0  0  0  0  0  0  0
    3.2624   -1.2946   -1.9194 C   0  0  0  0  0  0  0  0  0  0  0  0
    3.8184   -0.5583   -1.3207 H   0  0  0  0  0  0  0  0  0  0  0  0
    3.3589   -2.2656   -1.4110 H   0  0  0  0  0  0  0  0  0  0  0  0
    3.7849   -1.3640   -3.3014 N   0  3  0  0  0  0  0  0  0  0  0  0
    3.6804   -0.4571   -3.7609 H   0  0  0  0  0  0  0  0  0  0  0  0
    4.7749   -1.6192   -3.2913 H   0  0  0  0  0  0  0  0  0  0  0  0
    3.2673   -2.0663   -3.8341 H   0  0  0  0  0  0  0  0  0  0  0  0
   -1.0719    0.9648    1.3355 C   0  0  0  0  0  0  0  0  0  0  0  0
   -1.9873    1.6469    0.8952 O   0  0  0  0  0  0  0  0  0  0  0  0
   -0.2012    1.5049    2.2645 N   0  0  0  0  0  0  0  0  0  0  0  0
    0.4502    0.8715    2.7192 H   0  0  0  0  0  0  0  0  0  0  0  0
   -0.3883    2.8356    2.8353 C   0  0  0  0  0  0  0  0  0  0  0  0
   -1.3368    2.8899    3.3805 H   0  0  0  0  0  0  0  0  0  0  0  0
    0.4241    3.0690    3.5305 H   0  0  0  0  0  0  0  0  0  0  0  0
   -0.3936    3.5956    2.0464 H   0  0  0  0  0  0  0  0  0  0  0  0
  1  2  1  0  0  0  0
  2  3  1  0  0  0  0
  2  4  1  0  0  0  0
  2  5  1  0  0  0  0
  5  6  2  0  0  0  0
  5  7  1  0  0  0  0
  7  8  1  0  0  0  0
  7  9  1  0  0  0  0
  9 10  1  0  0  0  0
  9 11  1  0  0  0  0
  9 27  1  0  0  0  0
 11 12  1  0  0  0  0
 11 13  1  0  0  0  0
 11 14  1  0  0  0  0
 14 15  1  0  0  0  0
 14 16  1  0  0  0  0
 14 17  1  0  0  0  0
 17 18  1  0  0  0  0
 17 19  1  0  0  0  0
 17 20  1  0  0  0  0
 20 21  1  0  0  0  0
 20 22  1  0  0  0  0
 20 23  1  0  0  0  0
 23 24  1  0  0  0  0
 23 25  1  0  0  0  0
 23 26  1  0  0  0  0
 27 28  2  0  0  0  0
 27 29  1  0  0  0  0
 29 30  1  0  0  0  0
 29 31  1  0  0  0  0
 31 32  1  0  0  0  0
 31 33  1  0  0  0  0
 31 34  1  0  0  0  0
M  CHG  1  23   1
M  END
$$$$

  -OEChem-02102214153D

 34 33  0     1  0  0  0  0  0999 V2000
   -3.6713   -4.0848    1.8311 H   0  0  0  0  0  0  0  0  0  0  0  0
   -3.7294   -3.0790    1.4055 C   0  0  0  0  0  0  0  0  0  0  0  0
   -4.3398   -2.4549    2.0627 H   0  0  0  0  0  0  0  0  0  0  0  0
   -4.2070   -3.1386    0.4246 H   0  0  0  0  0  0  0  0  0  0  0  0
   -2.3394   -2.4875    1.2708 C   0  0  0  0  0  0  0  0  0  0  0  0
   -1.3536   -3.1558    1.5435 O   0  0  0  0  0  0  0  0  0  0  0  0
   -2.1753   -1.1984    0.8066 N   0  0  0  0  0  0  0  0  0  0  0  0
   -3.0196   -0.6443    0.6624 H   0  0  0  0  0  0  0  0  0  0  0  0
   -0.8963   -0.4744    0.8346 C   0  0  1  0  0  0  0  0  0  0  0  0
   -0.2212   -0.9730    1.5383 H   0  0  0  0  0  0  0  0  0  0  0  0
   -0.2883   -0.5186   -0.5831 C   0  0  0  0  0  0  0  0  0  0  0  0
   -0.7974   -1.2762   -1.1895 H   0  0  0  0  0  0  0  0  0  0  0  0
   -0.4484    0.4471   -1.0756 H   0  0  0  0  0  0  0  0  0  0  0  0
    1.2078   -0.8572   -0.5439 C   0  0  0  0  0  0  0  0  0  0  0  0
    1.6976   -0.2677    0.2392 H   0  0  0  0  0  0  0  0  0  0  0  0
    1.3302   -1.9181   -0.2948 H   0  0  0  0  0  0  0  0  0  0  0  0
    1.8649   -0.5387   -1.8917 C   0  0  0  0  0  0  0  0  0  0  0  0
    1.3411   -1.0851   -2.6841 H   0  0  0  0  0  0  0  0  0  0  0  0
    1.7714    0.5333   -2.0994 H   0  0  0  0  0  0  0  0  0  0  0  0
    3.3373   -0.9428   -1.8692 C   0  0  0  0  0  0  0  0  0  0  0  0
    3.8543   -0.3867   -1.0734 H   0  0  0  0  0  0  0  0  0  0  0  0
    3.4143   -2.0117   -1.6200 H   0  0  0  0  0  0  0  0  0  0  0  0
    3.9344   -0.6608   -3.1926 N   0  3  0  0  0  0  0  0  0  0  0  0
    3.8510    0.3344   -3.4092 H   0  0  0  0  0  0  0  0  0  0  0  0
    4.9235   -0.9192   -3.1950 H   0  0  0  0  0  0  0  0  0  0  0  0
    3.4503   -1.1980   -3.9148 H   0  0  0  0  0  0  0  0  0  0  0  0
   -1.0723    0.9711    1.3409 C   0  0  0  0  0  0  0  0  0  0  0  0
   -1.9782    1.6579    0.8881 O   0  0  0  0  0  0  0  0  0  0  0  0
   -0.2014    1.5124    2.2693 N   0  0  0  0  0  0  0  0  0  0  0  0
    0.4356    0.8743    2.7380 H   0  0  0  0  0  0  0  0  0  0  0  0
   -0.3911    2.8437    2.8380 C   0  0  0  0  0  0  0  0  0  0  0  0
   -1.3396    2.8969    3.3835 H   0  0  0  0  0  0  0  0  0  0  0  0
    0.4210    3.0795    3.5326 H   0  0  0  0  0  0  0  0  0  0  0  0
   -0.3984    3.6029    2.0483 H   0  0  0  0  0  0  0  0  0  0  0  0
  1  2  1  0  0  0  0
  2  3  1  0  0  0  0
  2  4  1  0  0  0  0
  2  5  1  0  0  0  0
  5  6  2  0  0  0  0
  5  7  1  0  0  0  0
  7  8  1  0  0  0  0
  7  9  1  0  0  0  0
  9 10  1  0  0  0  0
  9 11  1  0  0  0  0
  9 27  1  0  0  0  0
 11 12  1  0  0  0  0
 11 13  1  0  0  0  0
 11 14  1  0  0  0  0
 14 15  1  0  0  0  0
 14 16  1  0  0  0  0
 14 17  1  0  0  0  0
 17 18  1  0  0  0  0
 17 19  1  0  0  0  0
 17 20  1  0  0  0  0
 20 21  1  0  0  0  0
 20 22  1  0  0  0  0
 20 23  1  0  0  0  0
 23 24  1  0  0  0  0
 23 25  1  0  0  0  0
 23 26  1  0  0  0  0
 27 28  2  0  0  0  0
 27 29  1  0  0  0  0
 29 30  1  0  0  0  0
 29 31  1  0  0  0  0
 31 32  1  0  0  0  0
 31 33  1  0  0  0  0
 31 34  1  0  0  0  0
M  CHG  1  23   1
M  END
$$$$

  -OEChem-02102214153D

 34 33  0     1  0  0  0  0  0999 V2000
   -3.6775   -4.0896    1.8152 H   0  0  0  0  0  0  0  0  0  0  0  0
   -3.7321   -3.0827    1.3919 C   0  0  0  0  0  0  0  0  0  0  0  0
   -4.3560   -2.4629    2.0404 H   0  0  0  0  0  0  0  0  0  0  0  0
   -4.1925   -3.1412    0.4028 H   0  0  0  0  0  0  0  0  0  0  0  0
   -2.3422   -2.4856    1.2831 C   0  0  0  0  0  0  0  0  0  0  0  0
   -1.3603   -3.1454    1.5875 O   0  0  0  0  0  0  0  0  0  0  0  0
   -2.1746   -1.1982    0.8147 N   0  0  0  0  0  0  0  0  0  0  0  0
   -3.0180   -0.6504    0.6439 H   0  0  0  0  0  0  0  0  0  0  0  0
   -0.8969   -0.4718    0.8468 C   0  0  1  0  0  0  0  0  0  0  0  0
   -0.2270   -0.9686    1.5564 H   0  0  0  0  0  0  0  0  0  0  0  0
   -0.2817   -0.5209   -0.5691 C   0  0  0  0  0  0  0  0  0  0  0  0
   -0.7887   -1.2773   -1.1788 H   0  0  0  0  0  0  0  0  0  0  0  0
   -0.4490    0.4441   -1.0607 H   0  0  0  0  0  0  0  0  0  0  0  0
    1.2185   -0.8560   -0.5390 C   0  0  0  0  0  0  0  0  0  0  0  0
    1.6674   -0.4743    0.3847 H   0  0  0  0  0  0  0  0  0  0  0  0
    1.3445   -1.9451   -0.5459 H   0  0  0  0  0  0  0  0  0  0  0  0
    1.9404   -0.2109   -1.7280 C   0  0  0  0  0  0  0  0  0  0  0  0
    1.4627   -0.5388   -2.6581 H   0  0  0  0  0  0  0  0  0  0  0  0
    1.8479    0.8792   -1.6642 H   0  0  0  0  0  0  0  0  0  0  0  0
    3.4133   -0.6126   -1.7314 C   0  0  0  0  0  0  0  0  0  0  0  0
    3.8831   -0.2773   -0.7952 H   0  0  0  0  0  0  0  0  0  0  0  0
    3.4886   -1.7099   -1.7568 H   0  0  0  0  0  0  0  0  0  0  0  0
    4.0739   -0.0064   -2.9077 N   0  3  0  0  0  0  0  0  0  0  0  0
    3.9924    1.0115   -2.8689 H   0  0  0  0  0  0  0  0  0  0  0  0
    5.0642   -0.2595   -2.9252 H   0  0  0  0  0  0  0  0  0  0  0  0
    3.6317   -0.3407   -3.7662 H   0  0  0  0  0  0  0  0  0  0  0  0
   -1.0741    0.9762    1.3453 C   0  0  0  0  0  0  0  0  0  0  0  0
   -1.9699    1.6666    0.8784 O   0  0  0  0  0  0  0  0  0  0  0  0
   -0.2058    1.5186    2.2755 N   0  0  0  0  0  0  0  0  0  0  0  0
    0.4150    0.8759    2.7592 H   0  0  0  0  0  0  0  0  0  0  0  0
   -0.3991    2.8500    2.8428 C   0  0  0  0  0  0  0  0  0  0  0  0
   -1.3496    2.9024    3.3849 H   0  0  0  0  0  0  0  0  0  0  0  0
    0.4103    3.0871    3.5403 H   0  0  0  0  0  0  0  0  0  0  0  0
   -0.4045    3.6090    2.0530 H   0  0  0  0  0  0  0  0  0  0  0  0
  1  2  1  0  0  0  0
  2  3  1  0  0  0  0
  2  4  1  0  0  0  0
  2  5  1  0  0  0  0
  5  6  2  0  0  0  0
  5  7  1  0  0  0  0
  7  8  1  0  0  0  0
  7  9  1  0  0  0  0
  9 10  1  0  0  0  0
  9 11  1  0  0  0  0
  9 27  1  0  0  0  0
 11 12  1  0  0  0  0
 11 13  1  0  0  0  0
 11 14  1  0  0  0  0
 14 15  1  0  0  0  0
 14 16  1  0  0  0  0
 14 17  1  0  0  0  0
 17 18  1  0  0  0  0
 17 19  1  0  0  0  0
 17 20  1  0  0  0  0
 20 21  1  0  0  0  0
 20 22  1  0  0  0  0
 20 23  1  0  0  0  0
 23 24  1  0  0  0  0
 23 25  1  0  0  0  0
 23 26  1  0  0  0  0
 27 28  2  0  0  0  0
 27 29  1  0  0  0  0
 29 30  1  0  0  0  0
 29 31  1  0  0  0  0
 31 32  1  0  0  0  0
 31 33  1  0  0  0  0
 31 34  1  0  0  0  0
M  CHG  1  23   1
M  END
$$$$

  -OEChem-02102214153D

 34 33  0     1  0  0  0  0  0999 V2000
   -3.6983   -4.0874    1.8181 H   0  0  0  0  0  0  0  0  0  0  0  0
   -3.7454   -3.0862    1.3803 C   0  0  0  0  0  0  0  0  0  0  0  0
   -4.3860   -2.4599    2.0061 H   0  0  0  0  0  0  0  0  0  0  0  0
   -4.1828   -3.1590    0.3816 H   0  0  0  0  0  0  0  0  0  0  0  0
   -2.3545   -2.4868    1.2957 C   0  0  0  0  0  0  0  0  0  0  0  0
   -1.3788   -3.1406    1.6313 O   0  0  0  0  0  0  0  0  0  0  0  0
   -2.1797   -1.2017    0.8232 N   0  0  0  0  0  0  0  0  0  0  0  0
   -3.0201   -0.6581    0.6273 H   0  0  0  0  0  0  0  0  0  0  0  0
   -0.9011   -0.4767    0.8620 C   0  0  1  0  0  0  0  0  0  0  0  0
   -0.2406   -0.9742    1.5790 H   0  0  0  0  0  0  0  0  0  0  0  0
   -0.2752   -0.5242   -0.5511 C   0  0  0  0  0  0  0  0  0  0  0  0
   -0.7800   -1.2858   -1.1560 H   0  0  0  0  0  0  0  0  0  0  0  0
   -0.4532    0.4345   -1.0512 H   0  0  0  0  0  0  0  0  0  0  0  0
    1.2292   -0.8591   -0.5340 C   0  0  0  0  0  0  0  0  0  0  0  0
    1.6365   -0.7443    0.4762 H   0  0  0  0  0  0  0  0  0  0  0  0
    1.3647   -1.9072   -0.8251 H   0  0  0  0  0  0  0  0  0  0  0  0
    2.0048    0.0680   -1.4786 C   0  0  0  0  0  0  0  0  0  0  0  0
    1.5820   -0.0113   -2.4865 H   0  0  0  0  0  0  0  0  0  0  0  0
    1.8936    1.1055   -1.1434 H   0  0  0  0  0  0  0  0  0  0  0  0
    3.4819   -0.3176   -1.5042 C   0  0  0  0  0  0  0  0  0  0  0  0
    3.8983   -0.2248   -0.4904 H   0  0  0  0  0  0  0  0  0  0  0  0
    3.5755   -1.3739   -1.7974 H   0  0  0  0  0  0  0  0  0  0  0  0
    4.1912    0.5643   -2.4564 N   0  3  0  0  0  0  0  0  0  0  0  0
    4.0786    1.5412   -2.1784 H   0  0  0  0  0  0  0  0  0  0  0  0
    5.1878    0.3366   -2.4730 H   0  0  0  0  0  0  0  0  0  0  0  0
    3.8082    0.4421   -3.3961 H   0  0  0  0  0  0  0  0  0  0  0  0
   -1.0747    0.9741    1.3521 C   0  0  0  0  0  0  0  0  0  0  0  0
   -1.9504    1.6747    0.8631 O   0  0  0  0  0  0  0  0  0  0  0  0
   -0.2083    1.5138    2.2858 N   0  0  0  0  0  0  0  0  0  0  0  0
    0.3836    0.8628    2.7947 H   0  0  0  0  0  0  0  0  0  0  0  0
   -0.3894    2.8544    2.8351 C   0  0  0  0  0  0  0  0  0  0  0  0
   -1.3416    2.9240    3.3720 H   0  0  0  0  0  0  0  0  0  0  0  0
    0.4197    3.0916    3.5328 H   0  0  0  0  0  0  0  0  0  0  0  0
   -0.3828    3.6031    2.0354 H   0  0  0  0  0  0  0  0  0  0  0  0
  1  2  1  0  0  0  0
  2  3  1  0  0  0  0
  2  4  1  0  0  0  0
  2  5  1  0  0  0  0
  5  6  2  0  0  0  0
  5  7  1  0  0  0  0
  7  8  1  0  0  0  0
  7  9  1  0  0  0  0
  9 10  1  0  0  0  0
  9 11  1  0  0  0  0
  9 27  1  0  0  0  0
 11 12  1  0  0  0  0
 11 13  1  0  0  0  0
 11 14  1  0  0  0  0
 14 15  1  0  0  0  0
 14 16  1  0  0  0  0
 14 17  1  0  0  0  0
 17 18  1  0  0  0  0
 17 19  1  0  0  0  0
 17 20  1  0  0  0  0
 20 21  1  0  0  0  0
 20 22  1  0  0  0  0
 20 23  1  0  0  0  0
 23 24  1  0  0  0  0
 23 25  1  0  0  0  0
 23 26  1  0  0  0  0
 27 28  2  0  0  0  0
 27 29  1  0  0  0  0
 29 30  1  0  0  0  0
 29 31  1  0  0  0  0
 31 32  1  0  0  0  0
 31 33  1  0  0  0  0
 31 34  1  0  0  0  0
M  CHG  1  23   1
M  END
$$$$

  -OEChem-02102214153D

 34 33  0     1  0  0  0  0  0999 V2000
   -3.7118   -4.0864    1.8078 H   0  0  0  0  0  0  0  0  0  0  0  0
   -3.7534   -3.0842    1.3714 C   0  0  0  0  0  0  0  0  0  0  0  0
   -4.4052   -2.4599    1.9876 H   0  0  0  0  0  0  0  0  0  0  0  0
   -4.1738   -3.1556    0.3653 H   0  0  0  0  0  0  0  0  0  0  0  0
   -2.3624   -2.4825    1.3104 C   0  0  0  0  0  0  0  0  0  0  0  0
   -1.3924   -3.1313    1.6709 O   0  0  0  0  0  0  0  0  0  0  0  0
   -2.1806   -1.2001    0.8326 N   0  0  0  0  0  0  0  0  0  0  0  0
   -3.0172   -0.6605    0.6117 H   0  0  0  0  0  0  0  0  0  0  0  0
   -0.9001   -0.4779    0.8727 C   0  0  1  0  0  0  0  0  0  0  0  0
   -0.2449   -0.9729    1.5954 H   0  0  0  0  0  0  0  0  0  0  0  0
   -0.2698   -0.5278   -0.5395 C   0  0  0  0  0  0  0  0  0  0  0  0
   -0.7719   -1.3064   -1.1250 H   0  0  0  0  0  0  0  0  0  0  0  0
   -0.4605    0.4162   -1.0625 H   0  0  0  0  0  0  0  0  0  0  0  0
    1.2355   -0.8647   -0.5327 C   0  0  0  0  0  0  0  0  0  0  0  0
    1.5944   -1.0477    0.4854 H   0  0  0  0  0  0  0  0  0  0  0  0
    1.3898   -1.7901   -1.0994 H   0  0  0  0  0  0  0  0  0  0  0  0
    2.0497    0.2697   -1.1683 C   0  0  0  0  0  0  0  0  0  0  0  0
    1.6879    0.4455   -2.1878 H   0  0  0  0  0  0  0  0  0  0  0  0
    1.9011    1.1898   -0.5915 H   0  0  0  0  0  0  0  0  0  0  0  0
    3.5324   -0.0938   -1.2022 C   0  0  0  0  0  0  0  0  0  0  0  0
    3.8905   -0.2543   -0.1747 H   0  0  0  0  0  0  0  0  0  0  0  0
    3.6596   -1.0441   -1.7418 H   0  0  0  0  0  0  0  0  0  0  0  0
    4.2788    0.9981   -1.8648 N   0  3  0  0  0  0  0  0  0  0  0  0
    4.1371    1.8751   -1.3597 H   0  0  0  0  0  0  0  0  0  0  0  0
    5.2781    0.7824   -1.8819 H   0  0  0  0  0  0  0  0  0  0  0  0
    3.9485    1.1132   -2.8253 H   0  0  0  0  0  0  0  0  0  0  0  0
   -1.0682    0.9758    1.3545 C   0  0  0  0  0  0  0  0  0  0  0  0
   -1.9290    1.6834    0.8499 O   0  0  0  0  0  0  0  0  0  0  0  0
   -0.2015    1.5151    2.2883 N   0  0  0  0  0  0  0  0  0  0  0  0
    0.3667    0.8582    2.8163 H   0  0  0  0  0  0  0  0  0  0  0  0
   -0.3859    2.8567    2.8345 C   0  0  0  0  0  0  0  0  0  0  0  0
   -1.3402    2.9263    3.3680 H   0  0  0  0  0  0  0  0  0  0  0  0
    0.4205    3.0964    3.5345 H   0  0  0  0  0  0  0  0  0  0  0  0
   -0.3780    3.6039    2.0335 H   0  0  0  0  0  0  0  0  0  0  0  0
  1  2  1  0  0  0  0
  2  3  1  0  0  0  0
  2  4  1  0  0  0  0
  2  5  1  0  0  0  0
  5  6  2  0  0  0  0
  5  7  1  0  0  0  0
  7  8  1  0  0  0  0
  7  9  1  0  0  0  0
  9 10  1  0  0  0  0
  9 11  1  0  0  0  0
  9 27  1  0  0  0  0
 11 12  1  0  0  0  0
 11 13  1  0  0  0  0
 11 14  1  0  0  0  0
 14 15  1  0  0  0  0
 14 16  1  0  0  0  0
 14 17  1  0  0  0  0
 17 18  1  0  0  0  0
 17 19  1  0  0  0  0
 17 20  1  0  0  0  0
 20 21  1  0  0  0  0
 20 22  1  0  0  0  0
 20 23  1  0  0  0  0
 23 24  1  0  0  0  0
 23 25  1  0  0  0  0
 23 26  1  0  0  0  0
 27 28  2  0  0  0  0
 27 29  1  0  0  0  0
 29 30  1  0  0  0  0
 29 31  1  0  0  0  0
 31 32  1  0  0  0  0
 31 33  1  0  0  0  0
 31 34  1  0  0  0  0
M  CHG  1  23   1
M  END
$$$$

  -OEChem-02102214153D

 34 33  0     1  0  0  0  0  0999 V2000
   -3.7033   -4.0877    1.8004 H   0  0  0  0  0  0  0  0  0  0  0  0
   -3.7464   -3.0845    1.3667 C   0  0  0  0  0  0  0  0  0  0  0  0
   -4.4027   -2.4642    1.9819 H   0  0  0  0  0  0  0  0  0  0  0  0
   -4.1625   -3.1546    0.3588 H   0  0  0  0  0  0  0  0  0  0  0  0
   -2.3576   -2.4776    1.3149 C   0  0  0  0  0  0  0  0  0  0  0  0
   -1.3886   -3.1188    1.6915 O   0  0  0  0  0  0  0  0  0  0  0  0
   -2.1770   -1.1959    0.8352 N   0  0  0  0  0  0  0  0  0  0  0  0
   -3.0126   -0.6626    0.5958 H   0  0  0  0  0  0  0  0  0  0  0  0
   -0.8971   -0.4733    0.8758 C   0  0  1  0  0  0  0  0  0  0  0  0
   -0.2389   -0.9649    1.5983 H   0  0  0  0  0  0  0  0  0  0  0  0
   -0.2695   -0.5236   -0.5375 C   0  0  0  0  0  0  0  0  0  0  0  0
   -0.7677   -1.3156   -1.1083 H   0  0  0  0  0  0  0  0  0  0  0  0
   -0.4657    0.4092   -1.0779 H   0  0  0  0  0  0  0  0  0  0  0  0
    1.2339   -0.8604   -0.5306 C   0  0  0  0  0  0  0  0  0  0  0  0
    1.5322   -1.3247    0.4155 H   0  0  0  0  0  0  0  0  0  0  0  0
    1.4246   -1.5959   -1.3207 H   0  0  0  0  0  0  0  0  0  0  0  0
    2.0751    0.3917   -0.8098 C   0  0  0  0  0  0  0  0  0  0  0  0
    1.7719    0.8244   -1.7700 H   0  0  0  0  0  0  0  0  0  0  0  0
    1.8891    1.1369   -0.0282 H   0  0  0  0  0  0  0  0  0  0  0  0
    3.5587    0.0336   -0.8504 C   0  0  0  0  0  0  0  0  0  0  0  0
    3.8597   -0.3792    0.1237 H   0  0  0  0  0  0  0  0  0  0  0  0
    3.7200   -0.7557   -1.5997 H   0  0  0  0  0  0  0  0  0  0  0  0
    4.3350    1.2479   -1.1824 N   0  3  0  0  0  0  0  0  0  0  0  0
    4.1639    1.9745   -0.4847 H   0  0  0  0  0  0  0  0  0  0  0  0
    5.3344    1.0332   -1.2002 H   0  0  0  0  0  0  0  0  0  0  0  0
    4.0556    1.5995   -2.1006 H   0  0  0  0  0  0  0  0  0  0  0  0
   -1.0676    0.9809    1.3557 C   0  0  0  0  0  0  0  0  0  0  0  0
   -1.9192    1.6928    0.8418 O   0  0  0  0  0  0  0  0  0  0  0  0
   -0.2012    1.5197    2.2907 N   0  0  0  0  0  0  0  0  0  0  0  0
    0.3470    0.8573    2.8328 H   0  0  0  0  0  0  0  0  0  0  0  0
   -0.3929    2.8592    2.8405 C   0  0  0  0  0  0  0  0  0  0  0  0
   -1.3494    2.9237    3.3707 H   0  0  0  0  0  0  0  0  0  0  0  0
    0.4096    3.1006    3.5443 H   0  0  0  0  0  0  0  0  0  0  0  0
   -0.3854    3.6088    2.0419 H   0  0  0  0  0  0  0  0  0  0  0  0
  1  2  1  0  0  0  0
  2  3  1  0  0  0  0
  2  4  1  0  0  0  0
  2  5  1  0  0  0  0
  5  6  2  0  0  0  0
  5  7  1  0  0  0  0
  7  8  1  0  0  0  0
  7  9  1  0  0  0  0
  9 10  1  0  0  0  0
  9 11  1  0  0  0  0
  9 27  1  0  0  0  0
 11 12  1  0  0  0  0
 11 13  1  0  0  0  0
 11 14  1  0  0  0  0
 14 15  1  0  0  0  0
 14 16  1  0  0  0  0
 14 17  1  0  0  0  0
 17 18  1  0  0  0  0
 17 19  1  0  0  0  0
 17 20  1  0  0  0  0
 20 21  1  0  0  0  0
 20 22  1  0  0  0  0
 20 23  1  0  0  0  0
 23 24  1  0  0  0  0
 23 25  1  0  0  0  0
 23 26  1  0  0  0  0
 27 28  2  0  0  0  0
 27 29  1  0  0  0  0
 29 30  1  0  0  0  0
 29 31  1  0  0  0  0
 31 32  1  0  0  0  0
 31 33  1  0  0  0  0
 31 34  1  0  0  0  0
M  CHG  1  23   1
M  END
$$$$

  -OEChem-02102214153D

 34 33  0     1  0  0  0  0  0999 V2000
   -3.6863   -4.0943    1.7752 H   0  0  0  0  0  0  0  0  0  0  0  0
   -3.7330   -3.0878    1.3496 C   0  0  0  0  0  0  0  0  0  0  0  0
   -4.4043   -2.4795    1.9608 H   0  0  0  0  0  0  0  0  0  0  0  0
   -4.1341   -3.1536    0.3353 H   0  0  0  0  0  0  0  0  0  0  0  0
   -2.3491   -2.4673    1.3211 C   0  0  0  0  0  0  0  0  0  0  0  0
   -1.3808   -3.0987    1.7162 O   0  0  0  0  0  0  0  0  0  0  0  0
   -2.1696   -1.1853    0.8411 N   0  0  0  0  0  0  0  0  0  0  0  0
   -3.0032   -0.6582    0.5812 H   0  0  0  0  0  0  0  0  0  0  0  0
   -0.8913   -0.4602    0.8897 C   0  0  1  0  0  0  0  0  0  0  0  0
   -0.2283   -0.9470    1.6111 H   0  0  0  0  0  0  0  0  0  0  0  0
   -0.2631   -0.5143   -0.5238 C   0  0  0  0  0  0  0  0  0  0  0  0
   -0.7591   -1.3088   -1.0932 H   0  0  0  0  0  0  0  0  0  0  0  0
   -0.4521    0.4172   -1.0690 H   0  0  0  0  0  0  0  0  0  0  0  0
    1.2373   -0.8516   -0.5106 C   0  0  0  0  0  0  0  0  0  0  0  0
    1.4692   -1.5454    0.3055 H   0  0  0  0  0  0  0  0  0  0  0  0
    1.4764   -1.3676   -1.4475 H   0  0  0  0  0  0  0  0  0  0  0  0
    2.0974    0.4155   -0.4179 C   0  0  0  0  0  0  0  0  0  0  0  0
    1.8323    1.0933   -1.2371 H   0  0  0  0  0  0  0  0  0  0  0  0
    1.8956    0.9307    0.5267 H   0  0  0  0  0  0  0  0  0  0  0  0
    3.5771    0.0493   -0.5073 C   0  0  0  0  0  0  0  0  0  0  0  0
    3.8402   -0.6047    0.3370 H   0  0  0  0  0  0  0  0  0  0  0  0
    3.7520   -0.5260   -1.4287 H   0  0  0  0  0  0  0  0  0  0  0  0
    4.3822    1.2900   -0.4964 N   0  3  0  0  0  0  0  0  0  0  0  0
    4.2004    1.8180    0.3590 H   0  0  0  0  0  0  0  0  0  0  0  0
    5.3783    1.0636   -0.5415 H   0  0  0  0  0  0  0  0  0  0  0  0
    4.1383    1.8709   -1.3013 H   0  0  0  0  0  0  0  0  0  0  0  0
   -1.0806    0.9923    1.3689 C   0  0  0  0  0  0  0  0  0  0  0  0
   -1.9292    1.6980    0.8422 O   0  0  0  0  0  0  0  0  0  0  0  0
   -0.2289    1.5402    2.3128 N   0  0  0  0  0  0  0  0  0  0  0  0
    0.2984    0.8780    2.8753 H   0  0  0  0  0  0  0  0  0  0  0  0
   -0.4501    2.8750    2.8639 C   0  0  0  0  0  0  0  0  0  0  0  0
   -1.4174    2.9238    3.3761 H   0  0  0  0  0  0  0  0  0  0  0  0
    0.3353    3.1251    3.5839 H   0  0  0  0  0  0  0  0  0  0  0  0
   -0.4385    3.6278    2.0682 H   0  0  0  0  0  0  0  0  0  0  0  0
  1  2  1  0  0  0  0
  2  3  1  0  0  0  0
  2  4  1  0  0  0  0
  2  5  1  0  0  0  0
  5  6  2  0  0  0  0
  5  7  1  0  0  0  0
  7  8  1  0  0  0  0
  7  9  1  0  0  0  0
  9 10  1  0  0  0  0
  9 11  1  0  0  0  0
  9 27  1  0  0  0  0
 11 12  1  0  0  0  0
 11 13  1  0  0  0  0
 11 14  1  0  0  0  0
 14 15  1  0  0  0  0
 14 16  1  0  0  0  0
 14 17  1  0  0  0  0
 17 18  1  0  0  0  0
 17 19  1  0  0  0  0
 17 20  1  0  0  0  0
 20 21  1  0  0  0  0
 20 22  1  0  0  0  0
 20 23  1  0  0  0  0
 23 24  1  0  0  0  0
 23 25  1  0  0  0  0
 23 26  1  0  0  0  0
 27 28  2  0  0  0  0
 27 29  1  0  0  0  0
 29 30  1  0  0  0  0
 29 31  1  0  0  0  0
 31 32  1  0  0  0  0
 31 33  1  0  0  0  0
 31 34  1  0  0  0  0
M  CHG  1  23   1
M  END
$$$$

  -OEChem-02102214153D

 34 33  0     1  0  0  0  0  0999 V2000
   -3.6994   -4.0903    1.7403 H   0  0  0  0  0  0  0  0  0  0  0  0
   -3.7381   -3.0817    1.3188 C   0  0  0  0  0  0  0  0  0  0  0  0
   -4.4267   -2.4783    1.9152 H   0  0  0  0  0  0  0  0  0  0  0  0
   -4.1122   -3.1433    0.2940 H   0  0  0  0  0  0  0  0  0  0  0  0
   -2.3561   -2.4571    1.3302 C   0  0  0  0  0  0  0  0  0  0  0  0
   -1.3986   -3.0821    1.7602 O   0  0  0  0  0  0  0  0  0  0  0  0
   -2.1655   -1.1782    0.8468 N   0  0  0  0  0  0  0  0  0  0  0  0
   -2.9917   -0.6548    0.5570 H   0  0  0  0  0  0  0  0  0  0  0  0
   -0.8880   -0.4539    0.9194 C   0  0  1  0  0  0  0  0  0  0  0  0
   -0.2312   -0.9363    1.6500 H   0  0  0  0  0  0  0  0  0  0  0  0
   -0.2441   -0.5174   -0.4869 C   0  0  0  0  0  0  0  0  0  0  0  0
   -0.7400   -1.3025   -1.0693 H   0  0  0  0  0  0  0  0  0  0  0  0
   -0.4123    0.4210   -1.0268 H   0  0  0  0  0  0  0  0  0  0  0  0
    1.2532   -0.8593   -0.4653 C   0  0  0  0  0  0  0  0  0  0  0  0
    1.4243   -1.7290    0.1801 H   0  0  0  0  0  0  0  0  0  0  0  0
    1.5465   -1.1451   -1.4818 H   0  0  0  0  0  0  0  0  0  0  0  0
    2.1193    0.3230   -0.0119 C   0  0  0  0  0  0  0  0  0  0  0  0
    1.8643    1.2078   -0.6062 H   0  0  0  0  0  0  0  0  0  0  0  0
    1.9196    0.5495    1.0396 H   0  0  0  0  0  0  0  0  0  0  0  0
    3.5953   -0.0223   -0.1982 C   0  0  0  0  0  0  0  0  0  0  0  0
    3.8451   -0.8920    0.4276 H   0  0  0  0  0  0  0  0  0  0  0  0
    3.7667   -0.3172   -1.2442 H   0  0  0  0  0  0  0  0  0  0  0  0
    4.4193    1.1519    0.1612 N   0  3  0  0  0  0  0  0  0  0  0  0
    4.2484    1.4157    1.1330 H   0  0  0  0  0  0  0  0  0  0  0  0
    5.4115    0.9332    0.0464 H   0  0  0  0  0  0  0  0  0  0  0  0
    4.1827    1.9417   -0.4430 H   0  0  0  0  0  0  0  0  0  0  0  0
   -1.1038    0.9998    1.3874 C   0  0  0  0  0  0  0  0  0  0  0  0
   -1.9427    1.6946    0.8314 O   0  0  0  0  0  0  0  0  0  0  0  0
   -0.2846    1.5644    2.3504 N   0  0  0  0  0  0  0  0  0  0  0  0
    0.2141    0.9095    2.9463 H   0  0  0  0  0  0  0  0  0  0  0  0
   -0.5364    2.9034    2.8786 C   0  0  0  0  0  0  0  0  0  0  0  0
   -1.5188    2.9474    3.3617 H   0  0  0  0  0  0  0  0  0  0  0  0
    0.2247    3.1716    3.6179 H   0  0  0  0  0  0  0  0  0  0  0  0
   -0.5103    3.6469    2.0744 H   0  0  0  0  0  0  0  0  0  0  0  0
  1  2  1  0  0  0  0
  2  3  1  0  0  0  0
  2  4  1  0  0  0  0
  2  5  1  0  0  0  0
  5  6  2  0  0  0  0
  5  7  1  0  0  0  0
  7  8  1  0  0  0  0
  7  9  1  0  0  0  0
  9 10  1  0  0  0  0
  9 11  1  0  0  0  0
  9 27  1  0  0  0  0
 11 12  1  0  0  0  0
 11 13  1  0  0  0  0
 11 14  1  0  0  0  0
 14 15  1  0  0  0  0
 14 16  1  0  0  0  0
 14 17  1  0  0  0  0
 17 18  1  0  0  0  0
 17 19  1  0  0  0  0
 17 20  1  0  0  0  0
 20 21  1  0  0  0  0
 20 22  1  0  0  0  0
 20 23  1  0  0  0  0
 23 24  1  0  0  0  0
 23 25  1  0  0  0  0
 23 26  1  0  0  0  0
 27 28  2  0  0  0  0
 27 29  1  0  0  0  0
 29 30  1  0  0  0  0
 29 31  1  0  0  0  0
 31 32  1  0  0  0  0
 31 33  1  0  0  0  0
 31 34  1  0  0  0  0
M  CHG  1  23   1
M  END
$$$$

  -OEChem-02102214153D

 34 33  0     1  0  0  0  0  0999 V2000
   -3.7298   -4.0861    1.7189 H   0  0  0  0  0  0  0  0  0  0  0  0
   -3.7608   -3.0768    1.2988 C   0  0  0  0  0  0  0  0  0  0  0  0
   -4.4625   -2.4752    1.8816 H   0  0  0  0  0  0  0  0  0  0  0  0
   -4.1130   -3.1371    0.2661 H   0  0  0  0  0  0  0  0  0  0  0  0
   -2.3800   -2.4511    1.3404 C   0  0  0  0  0  0  0  0  0  0  0  0
   -1.4330   -3.0720    1.7994 O   0  0  0  0  0  0  0  0  0  0  0  0
   -2.1782   -1.1764    0.8510 N   0  0  0  0  0  0  0  0  0  0  0  0
   -2.9961   -0.6571    0.5321 H   0  0  0  0  0  0  0  0  0  0  0  0
   -0.9003   -0.4549    0.9371 C   0  0  1  0  0  0  0  0  0  0  0  0
   -0.2570   -0.9369    1.6794 H   0  0  0  0  0  0  0  0  0  0  0  0
   -0.2374   -0.5336   -0.4602 C   0  0  0  0  0  0  0  0  0  0  0  0
   -0.7353   -1.3074   -1.0554 H   0  0  0  0  0  0  0  0  0  0  0  0
   -0.3860    0.4121   -0.9935 H   0  0  0  0  0  0  0  0  0  0  0  0
    1.2599   -0.8791   -0.4349 C   0  0  0  0  0  0  0  0  0  0  0  0
    1.3873   -1.8740    0.0077 H   0  0  0  0  0  0  0  0  0  0  0  0
    1.6109   -0.9336   -1.4716 H   0  0  0  0  0  0  0  0  0  0  0  0
    2.1083    0.1391    0.3389 C   0  0  0  0  0  0  0  0  0  0  0  0
    1.8747    1.1490   -0.0173 H   0  0  0  0  0  0  0  0  0  0  0  0
    1.8742    0.0886    1.4064 H   0  0  0  0  0  0  0  0  0  0  0  0
    3.5903   -0.1610    0.1222 C   0  0  0  0  0  0  0  0  0  0  0  0
    3.8149   -1.1685    0.5029 H   0  0  0  0  0  0  0  0  0  0  0  0
    3.8017   -0.1699   -0.9573 H   0  0  0  0  0  0  0  0  0  0  0  0
    4.4030    0.8651    0.8109 N   0  3  0  0  0  0  0  0  0  0  0  0
    4.2138    0.8472    1.8145 H   0  0  0  0  0  0  0  0  0  0  0  0
    5.3980    0.6849    0.6584 H   0  0  0  0  0  0  0  0  0  0  0  0
    4.1754    1.7926    0.4463 H   0  0  0  0  0  0  0  0  0  0  0  0
   -1.1189    1.0031    1.3915 C   0  0  0  0  0  0  0  0  0  0  0  0
   -1.9481    1.6962    0.8194 O   0  0  0  0  0  0  0  0  0  0  0  0
   -0.3118    1.5717    2.3623 N   0  0  0  0  0  0  0  0  0  0  0  0
    0.1595    0.9177    2.9802 H   0  0  0  0  0  0  0  0  0  0  0  0
   -0.5610    2.9197    2.8687 C   0  0  0  0  0  0  0  0  0  0  0  0
   -1.5486    2.9768    3.3396 H   0  0  0  0  0  0  0  0  0  0  0  0
    0.1933    3.1930    3.6130 H   0  0  0  0  0  0  0  0  0  0  0  0
   -0.5206    3.6521    2.0549 H   0  0  0  0  0  0  0  0  0  0  0  0
  1  2  1  0  0  0  0
  2  3  1  0  0  0  0
  2  4  1  0  0  0  0
  2  5  1  0  0  0  0
  5  6  2  0  0  0  0
  5  7  1  0  0  0  0
  7  8  1  0  0  0  0
  7  9  1  0  0  0  0
  9 10  1  0  0  0  0
  9 11  1  0  0  0  0
  9 27  1  0  0  0  0
 11 12  1  0  0  0  0
 11 13  1  0  0  0  0
 11 14  1  0  0  0  0
 14 15  1  0  0  0  0
 14 16  1  0  0  0  0
 14 17  1  0  0  0  0
 17 18  1  0  0  0  0
 17 19  1  0  0  0  0
 17 20  1  0  0  0  0
 20 21  1  0  0  0  0
 20 22  1  0  0  0  0
 20 23  1  0  0  0  0
 23 24  1  0  0  0  0
 23 25  1  0  0  0  0
 23 26  1  0  0  0  0
 27 28  2  0  0  0  0
 27 29  1  0  0  0  0
 29 30  1  0  0  0  0
 29 31  1  0  0  0  0
 31 32  1  0  0  0  0
 31 33  1  0  0  0  0
 31 34  1  0  0  0  0
M  CHG  1  23   1
M  END
$$$$

  -OEChem-02102214153D

 34 33  0     1  0  0  0  0  0999 V2000
   -3.7668   -4.0836    1.6996 H   0  0  0  0  0  0  0  0  0  0  0  0
   -3.7915   -3.0735    1.2808 C   0  0  0  0  0  0  0  0  0  0  0  0
   -4.5056   -2.4740    1.8506 H   0  0  0  0  0  0  0  0  0  0  0  0
   -4.1236   -3.1323    0.2413 H   0  0  0  0  0  0  0  0  0  0  0  0
   -2.4128   -2.4452    1.3511 C   0  0  0  0  0  0  0  0  0  0  0  0
   -1.4768   -3.0588    1.8422 O   0  0  0  0  0  0  0  0  0  0  0  0
   -2.2008   -1.1752    0.8533 N   0  0  0  0  0  0  0  0  0  0  0  0
   -3.0122   -0.6601    0.5112 H   0  0  0  0  0  0  0  0  0  0  0  0
   -0.9263   -0.4500    0.9572 C   0  0  1  0  0  0  0  0  0  0  0  0
   -0.3086   -0.9277    1.7216 H   0  0  0  0  0  0  0  0  0  0  0  0
   -0.2310   -0.5466   -0.4243 C   0  0  0  0  0  0  0  0  0  0  0  0
   -0.7252   -1.3139   -1.0309 H   0  0  0  0  0  0  0  0  0  0  0  0
   -0.3683    0.4016   -0.9564 H   0  0  0  0  0  0  0  0  0  0  0  0
    1.2711   -0.8867   -0.4020 C   0  0  0  0  0  0  0  0  0  0  0  0
    1.3739   -1.9578   -0.1910 H   0  0  0  0  0  0  0  0  0  0  0  0
    1.6707   -0.7113   -1.4072 H   0  0  0  0  0  0  0  0  0  0  0  0
    2.1025   -0.1067    0.6285 C   0  0  0  0  0  0  0  0  0  0  0  0
    1.9053    0.9652    0.5142 H   0  0  0  0  0  0  0  0  0  0  0  0
    1.8278   -0.4028    1.6452 H   0  0  0  0  0  0  0  0  0  0  0  0
    3.5858   -0.3924    0.3972 C   0  0  0  0  0  0  0  0  0  0  0  0
    3.7670   -1.4714    0.5137 H   0  0  0  0  0  0  0  0  0  0  0  0
    3.8445   -0.1319   -0.6399 H   0  0  0  0  0  0  0  0  0  0  0  0
    4.3952    0.3904    1.3562 N   0  3  0  0  0  0  0  0  0  0  0  0
    4.1743    0.1083    2.3129 H   0  0  0  0  0  0  0  0  0  0  0  0
    5.3909    0.2307    1.1862 H   0  0  0  0  0  0  0  0  0  0  0  0
    4.1977    1.3873    1.2480 H   0  0  0  0  0  0  0  0  0  0  0  0
   -1.1516    1.0127    1.3915 C   0  0  0  0  0  0  0  0  0  0  0  0
   -1.9802    1.6962    0.8074 O   0  0  0  0  0  0  0  0  0  0  0  0
   -0.3610    1.5890    2.3711 N   0  0  0  0  0  0  0  0  0  0  0  0
    0.1064    0.9422    2.9987 H   0  0  0  0  0  0  0  0  0  0  0  0
   -0.6183    2.9413    2.8607 C   0  0  0  0  0  0  0  0  0  0  0  0
   -1.6143    3.0027    3.3130 H   0  0  0  0  0  0  0  0  0  0  0  0
    0.1226    3.2217    3.6156 H   0  0  0  0  0  0  0  0  0  0  0  0
   -0.5625    3.6652    2.0404 H   0  0  0  0  0  0  0  0  0  0  0  0
  1  2  1  0  0  0  0
  2  3  1  0  0  0  0
  2  4  1  0  0  0  0
  2  5  1  0  0  0  0
  5  6  2  0  0  0  0
  5  7  1  0  0  0  0
  7  8  1  0  0  0  0
  7  9  1  0  0  0  0
  9 10  1  0  0  0  0
  9 11  1  0  0  0  0
  9 27  1  0  0  0  0
 11 12  1  0  0  0  0
 11 13  1  0  0  0  0
 11 14  1  0  0  0  0
 14 15  1  0  0  0  0
 14 16  1  0  0  0  0
 14 17  1  0  0  0  0
 17 18  1  0  0  0  0
 17 19  1  0  0  0  0
 17 20  1  0  0  0  0
 20 21  1  0  0  0  0
 20 22  1  0  0  0  0
 20 23  1  0  0  0  0
 23 24  1  0  0  0  0
 23 25  1  0  0  0  0
 23 26  1  0  0  0  0
 27 28  2  0  0  0  0
 27 29  1  0  0  0  0
 29 30  1  0  0  0  0
 29 31  1  0  0  0  0
 31 32  1  0  0  0  0
 31 33  1  0  0  0  0
 31 34  1  0  0  0  0
M  CHG  1  23   1
M  END
$$$$

  -OEChem-02102214153D

 34 33  0     1  0  0  0  0  0999 V2000
   -3.8114   -4.0580    1.7176 H   0  0  0  0  0  0  0  0  0  0  0  0
   -3.8237   -3.0547    1.2822 C   0  0  0  0  0  0  0  0  0  0  0  0
   -4.5405   -2.4412    1.8336 H   0  0  0  0  0  0  0  0  0  0  0  0
   -4.1440   -3.1281    0.2400 H   0  0  0  0  0  0  0  0  0  0  0  0
   -2.4420   -2.4340    1.3588 C   0  0  0  0  0  0  0  0  0  0  0  0
   -1.5151   -3.0454    1.8704 O   0  0  0  0  0  0  0  0  0  0  0  0
   -2.2185   -1.1711    0.8485 N   0  0  0  0  0  0  0  0  0  0  0  0
   -3.0242   -0.6548    0.4943 H   0  0  0  0  0  0  0  0  0  0  0  0
   -0.9469   -0.4448    0.9750 C   0  0  1  0  0  0  0  0  0  0  0  0
   -0.3578   -0.9089    1.7671 H   0  0  0  0  0  0  0  0  0  0  0  0
   -0.2175   -0.5540   -0.3898 C   0  0  0  0  0  0  0  0  0  0  0  0
   -0.7096   -1.3139   -1.0076 H   0  0  0  0  0  0  0  0  0  0  0  0
   -0.3445    0.3958   -0.9216 H   0  0  0  0  0  0  0  0  0  0  0  0
    1.2894   -0.8937   -0.3715 C   0  0  0  0  0  0  0  0  0  0  0  0
    1.3802   -1.9849   -0.4242 H   0  0  0  0  0  0  0  0  0  0  0  0
    1.7344   -0.4877   -1.2869 H   0  0  0  0  0  0  0  0  0  0  0  0
    2.0964   -0.4171    0.8472 C   0  0  0  0  0  0  0  0  0  0  0  0
    1.9344    0.6561    0.9958 H   0  0  0  0  0  0  0  0  0  0  0  0
    1.7763   -0.9497    1.7480 H   0  0  0  0  0  0  0  0  0  0  0  0
    3.5795   -0.6932    0.6004 C   0  0  0  0  0  0  0  0  0  0  0  0
    3.7172   -1.7679    0.4090 H   0  0  0  0  0  0  0  0  0  0  0  0
    3.8986   -0.1607   -0.3078 H   0  0  0  0  0  0  0  0  0  0  0  0
    4.3691   -0.2604    1.7739 N   0  3  0  0  0  0  0  0  0  0  0  0
    4.0818   -0.7865    2.6017 H   0  0  0  0  0  0  0  0  0  0  0  0
    5.3643   -0.4268    1.6064 H   0  0  0  0  0  0  0  0  0  0  0  0
    4.2252    0.7366    1.9449 H   0  0  0  0  0  0  0  0  0  0  0  0
   -1.1902    1.0227    1.3830 C   0  0  0  0  0  0  0  0  0  0  0  0
   -2.0241    1.6856    0.7827 O   0  0  0  0  0  0  0  0  0  0  0  0
   -0.4305    1.6186    2.3748 N   0  0  0  0  0  0  0  0  0  0  0  0
    0.0470    0.9889    3.0112 H   0  0  0  0  0  0  0  0  0  0  0  0
   -0.7059    2.9764    2.8387 C   0  0  0  0  0  0  0  0  0  0  0  0
   -1.7147    3.0410    3.2614 H   0  0  0  0  0  0  0  0  0  0  0  0
    0.0125    3.2695    3.6106 H   0  0  0  0  0  0  0  0  0  0  0  0
   -0.6288    3.6893    2.0103 H   0  0  0  0  0  0  0  0  0  0  0  0
  1  2  1  0  0  0  0
  2  3  1  0  0  0  0
  2  4  1  0  0  0  0
  2  5  1  0  0  0  0
  5  6  2  0  0  0  0
  5  7  1  0  0  0  0
  7  8  1  0  0  0  0
  7  9  1  0  0  0  0
  9 10  1  0  0  0  0
  9 11  1  0  0  0  0
  9 27  1  0  0  0  0
 11 12  1  0  0  0  0
 11 13  1  0  0  0  0
 11 14  1  0  0  0  0
 14 15  1  0  0  0  0
 14 16  1  0  0  0  0
 14 17  1  0  0  0  0
 17 18  1  0  0  0  0
 17 19  1  0  0  0  0
 17 20  1  0  0  0  0
 20 21  1  0  0  0  0
 20 22  1  0  0  0  0
 20 23  1  0  0  0  0
 23 24  1  0  0  0  0
 23 25  1  0  0  0  0
 23 26  1  0  0  0  0
 27 28  2  0  0  0  0
 27 29  1  0  0  0  0
 29 30  1  0  0  0  0
 29 31  1  0  0  0  0
 31 32  1  0  0  0  0
 31 33  1  0  0  0  0
 31 34  1  0  0  0  0
M  CHG  1  23   1
M  END
$$$$

  -OEChem-02102214153D

 34 33  0     1  0  0  0  0  0999 V2000
   -3.8312   -4.0351    1.7448 H   0  0  0  0  0  0  0  0  0  0  0  0
   -3.8384   -3.0363    1.2994 C   0  0  0  0  0  0  0  0  0  0  0  0
   -4.5545   -2.4144    1.8422 H   0  0  0  0  0  0  0  0  0  0  0  0
   -4.1557   -3.1186    0.2569 H   0  0  0  0  0  0  0  0  0  0  0  0
   -2.4549   -2.4198    1.3736 C   0  0  0  0  0  0  0  0  0  0  0  0
   -1.5307   -3.0287    1.8945 O   0  0  0  0  0  0  0  0  0  0  0  0
   -2.2252   -1.1642    0.8483 N   0  0  0  0  0  0  0  0  0  0  0  0
   -3.0283   -0.6466    0.4900 H   0  0  0  0  0  0  0  0  0  0  0  0
   -0.9541   -0.4389    0.9836 C   0  0  1  0  0  0  0  0  0  0  0  0
   -0.3822   -0.8871    1.7956 H   0  0  0  0  0  0  0  0  0  0  0  0
   -0.2060   -0.5539   -0.3726 C   0  0  0  0  0  0  0  0  0  0  0  0
   -0.6966   -1.3175   -0.9869 H   0  0  0  0  0  0  0  0  0  0  0  0
   -0.3341    0.3906   -0.9139 H   0  0  0  0  0  0  0  0  0  0  0  0
    1.3040   -0.8953   -0.3598 C   0  0  0  0  0  0  0  0  0  0  0  0
    1.4058   -1.9358   -0.6895 H   0  0  0  0  0  0  0  0  0  0  0  0
    1.7925   -0.2706   -1.1162 H   0  0  0  0  0  0  0  0  0  0  0  0
    2.0577   -0.7553    0.9721 C   0  0  0  0  0  0  0  0  0  0  0  0
    1.9294    0.2577    1.3682 H   0  0  0  0  0  0  0  0  0  0  0  0
    1.6619   -1.4731    1.6983 H   0  0  0  0  0  0  0  0  0  0  0  0
    3.5404   -1.0467    0.7421 C   0  0  0  0  0  0  0  0  0  0  0  0
    3.6404   -2.0295    0.2579 H   0  0  0  0  0  0  0  0  0  0  0  0
    3.9528   -0.3012    0.0460 H   0  0  0  0  0  0  0  0  0  0  0  0
    4.2555   -1.0250    2.0368 N   0  3  0  0  0  0  0  0  0  0  0  0
    3.8591   -1.7270    2.6657 H   0  0  0  0  0  0  0  0  0  0  0  0
    5.2464   -1.2332    1.8934 H   0  0  0  0  0  0  0  0  0  0  0  0
    4.1704   -0.1037    2.4696 H   0  0  0  0  0  0  0  0  0  0  0  0
   -1.2074    1.0339    1.3686 C   0  0  0  0  0  0  0  0  0  0  0  0
   -2.0518    1.6778    0.7621 O   0  0  0  0  0  0  0  0  0  0  0  0
   -0.4670    1.6488    2.3631 N   0  0  0  0  0  0  0  0  0  0  0  0
    0.0384    1.0384    2.9960 H   0  0  0  0  0  0  0  0  0  0  0  0
   -0.7535    3.0111    2.8070 C   0  0  0  0  0  0  0  0  0  0  0  0
   -1.7672    3.0767    3.2174 H   0  0  0  0  0  0  0  0  0  0  0  0
   -0.0452    3.3166    3.5832 H   0  0  0  0  0  0  0  0  0  0  0  0
   -0.6694    3.7143    1.9711 H   0  0  0  0  0  0  0  0  0  0  0  0
  1  2  1  0  0  0  0
  2  3  1  0  0  0  0
  2  4  1  0  0  0  0
  2  5  1  0  0  0  0
  5  6  2  0  0  0  0
  5  7  1  0  0  0  0
  7  8  1  0  0  0  0
  7  9  1  0  0  0  0
  9 10  1  0  0  0  0
  9 11  1  0  0  0  0
  9 27  1  0  0  0  0
 11 12  1  0  0  0  0
 11 13  1  0  0  0  0
 11 14  1  0  0  0  0
 14 15  1  0  0  0  0
 14 16  1  0  0  0  0
 14 17  1  0  0  0  0
 17 18  1  0  0  0  0
 17 19  1  0  0  0  0
 17 20  1  0  0  0  0
 20 21  1  0  0  0  0
 20 22  1  0  0  0  0
 20 23  1  0  0  0  0
 23 24  1  0  0  0  0
 23 25  1  0  0  0  0
 23 26  1  0  0  0  0
 27 28  2  0  0  0  0
 27 29  1  0  0  0  0
 29 30  1  0  0  0  0
 29 31  1  0  0  0  0
 31 32  1  0  0  0  0
 31 33  1  0  0  0  0
 31 34  1  0  0  0  0
M  CHG  1  23   1
M  END
$$$$

  -OEChem-02102214153D

 34 33  0     1  0  0  0  0  0999 V2000
   -3.8019   -4.0239    1.7968 H   0  0  0  0  0  0  0  0  0  0  0  0
   -3.8168   -3.0300    1.3408 C   0  0  0  0  0  0  0  0  0  0  0  0
   -4.5234   -2.4023    1.8892 H   0  0  0  0  0  0  0  0  0  0  0  0
   -4.1523   -3.1230    0.3049 H   0  0  0  0  0  0  0  0  0  0  0  0
   -2.4323   -2.4130    1.3843 C   0  0  0  0  0  0  0  0  0  0  0  0
   -1.4964   -3.0204    1.8883 O   0  0  0  0  0  0  0  0  0  0  0  0
   -2.2128   -1.1607    0.8471 N   0  0  0  0  0  0  0  0  0  0  0  0
   -3.0235   -0.6401    0.5099 H   0  0  0  0  0  0  0  0  0  0  0  0
   -0.9452   -0.4298    0.9779 C   0  0  1  0  0  0  0  0  0  0  0  0
   -0.3776   -0.8611    1.8010 H   0  0  0  0  0  0  0  0  0  0  0  0
   -0.1895   -0.5365   -0.3756 C   0  0  0  0  0  0  0  0  0  0  0  0
   -0.6714   -1.3183   -0.9739 H   0  0  0  0  0  0  0  0  0  0  0  0
   -0.3338    0.3951   -0.9350 H   0  0  0  0  0  0  0  0  0  0  0  0
    1.3247   -0.8690   -0.3636 C   0  0  0  0  0  0  0  0  0  0  0  0
    1.4680   -1.7761   -0.9618 H   0  0  0  0  0  0  0  0  0  0  0  0
    1.8472   -0.0579   -0.8834 H   0  0  0  0  0  0  0  0  0  0  0  0
    1.9957   -1.0789    1.0025 C   0  0  0  0  0  0  0  0  0  0  0  0
    1.9182   -0.1673    1.6043 H   0  0  0  0  0  0  0  0  0  0  0  0
    1.4891   -1.8962    1.5284 H   0  0  0  0  0  0  0  0  0  0  0  0
    3.4628   -1.4554    0.8032 C   0  0  0  0  0  0  0  0  0  0  0  0
    3.5239   -2.2868    0.0852 H   0  0  0  0  0  0  0  0  0  0  0  0
    4.0019   -0.6052    0.3597 H   0  0  0  0  0  0  0  0  0  0  0  0
    4.0455   -1.8471    2.1055 N   0  3  0  0  0  0  0  0  0  0  0  0
    3.5121   -2.6231    2.5051 H   0  0  0  0  0  0  0  0  0  0  0  0
    5.0162   -2.1437    1.9815 H   0  0  0  0  0  0  0  0  0  0  0  0
    4.0201   -1.0587    2.7540 H   0  0  0  0  0  0  0  0  0  0  0  0
   -1.2109    1.0439    1.3507 C   0  0  0  0  0  0  0  0  0  0  0  0
   -2.0801    1.6659    0.7560 O   0  0  0  0  0  0  0  0  0  0  0  0
   -0.4793    1.6759    2.3405 N   0  0  0  0  0  0  0  0  0  0  0  0
    0.0807    1.0892    2.9490 H   0  0  0  0  0  0  0  0  0  0  0  0
   -0.7767    3.0382    2.7764 C   0  0  0  0  0  0  0  0  0  0  0  0
   -1.7896    3.0972    3.1898 H   0  0  0  0  0  0  0  0  0  0  0  0
   -0.0687    3.3554    3.5484 H   0  0  0  0  0  0  0  0  0  0  0  0
   -0.7014    3.7361    1.9352 H   0  0  0  0  0  0  0  0  0  0  0  0
  1  2  1  0  0  0  0
  2  3  1  0  0  0  0
  2  4  1  0  0  0  0
  2  5  1  0  0  0  0
  5  6  2  0  0  0  0
  5  7  1  0  0  0  0
  7  8  1  0  0  0  0
  7  9  1  0  0  0  0
  9 10  1  0  0  0  0
  9 11  1  0  0  0  0
  9 27  1  0  0  0  0
 11 12  1  0  0  0  0
 11 13  1  0  0  0  0
 11 14  1  0  0  0  0
 14 15  1  0  0  0  0
 14 16  1  0  0  0  0
 14 17  1  0  0  0  0
 17 18  1  0  0  0  0
 17 19  1  0  0  0  0
 17 20  1  0  0  0  0
 20 21  1  0  0  0  0
 20 22  1  0  0  0  0
 20 23  1  0  0  0  0
 23 24  1  0  0  0  0
 23 25  1  0  0  0  0
 23 26  1  0  0  0  0
 27 28  2  0  0  0  0
 27 29  1  0  0  0  0
 29 30  1  0  0  0  0
 29 31  1  0  0  0  0
 31 32  1  0  0  0  0
 31 33  1  0  0  0  0
 31 34  1  0  0  0  0
M  CHG  1  23   1
M  END
$$$$

  -OEChem-02102214153D

 34 33  0     1  0  0  0  0  0999 V2000
   -3.7347   -4.0345    1.8309 H   0  0  0  0  0  0  0  0  0  0  0  0
   -3.7648   -3.0402    1.3765 C   0  0  0  0  0  0  0  0  0  0  0  0
   -4.4595   -2.4154    1.9432 H   0  0  0  0  0  0  0  0  0  0  0  0
   -4.1266   -3.1338    0.3496 H   0  0  0  0  0  0  0  0  0  0  0  0
   -2.3823   -2.4173    1.3851 C   0  0  0  0  0  0  0  0  0  0  0  0
   -1.4293   -3.0233    1.8599 O   0  0  0  0  0  0  0  0  0  0  0  0
   -2.1820   -1.1638    0.8429 N   0  0  0  0  0  0  0  0  0  0  0  0
   -3.0042   -0.6440    0.5325 H   0  0  0  0  0  0  0  0  0  0  0  0
   -0.9214   -0.4198    0.9677 C   0  0  1  0  0  0  0  0  0  0  0  0
   -0.3516   -0.8366    1.7967 H   0  0  0  0  0  0  0  0  0  0  0  0
   -0.1629   -0.5171   -0.3855 C   0  0  0  0  0  0  0  0  0  0  0  0
   -0.6291   -1.3204   -0.9672 H   0  0  0  0  0  0  0  0  0  0  0  0
   -0.3244    0.4012   -0.9619 H   0  0  0  0  0  0  0  0  0  0  0  0
    1.3537   -0.8328   -0.3653 C   0  0  0  0  0  0  0  0  0  0  0  0
    1.5561   -1.5466   -1.1720 H   0  0  0  0  0  0  0  0  0  0  0  0
    1.8941    0.0886   -0.6099 H   0  0  0  0  0  0  0  0  0  0  0  0
    1.9221   -1.3802    0.9537 C   0  0  0  0  0  0  0  0  0  0  0  0
    1.9104   -0.6007    1.7230 H   0  0  0  0  0  0  0  0  0  0  0  0
    1.2939   -2.2144    1.2876 H   0  0  0  0  0  0  0  0  0  0  0  0
    3.3462   -1.8909    0.7484 C   0  0  0  0  0  0  0  0  0  0  0  0
    3.3655   -2.5561   -0.1276 H   0  0  0  0  0  0  0  0  0  0  0  0
    4.0132   -1.0445    0.5280 H   0  0  0  0  0  0  0  0  0  0  0  0
    3.7692   -2.6183    1.9653 N   0  3  0  0  0  0  0  0  0  0  0  0
    3.1076   -3.3732    2.1642 H   0  0  0  0  0  0  0  0  0  0  0  0
    4.6991   -3.0210    1.8303 H   0  0  0  0  0  0  0  0  0  0  0  0
    3.7947   -1.9831    2.7645 H   0  0  0  0  0  0  0  0  0  0  0  0
   -1.2016    1.0520    1.3383 C   0  0  0  0  0  0  0  0  0  0  0  0
   -2.0972    1.6544    0.7625 O   0  0  0  0  0  0  0  0  0  0  0  0
   -0.4739    1.6955    2.3235 N   0  0  0  0  0  0  0  0  0  0  0  0
    0.1449    1.1317    2.8959 H   0  0  0  0  0  0  0  0  0  0  0  0
   -0.7834    3.0530    2.7642 C   0  0  0  0  0  0  0  0  0  0  0  0
   -1.7927    3.0991    3.1877 H   0  0  0  0  0  0  0  0  0  0  0  0
   -0.0720    3.3771    3.5301 H   0  0  0  0  0  0  0  0  0  0  0  0
   -0.7243    3.7526    1.9233 H   0  0  0  0  0  0  0  0  0  0  0  0
  1  2  1  0  0  0  0
  2  3  1  0  0  0  0
  2  4  1  0  0  0  0
  2  5  1  0  0  0  0
  5  6  2  0  0  0  0
  5  7  1  0  0  0  0
  7  8  1  0  0  0  0
  7  9  1  0  0  0  0
  9 10  1  0  0  0  0
  9 11  1  0  0  0  0
  9 27  1  0  0  0  0
 11 12  1  0  0  0  0
 11 13  1  0  0  0  0
 11 14  1  0  0  0  0
 14 15  1  0  0  0  0
 14 16  1  0  0  0  0
 14 17  1  0  0  0  0
 17 18  1  0  0  0  0
 17 19  1  0  0  0  0
 17 20  1  0  0  0  0
 20 21  1  0  0  0  0
 20 22  1  0  0  0  0
 20 23  1  0  0  0  0
 23 24  1  0  0  0  0
 23 25  1  0  0  0  0
 23 26  1  0  0  0  0
 27 28  2  0  0  0  0
 27 29  1  0  0  0  0
 29 30  1  0  0  0  0
 29 31  1  0  0  0  0
 31 32  1  0  0  0  0
 31 33  1  0  0  0  0
 31 34  1  0  0  0  0
M  CHG  1  23   1
M  END
$$$$

  -OEChem-02102214153D

 34 33  0     1  0  0  0  0  0999 V2000
   -3.6734   -4.0563    1.8313 H   0  0  0  0  0  0  0  0  0  0  0  0
   -3.7119   -3.0582    1.3861 C   0  0  0  0  0  0  0  0  0  0  0  0
   -4.3962   -2.4386    1.9713 H   0  0  0  0  0  0  0  0  0  0  0  0
   -4.0931   -3.1429    0.3653 H   0  0  0  0  0  0  0  0  0  0  0  0
   -2.3293   -2.4348    1.3740 C   0  0  0  0  0  0  0  0  0  0  0  0
   -1.3662   -3.0484    1.8187 O   0  0  0  0  0  0  0  0  0  0  0  0
   -2.1408   -1.1773    0.8373 N   0  0  0  0  0  0  0  0  0  0  0  0
   -2.9717   -0.6567    0.5516 H   0  0  0  0  0  0  0  0  0  0  0  0
   -0.8876   -0.4199    0.9595 C   0  0  1  0  0  0  0  0  0  0  0  0
   -0.3078   -0.8312    1.7849 H   0  0  0  0  0  0  0  0  0  0  0  0
   -0.1294   -0.5017   -0.3934 C   0  0  0  0  0  0  0  0  0  0  0  0
   -0.5809   -1.3117   -0.9770 H   0  0  0  0  0  0  0  0  0  0  0  0
   -0.2968    0.4163   -0.9685 H   0  0  0  0  0  0  0  0  0  0  0  0
    1.3878   -0.7999   -0.3512 C   0  0  0  0  0  0  0  0  0  0  0  0
    1.6588   -1.2871   -1.2947 H   0  0  0  0  0  0  0  0  0  0  0  0
    1.9289    0.1522   -0.3112 H   0  0  0  0  0  0  0  0  0  0  0  0
    1.8456   -1.6655    0.8350 C   0  0  0  0  0  0  0  0  0  0  0  0
    1.8826   -1.0641    1.7492 H   0  0  0  0  0  0  0  0  0  0  0  0
    1.1190   -2.4731    0.9779 H   0  0  0  0  0  0  0  0  0  0  0  0
    3.2147   -2.2849    0.5708 C   0  0  0  0  0  0  0  0  0  0  0  0
    3.2071   -2.7692   -0.4170 H   0  0  0  0  0  0  0  0  0  0  0  0
    3.9805   -1.4957    0.5410 H   0  0  0  0  0  0  0  0  0  0  0  0
    3.4871   -3.2730    1.6376 N   0  3  0  0  0  0  0  0  0  0  0  0
    2.7210   -3.9503    1.6841 H   0  0  0  0  0  0  0  0  0  0  0  0
    4.3586   -3.7710    1.4448 H   0  0  0  0  0  0  0  0  0  0  0  0
    3.5644   -2.8033    2.5412 H   0  0  0  0  0  0  0  0  0  0  0  0
   -1.1834    1.0475    1.3364 C   0  0  0  0  0  0  0  0  0  0  0  0
   -2.0996    1.6339    0.7766 O   0  0  0  0  0  0  0  0  0  0  0  0
   -0.4608    1.6984    2.3202 N   0  0  0  0  0  0  0  0  0  0  0  0
    0.2051    1.1553    2.8591 H   0  0  0  0  0  0  0  0  0  0  0  0
   -0.7803    3.0521    2.7655 C   0  0  0  0  0  0  0  0  0  0  0  0
   -1.7874    3.0876    3.1952 H   0  0  0  0  0  0  0  0  0  0  0  0
   -0.0670    3.3810    3.5278 H   0  0  0  0  0  0  0  0  0  0  0  0
   -0.7333    3.7544    1.9260 H   0  0  0  0  0  0  0  0  0  0  0  0
  1  2  1  0  0  0  0
  2  3  1  0  0  0  0
  2  4  1  0  0  0  0
  2  5  1  0  0  0  0
  5  6  2  0  0  0  0
  5  7  1  0  0  0  0
  7  8  1  0  0  0  0
  7  9  1  0  0  0  0
  9 10  1  0  0  0  0
  9 11  1  0  0  0  0
  9 27  1  0  0  0  0
 11 12  1  0  0  0  0
 11 13  1  0  0  0  0
 11 14  1  0  0  0  0
 14 15  1  0  0  0  0
 14 16  1  0  0  0  0
 14 17  1  0  0  0  0
 17 18  1  0  0  0  0
 17 19  1  0  0  0  0
 17 20  1  0  0  0  0
 20 21  1  0  0  0  0
 20 22  1  0  0  0  0
 20 23  1  0  0  0  0
 23 24  1  0  0  0  0
 23 25  1  0  0  0  0
 23 26  1  0  0  0  0
 27 28  2  0  0  0  0
 27 29  1  0  0  0  0
 29 30  1  0  0  0  0
 29 31  1  0  0  0  0
 31 32  1  0  0  0  0
 31 33  1  0  0  0  0
 31 34  1  0  0  0  0
M  CHG  1  23   1
M  END
$$$$

  -OEChem-02102214153D

 34 33  0     1  0  0  0  0  0999 V2000
   -3.6498   -4.0668    1.8190 H   0  0  0  0  0  0  0  0  0  0  0  0
   -3.6895   -3.0634    1.3860 C   0  0  0  0  0  0  0  0  0  0  0  0
   -4.3541   -2.4443    1.9941 H   0  0  0  0  0  0  0  0  0  0  0  0
   -4.0953   -3.1327    0.3736 H   0  0  0  0  0  0  0  0  0  0  0  0
   -2.3024   -2.4515    1.3488 C   0  0  0  0  0  0  0  0  0  0  0  0
   -1.3342   -3.0802    1.7604 O   0  0  0  0  0  0  0  0  0  0  0  0
   -2.1178   -1.1892    0.8224 N   0  0  0  0  0  0  0  0  0  0  0  0
   -2.9534   -0.6601    0.5673 H   0  0  0  0  0  0  0  0  0  0  0  0
   -0.8637   -0.4325    0.9398 C   0  0  1  0  0  0  0  0  0  0  0  0
   -0.2721   -0.8497    1.7544 H   0  0  0  0  0  0  0  0  0  0  0  0
   -0.1123   -0.5059   -0.4148 C   0  0  0  0  0  0  0  0  0  0  0  0
   -0.5626   -1.3035   -1.0166 H   0  0  0  0  0  0  0  0  0  0  0  0
   -0.2656    0.4243   -0.9738 H   0  0  0  0  0  0  0  0  0  0  0  0
    1.4002   -0.8042   -0.3379 C   0  0  0  0  0  0  0  0  0  0  0  0
    1.7448   -1.0548   -1.3474 H   0  0  0  0  0  0  0  0  0  0  0  0
    1.9316    0.1017   -0.0254 H   0  0  0  0  0  0  0  0  0  0  0  0
    1.7446   -1.9486    0.6327 C   0  0  0  0  0  0  0  0  0  0  0  0
    1.7429   -1.5844    1.6649 H   0  0  0  0  0  0  0  0  0  0  0  0
    0.9780   -2.7261    0.5408 H   0  0  0  0  0  0  0  0  0  0  0  0
    3.1038   -2.5623    0.3160 C   0  0  0  0  0  0  0  0  0  0  0  0
    3.1399   -2.8334   -0.7494 H   0  0  0  0  0  0  0  0  0  0  0  0
    3.8969   -1.8209    0.4922 H   0  0  0  0  0  0  0  0  0  0  0  0
    3.2708   -3.7569    1.1722 N   0  3  0  0  0  0  0  0  0  0  0  0
    2.4855   -4.3970    1.0277 H   0  0  0  0  0  0  0  0  0  0  0  0
    4.1411   -4.2406    0.9423 H   0  0  0  0  0  0  0  0  0  0  0  0
    3.2904   -3.4830    2.1562 H   0  0  0  0  0  0  0  0  0  0  0  0
   -1.1558    1.0312    1.3327 C   0  0  0  0  0  0  0  0  0  0  0  0
   -2.0829    1.6194    0.7932 O   0  0  0  0  0  0  0  0  0  0  0  0
   -0.4234    1.6726    2.3153 N   0  0  0  0  0  0  0  0  0  0  0  0
    0.2608    1.1294    2.8313 H   0  0  0  0  0  0  0  0  0  0  0  0
   -0.7328    3.0240    2.7740 C   0  0  0  0  0  0  0  0  0  0  0  0
   -1.7350    3.0607    3.2147 H   0  0  0  0  0  0  0  0  0  0  0  0
   -0.0104    3.3438    3.5314 H   0  0  0  0  0  0  0  0  0  0  0  0
   -0.6915    3.7325    1.9394 H   0  0  0  0  0  0  0  0  0  0  0  0
  1  2  1  0  0  0  0
  2  3  1  0  0  0  0
  2  4  1  0  0  0  0
  2  5  1  0  0  0  0
  5  6  2  0  0  0  0
  5  7  1  0  0  0  0
  7  8  1  0  0  0  0
  7  9  1  0  0  0  0
  9 10  1  0  0  0  0
  9 11  1  0  0  0  0
  9 27  1  0  0  0  0
 11 12  1  0  0  0  0
 11 13  1  0  0  0  0
 11 14  1  0  0  0  0
 14 15  1  0  0  0  0
 14 16  1  0  0  0  0
 14 17  1  0  0  0  0
 17 18  1  0  0  0  0
 17 19  1  0  0  0  0
 17 20  1  0  0  0  0
 20 21  1  0  0  0  0
 20 22  1  0  0  0  0
 20 23  1  0  0  0  0
 23 24  1  0  0  0  0
 23 25  1  0  0  0  0
 23 26  1  0  0  0  0
 27 28  2  0  0  0  0
 27 29  1  0  0  0  0
 29 30  1  0  0  0  0
 29 31  1  0  0  0  0
 31 32  1  0  0  0  0
 31 33  1  0  0  0  0
 31 34  1  0  0  0  0
M  CHG  1  23   1
M  END
$$$$

  -OEChem-02102214153D

 34 33  0     1  0  0  0  0  0999 V2000
   -3.6260   -4.0703    1.8238 H   0  0  0  0  0  0  0  0  0  0  0  0
   -3.6768   -3.0612    1.4054 C   0  0  0  0  0  0  0  0  0  0  0  0
   -4.3027   -2.4432    2.0541 H   0  0  0  0  0  0  0  0  0  0  0  0
   -4.1338   -3.1132    0.4140 H   0  0  0  0  0  0  0  0  0  0  0  0
   -2.2866   -2.4641    1.3053 C   0  0  0  0  0  0  0  0  0  0  0  0
   -1.3039   -3.1175    1.6379 O   0  0  0  0  0  0  0  0  0  0  0  0
   -2.1130   -1.1925    0.7982 N   0  0  0  0  0  0  0  0  0  0  0  0
   -2.9533   -0.6465    0.6010 H   0  0  0  0  0  0  0  0  0  0  0  0
   -0.8499   -0.4500    0.9004 C   0  0  1  0  0  0  0  0  0  0  0  0
   -0.2370   -0.8844    1.6909 H   0  0  0  0  0  0  0  0  0  0  0  0
   -0.1324   -0.5166   -0.4693 C   0  0  0  0  0  0  0  0  0  0  0  0
   -0.6045   -1.2851   -1.0916 H   0  0  0  0  0  0  0  0  0  0  0  0
   -0.2651    0.4341   -0.9983 H   0  0  0  0  0  0  0  0  0  0  0  0
    1.3712   -0.8357   -0.3788 C   0  0  0  0  0  0  0  0  0  0  0  0
    1.7798   -0.8452   -1.3954 H   0  0  0  0  0  0  0  0  0  0  0  0
    1.8872   -0.0466    0.1788 H   0  0  0  0  0  0  0  0  0  0  0  0
    1.6130   -2.2017    0.2923 C   0  0  0  0  0  0  0  0  0  0  0  0
    1.4410   -2.1335    1.3704 H   0  0  0  0  0  0  0  0  0  0  0  0
    0.8975   -2.9250   -0.1156 H   0  0  0  0  0  0  0  0  0  0  0  0
    3.0286   -2.7100    0.0495 C   0  0  0  0  0  0  0  0  0  0  0  0
    3.2295   -2.7347   -1.0316 H   0  0  0  0  0  0  0  0  0  0  0  0
    3.7525   -2.0166    0.5017 H   0  0  0  0  0  0  0  0  0  0  0  0
    3.1253   -4.0616    0.6433 N   0  3  0  0  0  0  0  0  0  0  0  0
    2.4481   -4.6845    0.1970 H   0  0  0  0  0  0  0  0  0  0  0  0
    4.0648   -4.4422    0.5136 H   0  0  0  0  0  0  0  0  0  0  0  0
    2.9163   -4.0187    1.6430 H   0  0  0  0  0  0  0  0  0  0  0  0
   -1.1182    1.0081    1.3311 C   0  0  0  0  0  0  0  0  0  0  0  0
   -2.0552    1.6134    0.8285 O   0  0  0  0  0  0  0  0  0  0  0  0
   -0.3573    1.6244    2.3082 N   0  0  0  0  0  0  0  0  0  0  0  0
    0.3386    1.0679    2.7941 H   0  0  0  0  0  0  0  0  0  0  0  0
   -0.6411    2.9712    2.7965 C   0  0  0  0  0  0  0  0  0  0  0  0
   -1.6287    3.0083    3.2687 H   0  0  0  0  0  0  0  0  0  0  0  0
    0.1070    3.2746    3.5354 H   0  0  0  0  0  0  0  0  0  0  0  0
   -0.6201    3.6917    1.9715 H   0  0  0  0  0  0  0  0  0  0  0  0
  1  2  1  0  0  0  0
  2  3  1  0  0  0  0
  2  4  1  0  0  0  0
  2  5  1  0  0  0  0
  5  6  2  0  0  0  0
  5  7  1  0  0  0  0
  7  8  1  0  0  0  0
  7  9  1  0  0  0  0
  9 10  1  0  0  0  0
  9 11  1  0  0  0  0
  9 27  1  0  0  0  0
 11 12  1  0  0  0  0
 11 13  1  0  0  0  0
 11 14  1  0  0  0  0
 14 15  1  0  0  0  0
 14 16  1  0  0  0  0
 14 17  1  0  0  0  0
 17 18  1  0  0  0  0
 17 19  1  0  0  0  0
 17 20  1  0  0  0  0
 20 21  1  0  0  0  0
 20 22  1  0  0  0  0
 20 23  1  0  0  0  0
 23 24  1  0  0  0  0
 23 25  1  0  0  0  0
 23 26  1  0  0  0  0
 27 28  2  0  0  0  0
 27 29  1  0  0  0  0
 29 30  1  0  0  0  0
 29 31  1  0  0  0  0
 31 32  1  0  0  0  0
 31 33  1  0  0  0  0
 31 34  1  0  0  0  0
M  CHG  1  23   1
M  END
$$$$

  -OEChem-02102214153D

 34 33  0     1  0  0  0  0  0999 V2000
   -3.6393   -4.0798    1.8308 H   0  0  0  0  0  0  0  0  0  0  0  0
   -3.6863   -3.0703    1.4131 C   0  0  0  0  0  0  0  0  0  0  0  0
   -4.2916   -2.4451    2.0743 H   0  0  0  0  0  0  0  0  0  0  0  0
   -4.1637   -3.1169    0.4312 H   0  0  0  0  0  0  0  0  0  0  0  0
   -2.2915   -2.4897    1.2842 C   0  0  0  0  0  0  0  0  0  0  0  0
   -1.3099   -3.1650    1.5694 O   0  0  0  0  0  0  0  0  0  0  0  0
   -2.1192   -1.2072    0.8051 N   0  0  0  0  0  0  0  0  0  0  0  0
   -2.9610   -0.6503    0.6489 H   0  0  0  0  0  0  0  0  0  0  0  0
   -0.8457   -0.4756    0.8572 C   0  0  1  0  0  0  0  0  0  0  0  0
   -0.1888   -0.9438    1.5947 H   0  0  0  0  0  0  0  0  0  0  0  0
   -0.1997   -0.5208   -0.5469 C   0  0  0  0  0  0  0  0  0  0  0  0
   -0.7084   -1.2593   -1.1764 H   0  0  0  0  0  0  0  0  0  0  0  0
   -0.3353    0.4500   -1.0373 H   0  0  0  0  0  0  0  0  0  0  0  0
    1.3009   -0.8524   -0.4956 C   0  0  0  0  0  0  0  0  0  0  0  0
    1.7459   -0.6147   -1.4683 H   0  0  0  0  0  0  0  0  0  0  0  0
    1.8003   -0.2338    0.2581 H   0  0  0  0  0  0  0  0  0  0  0  0
    1.5012   -2.3479   -0.1971 C   0  0  0  0  0  0  0  0  0  0  0  0
    1.0869   -2.5831    0.7871 H   0  0  0  0  0  0  0  0  0  0  0  0
    0.9535   -2.9391   -0.9398 H   0  0  0  0  0  0  0  0  0  0  0  0
    2.9724   -2.7415   -0.2177 C   0  0  0  0  0  0  0  0  0  0  0  0
    3.3956   -2.5377   -1.2123 H   0  0  0  0  0  0  0  0  0  0  0  0
    3.5261   -2.1269    0.5069 H   0  0  0  0  0  0  0  0  0  0  0  0
    3.0539   -4.1788    0.1228 N   0  3  0  0  0  0  0  0  0  0  0  0
    2.5970   -4.7348   -0.6030 H   0  0  0  0  0  0  0  0  0  0  0  0
    4.0295   -4.4717    0.2028 H   0  0  0  0  0  0  0  0  0  0  0  0
    2.5785   -4.3516    1.0121 H   0  0  0  0  0  0  0  0  0  0  0  0
   -1.0737    0.9731    1.3382 C   0  0  0  0  0  0  0  0  0  0  0  0
   -2.0301    1.6002    0.9038 O   0  0  0  0  0  0  0  0  0  0  0  0
   -0.2521    1.5547    2.2869 N   0  0  0  0  0  0  0  0  0  0  0  0
    0.4579    0.9749    2.7226 H   0  0  0  0  0  0  0  0  0  0  0  0
   -0.4999    2.8851    2.8355 C   0  0  0  0  0  0  0  0  0  0  0  0
   -1.4665    2.9147    3.3499 H   0  0  0  0  0  0  0  0  0  0  0  0
    0.2817    3.1532    3.5532 H   0  0  0  0  0  0  0  0  0  0  0  0
   -0.5052    3.6357    2.0375 H   0  0  0  0  0  0  0  0  0  0  0  0
  1  2  1  0  0  0  0
  2  3  1  0  0  0  0
  2  4  1  0  0  0  0
  2  5  1  0  0  0  0
  5  6  2  0  0  0  0
  5  7  1  0  0  0  0
  7  8  1  0  0  0  0
  7  9  1  0  0  0  0
  9 10  1  0  0  0  0
  9 11  1  0  0  0  0
  9 27  1  0  0  0  0
 11 12  1  0  0  0  0
 11 13  1  0  0  0  0
 11 14  1  0  0  0  0
 14 15  1  0  0  0  0
 14 16  1  0  0  0  0
 14 17  1  0  0  0  0
 17 18  1  0  0  0  0
 17 19  1  0  0  0  0
 17 20  1  0  0  0  0
 20 21  1  0  0  0  0
 20 22  1  0  0  0  0
 20 23  1  0  0  0  0
 23 24  1  0  0  0  0
 23 25  1  0  0  0  0
 23 26  1  0  0  0  0
 27 28  2  0  0  0  0
 27 29  1  0  0  0  0
 29 30  1  0  0  0  0
 29 31  1  0  0  0  0
 31 32  1  0  0  0  0
 31 33  1  0  0  0  0
 31 34  1  0  0  0  0
M  CHG  1  23   1
M  END
$$$$

  -OEChem-02102214153D

 34 33  0     1  0  0  0  0  0999 V2000
   -3.5967   -4.1107    1.8230 H   0  0  0  0  0  0  0  0  0  0  0  0
   -3.6594   -3.0985    1.4138 C   0  0  0  0  0  0  0  0  0  0  0  0
   -4.2491   -2.4805    2.0956 H   0  0  0  0  0  0  0  0  0  0  0  0
   -4.1635   -3.1400    0.4451 H   0  0  0  0  0  0  0  0  0  0  0  0
   -2.2707   -2.5113    1.2508 C   0  0  0  0  0  0  0  0  0  0  0  0
   -1.2793   -3.1912    1.4852 O   0  0  0  0  0  0  0  0  0  0  0  0
   -2.1161   -1.2183    0.7945 N   0  0  0  0  0  0  0  0  0  0  0  0
   -2.9638   -0.6605    0.6787 H   0  0  0  0  0  0  0  0  0  0  0  0
   -0.8443   -0.4824    0.8258 C   0  0  1  0  0  0  0  0  0  0  0  0
   -0.1658   -0.9724    1.5309 H   0  0  0  0  0  0  0  0  0  0  0  0
   -0.2347   -0.5031   -0.5937 C   0  0  0  0  0  0  0  0  0  0  0  0
   -0.7601   -1.2236   -1.2307 H   0  0  0  0  0  0  0  0  0  0  0  0
   -0.3774    0.4798   -1.0573 H   0  0  0  0  0  0  0  0  0  0  0  0
    1.2681   -0.8298   -0.5635 C   0  0  0  0  0  0  0  0  0  0  0  0
    1.7528   -0.3541   -1.4235 H   0  0  0  0  0  0  0  0  0  0  0  0
    1.7341   -0.4247    0.3415 H   0  0  0  0  0  0  0  0  0  0  0  0
    1.4638   -2.3499   -0.6590 C   0  0  0  0  0  0  0  0  0  0  0  0
    0.8942   -2.8305    0.1424 H   0  0  0  0  0  0  0  0  0  0  0  0
    1.0667   -2.7098   -1.6147 H   0  0  0  0  0  0  0  0  0  0  0  0
    2.9312   -2.7405   -0.5295 C   0  0  0  0  0  0  0  0  0  0  0  0
    3.4987   -2.3319   -1.3785 H   0  0  0  0  0  0  0  0  0  0  0  0
    3.3478   -2.2978    0.3869 H   0  0  0  0  0  0  0  0  0  0  0  0
    3.0011   -4.2171   -0.4864 N   0  3  0  0  0  0  0  0  0  0  0  0
    2.6516   -4.6085   -1.3630 H   0  0  0  0  0  0  0  0  0  0  0  0
    3.9653   -4.5241   -0.3447 H   0  0  0  0  0  0  0  0  0  0  0  0
    2.4228   -4.5675    0.2817 H   0  0  0  0  0  0  0  0  0  0  0  0
   -1.0590    0.9555    1.3432 C   0  0  0  0  0  0  0  0  0  0  0  0
   -2.0254    1.5918    0.9459 O   0  0  0  0  0  0  0  0  0  0  0  0
   -0.2104    1.5186    2.2790 N   0  0  0  0  0  0  0  0  0  0  0  0
    0.5140    0.9318    2.6805 H   0  0  0  0  0  0  0  0  0  0  0  0
   -0.4387    2.8402    2.8563 C   0  0  0  0  0  0  0  0  0  0  0  0
   -1.3942    2.8662    3.3912 H   0  0  0  0  0  0  0  0  0  0  0  0
    0.3593    3.0908    3.5621 H   0  0  0  0  0  0  0  0  0  0  0  0
   -0.4557    3.6045    2.0717 H   0  0  0  0  0  0  0  0  0  0  0  0
  1  2  1  0  0  0  0
  2  3  1  0  0  0  0
  2  4  1  0  0  0  0
  2  5  1  0  0  0  0
  5  6  2  0  0  0  0
  5  7  1  0  0  0  0
  7  8  1  0  0  0  0
  7  9  1  0  0  0  0
  9 10  1  0  0  0  0
  9 11  1  0  0  0  0
  9 27  1  0  0  0  0
 11 12  1  0  0  0  0
 11 13  1  0  0  0  0
 11 14  1  0  0  0  0
 14 15  1  0  0  0  0
 14 16  1  0  0  0  0
 14 17  1  0  0  0  0
 17 18  1  0  0  0  0
 17 19  1  0  0  0  0
 17 20  1  0  0  0  0
 20 21  1  0  0  0  0
 20 22  1  0  0  0  0
 20 23  1  0  0  0  0
 23 24  1  0  0  0  0
 23 25  1  0  0  0  0
 23 26  1  0  0  0  0
 27 28  2  0  0  0  0
 27 29  1  0  0  0  0
 29 30  1  0  0  0  0
 29 31  1  0  0  0  0
 31 32  1  0  0  0  0
 31 33  1  0  0  0  0
 31 34  1  0  0  0  0
M  CHG  1  23   1
M  END
$$$$

  -OEChem-02102214153D

 34 33  0     1  0  0  0  0  0999 V2000
   -3.5412   -4.1186    1.8087 H   0  0  0  0  0  0  0  0  0  0  0  0
   -3.6263   -3.0989    1.4229 C   0  0  0  0  0  0  0  0  0  0  0  0
   -4.1832   -2.4959    2.1446 H   0  0  0  0  0  0  0  0  0  0  0  0
   -4.1770   -3.1228    0.4793 H   0  0  0  0  0  0  0  0  0  0  0  0
   -2.2486   -2.5045    1.2039 C   0  0  0  0  0  0  0  0  0  0  0  0
   -1.2439   -3.1864    1.3668 O   0  0  0  0  0  0  0  0  0  0  0  0
   -2.1174   -1.2042    0.7616 N   0  0  0  0  0  0  0  0  0  0  0  0
   -2.9702   -0.6461    0.6970 H   0  0  0  0  0  0  0  0  0  0  0  0
   -0.8492   -0.4632    0.7977 C   0  0  1  0  0  0  0  0  0  0  0  0
   -0.1746   -0.9600    1.5015 H   0  0  0  0  0  0  0  0  0  0  0  0
   -0.2437   -0.4889   -0.6226 C   0  0  0  0  0  0  0  0  0  0  0  0
   -0.7758   -1.2097   -1.2539 H   0  0  0  0  0  0  0  0  0  0  0  0
   -0.3910    0.4922   -1.0888 H   0  0  0  0  0  0  0  0  0  0  0  0
    1.2627   -0.8126   -0.5981 C   0  0  0  0  0  0  0  0  0  0  0  0
    1.7847   -0.1380   -1.2863 H   0  0  0  0  0  0  0  0  0  0  0  0
    1.6872   -0.6494    0.3980 H   0  0  0  0  0  0  0  0  0  0  0  0
    1.4784   -2.2615   -1.0579 C   0  0  0  0  0  0  0  0  0  0  0  0
    0.8297   -2.9160   -0.4637 H   0  0  0  0  0  0  0  0  0  0  0  0
    1.1867   -2.3619   -2.1093 H   0  0  0  0  0  0  0  0  0  0  0  0
    2.9294   -2.6919   -0.8739 C   0  0  0  0  0  0  0  0  0  0  0  0
    3.5754   -2.1061   -1.5442 H   0  0  0  0  0  0  0  0  0  0  0  0
    3.2443   -2.4745    0.1571 H   0  0  0  0  0  0  0  0  0  0  0  0
    3.0186   -4.1402   -1.1588 N   0  3  0  0  0  0  0  0  0  0  0  0
    2.7452   -4.3232   -2.1260 H   0  0  0  0  0  0  0  0  0  0  0  0
    3.9740   -4.4725   -1.0134 H   0  0  0  0  0  0  0  0  0  0  0  0
    2.3894   -4.6536   -0.5363 H   0  0  0  0  0  0  0  0  0  0  0  0
   -1.0616    0.9675    1.3346 C   0  0  0  0  0  0  0  0  0  0  0  0
   -2.0374    1.6030    0.9597 O   0  0  0  0  0  0  0  0  0  0  0  0
   -0.2084    1.5192    2.2730 N   0  0  0  0  0  0  0  0  0  0  0  0
    0.5213    0.9283    2.6591 H   0  0  0  0  0  0  0  0  0  0  0  0
   -0.4515    2.8209    2.8885 C   0  0  0  0  0  0  0  0  0  0  0  0
   -1.4092    2.8215    3.4205 H   0  0  0  0  0  0  0  0  0  0  0  0
    0.3412    3.0578    3.6050 H   0  0  0  0  0  0  0  0  0  0  0  0
   -0.4734    3.6079    2.1269 H   0  0  0  0  0  0  0  0  0  0  0  0
  1  2  1  0  0  0  0
  2  3  1  0  0  0  0
  2  4  1  0  0  0  0
  2  5  1  0  0  0  0
  5  6  2  0  0  0  0
  5  7  1  0  0  0  0
  7  8  1  0  0  0  0
  7  9  1  0  0  0  0
  9 10  1  0  0  0  0
  9 11  1  0  0  0  0
  9 27  1  0  0  0  0
 11 12  1  0  0  0  0
 11 13  1  0  0  0  0
 11 14  1  0  0  0  0
 14 15  1  0  0  0  0
 14 16  1  0  0  0  0
 14 17  1  0  0  0  0
 17 18  1  0  0  0  0
 17 19  1  0  0  0  0
 17 20  1  0  0  0  0
 20 21  1  0  0  0  0
 20 22  1  0  0  0  0
 20 23  1  0  0  0  0
 23 24  1  0  0  0  0
 23 25  1  0  0  0  0
 23 26  1  0  0  0  0
 27 28  2  0  0  0  0
 27 29  1  0  0  0  0
 29 30  1  0  0  0  0
 29 31  1  0  0  0  0
 31 32  1  0  0  0  0
 31 33  1  0  0  0  0
 31 34  1  0  0  0  0
M  CHG  1  23   1
M  END
$$$$

  -OEChem-02102214153D

 34 33  0     1  0  0  0  0  0999 V2000
   -3.6241   -4.0823    1.8258 H   0  0  0  0  0  0  0  0  0  0  0  0
   -3.6934   -3.0681    1.4227 C   0  0  0  0  0  0  0  0  0  0  0  0
   -4.2547   -2.4488    2.1269 H   0  0  0  0  0  0  0  0  0  0  0  0
   -4.2304   -3.1022    0.4717 H   0  0  0  0  0  0  0  0  0  0  0  0
   -2.3066   -2.4905    1.2153 C   0  0  0  0  0  0  0  0  0  0  0  0
   -1.3119   -3.1810    1.3944 O   0  0  0  0  0  0  0  0  0  0  0  0
   -2.1548   -1.1955    0.7645 N   0  0  0  0  0  0  0  0  0  0  0  0
   -3.0008   -0.6296    0.6843 H   0  0  0  0  0  0  0  0  0  0  0  0
   -0.8794   -0.4669    0.8147 C   0  0  1  0  0  0  0  0  0  0  0  0
   -0.2275   -0.9663    1.5373 H   0  0  0  0  0  0  0  0  0  0  0  0
   -0.2463   -0.5091   -0.5936 C   0  0  0  0  0  0  0  0  0  0  0  0
   -0.7751   -1.2458   -1.2089 H   0  0  0  0  0  0  0  0  0  0  0  0
   -0.3908    0.4590   -1.0868 H   0  0  0  0  0  0  0  0  0  0  0  0
    1.2599   -0.8442   -0.5593 C   0  0  0  0  0  0  0  0  0  0  0  0
    1.8197   -0.0146   -1.0059 H   0  0  0  0  0  0  0  0  0  0  0  0
    1.6184   -0.9594    0.4686 H   0  0  0  0  0  0  0  0  0  0  0  0
    1.5316   -2.1320   -1.3479 C   0  0  0  0  0  0  0  0  0  0  0  0
    0.9033   -2.9331   -0.9396 H   0  0  0  0  0  0  0  0  0  0  0  0
    1.2557   -1.9848   -2.3980 H   0  0  0  0  0  0  0  0  0  0  0  0
    2.9993   -2.5334   -1.2432 C   0  0  0  0  0  0  0  0  0  0  0  0
    3.6249   -1.7583   -1.7097 H   0  0  0  0  0  0  0  0  0  0  0  0
    3.2850   -2.5888   -0.1825 H   0  0  0  0  0  0  0  0  0  0  0  0
    3.1736   -3.8429   -1.9073 N   0  3  0  0  0  0  0  0  0  0  0  0
    2.9090   -3.7730   -2.8916 H   0  0  0  0  0  0  0  0  0  0  0  0
    4.1481   -4.1446   -1.8446 H   0  0  0  0  0  0  0  0  0  0  0  0
    2.5798   -4.5419   -1.4547 H   0  0  0  0  0  0  0  0  0  0  0  0
   -1.0749    0.9716    1.3348 C   0  0  0  0  0  0  0  0  0  0  0  0
   -2.0271    1.6253    0.9316 O   0  0  0  0  0  0  0  0  0  0  0  0
   -0.2236    1.5151    2.2797 N   0  0  0  0  0  0  0  0  0  0  0  0
    0.4809    0.9089    2.6887 H   0  0  0  0  0  0  0  0  0  0  0  0
   -0.4422    2.8306    2.8742 C   0  0  0  0  0  0  0  0  0  0  0  0
   -1.4012    2.8589    3.4029 H   0  0  0  0  0  0  0  0  0  0  0  0
    0.3531    3.0616    3.5897 H   0  0  0  0  0  0  0  0  0  0  0  0
   -0.4452    3.6068    2.1012 H   0  0  0  0  0  0  0  0  0  0  0  0
  1  2  1  0  0  0  0
  2  3  1  0  0  0  0
  2  4  1  0  0  0  0
  2  5  1  0  0  0  0
  5  6  2  0  0  0  0
  5  7  1  0  0  0  0
  7  8  1  0  0  0  0
  7  9  1  0  0  0  0
  9 10  1  0  0  0  0
  9 11  1  0  0  0  0
  9 27  1  0  0  0  0
 11 12  1  0  0  0  0
 11 13  1  0  0  0  0
 11 14  1  0  0  0  0
 14 15  1  0  0  0  0
 14 16  1  0  0  0  0
 14 17  1  0  0  0  0
 17 18  1  0  0  0  0
 17 19  1  0  0  0  0
 17 20  1  0  0  0  0
 20 21  1  0  0  0  0
 20 22  1  0  0  0  0
 20 23  1  0  0  0  0
 23 24  1  0  0  0  0
 23 25  1  0  0  0  0
 23 26  1  0  0  0  0
 27 28  2  0  0  0  0
 27 29  1  0  0  0  0
 29 30  1  0  0  0  0
 29 31  1  0  0  0  0
 31 32  1  0  0  0  0
 31 33  1  0  0  0  0
 31 34  1  0  0  0  0
M  CHG  1  23   1
M  END
$$$$

  -OEChem-02102214153D

 34 33  0     1  0  0  0  0  0999 V2000
   -3.6861   -4.0558    1.8440 H   0  0  0  0  0  0  0  0  0  0  0  0
   -3.7405   -3.0450    1.4300 C   0  0  0  0  0  0  0  0  0  0  0  0
   -4.3079   -2.4143    2.1190 H   0  0  0  0  0  0  0  0  0  0  0  0
   -4.2623   -3.0844    0.4707 H   0  0  0  0  0  0  0  0  0  0  0  0
   -2.3454   -2.4811    1.2400 C   0  0  0  0  0  0  0  0  0  0  0  0
   -1.3610   -3.1754    1.4518 O   0  0  0  0  0  0  0  0  0  0  0  0
   -2.1745   -1.1923    0.7787 N   0  0  0  0  0  0  0  0  0  0  0  0
   -3.0137   -0.6191    0.6835 H   0  0  0  0  0  0  0  0  0  0  0  0
   -0.8910   -0.4772    0.8289 C   0  0  1  0  0  0  0  0  0  0  0  0
   -0.2455   -0.9753    1.5580 H   0  0  0  0  0  0  0  0  0  0  0  0
   -0.2501   -0.5240   -0.5771 C   0  0  0  0  0  0  0  0  0  0  0  0
   -0.7776   -1.2780   -1.1721 H   0  0  0  0  0  0  0  0  0  0  0  0
   -0.3966    0.4322   -1.0922 H   0  0  0  0  0  0  0  0  0  0  0  0
    1.2530   -0.8722   -0.5428 C   0  0  0  0  0  0  0  0  0  0  0  0
    1.8387    0.0411   -0.6968 H   0  0  0  0  0  0  0  0  0  0  0  0
    1.5331   -1.2817    0.4333 H   0  0  0  0  0  0  0  0  0  0  0  0
    1.5912   -1.9165   -1.6152 C   0  0  0  0  0  0  0  0  0  0  0  0
    0.9778   -2.8099   -1.4487 H   0  0  0  0  0  0  0  0  0  0  0  0
    1.3480   -1.5155   -2.6055 H   0  0  0  0  0  0  0  0  0  0  0  0
    3.0691   -2.2914   -1.5494 C   0  0  0  0  0  0  0  0  0  0  0  0
    3.6802   -1.4005   -1.7556 H   0  0  0  0  0  0  0  0  0  0  0  0
    3.3125   -2.6242   -0.5294 H   0  0  0  0  0  0  0  0  0  0  0  0
    3.3324   -3.3635   -2.5334 N   0  3  0  0  0  0  0  0  0  0  0  0
    3.0986   -3.0398   -3.4740 H   0  0  0  0  0  0  0  0  0  0  0  0
    4.3188   -3.6304   -2.5090 H   0  0  0  0  0  0  0  0  0  0  0  0
    2.7617   -4.1831   -2.3145 H   0  0  0  0  0  0  0  0  0  0  0  0
   -1.0767    0.9670    1.3353 C   0  0  0  0  0  0  0  0  0  0  0  0
   -2.0121    1.6316    0.9106 O   0  0  0  0  0  0  0  0  0  0  0  0
   -0.2256    1.5098    2.2804 N   0  0  0  0  0  0  0  0  0  0  0  0
    0.4593    0.8947    2.7095 H   0  0  0  0  0  0  0  0  0  0  0  0
   -0.4325    2.8343    2.8586 C   0  0  0  0  0  0  0  0  0  0  0  0
   -1.3913    2.8779    3.3864 H   0  0  0  0  0  0  0  0  0  0  0  0
    0.3649    3.0669    3.5712 H   0  0  0  0  0  0  0  0  0  0  0  0
   -0.4283    3.6004    2.0756 H   0  0  0  0  0  0  0  0  0  0  0  0
  1  2  1  0  0  0  0
  2  3  1  0  0  0  0
  2  4  1  0  0  0  0
  2  5  1  0  0  0  0
  5  6  2  0  0  0  0
  5  7  1  0  0  0  0
  7  8  1  0  0  0  0
  7  9  1  0  0  0  0
  9 10  1  0  0  0  0
  9 11  1  0  0  0  0
  9 27  1  0  0  0  0
 11 12  1  0  0  0  0
 11 13  1  0  0  0  0
 11 14  1  0  0  0  0
 14 15  1  0  0  0  0
 14 16  1  0  0  0  0
 14 17  1  0  0  0  0
 17 18  1  0  0  0  0
 17 19  1  0  0  0  0
 17 20  1  0  0  0  0
 20 21  1  0  0  0  0
 20 22  1  0  0  0  0
 20 23  1  0  0  0  0
 23 24  1  0  0  0  0
 23 25  1  0  0  0  0
 23 26  1  0  0  0  0
 27 28  2  0  0  0  0
 27 29  1  0  0  0  0
 29 30  1  0  0  0  0
 29 31  1  0  0  0  0
 31 32  1  0  0  0  0
 31 33  1  0  0  0  0
 31 34  1  0  0  0  0
M  CHG  1  23   1
M  END
$$$$

  -OEChem-02102214153D

 34 33  0     1  0  0  0  0  0999 V2000
   -3.7098   -4.0541    1.8545 H   0  0  0  0  0  0  0  0  0  0  0  0
   -3.7569   -3.0502    1.4232 C   0  0  0  0  0  0  0  0  0  0  0  0
   -4.3451   -2.4111    2.0865 H   0  0  0  0  0  0  0  0  0  0  0  0
   -4.2524   -3.1068    0.4510 H   0  0  0  0  0  0  0  0  0  0  0  0
   -2.3592   -2.4842    1.2608 C   0  0  0  0  0  0  0  0  0  0  0  0
   -1.3789   -3.1745    1.4999 O   0  0  0  0  0  0  0  0  0  0  0  0
   -2.1815   -1.1976    0.7956 N   0  0  0  0  0  0  0  0  0  0  0  0
   -3.0192   -0.6269    0.6759 H   0  0  0  0  0  0  0  0  0  0  0  0
   -0.8957   -0.4857    0.8367 C   0  0  1  0  0  0  0  0  0  0  0  0
   -0.2415   -0.9833    1.5594 H   0  0  0  0  0  0  0  0  0  0  0  0
   -0.2647   -0.5305   -0.5732 C   0  0  0  0  0  0  0  0  0  0  0  0
   -0.7879   -1.2956   -1.1576 H   0  0  0  0  0  0  0  0  0  0  0  0
   -0.4162    0.4214   -1.0944 H   0  0  0  0  0  0  0  0  0  0  0  0
    1.2339   -0.8815   -0.5383 C   0  0  0  0  0  0  0  0  0  0  0  0
    1.8210    0.0346   -0.4088 H   0  0  0  0  0  0  0  0  0  0  0  0
    1.4442   -1.5388    0.3129 H   0  0  0  0  0  0  0  0  0  0  0  0
    1.6471   -1.6206   -1.8176 C   0  0  0  0  0  0  0  0  0  0  0  0
    1.0479   -2.5330   -1.9169 H   0  0  0  0  0  0  0  0  0  0  0  0
    1.4455   -0.9845   -2.6869 H   0  0  0  0  0  0  0  0  0  0  0  0
    3.1289   -1.9834   -1.7633 C   0  0  0  0  0  0  0  0  0  0  0  0
    3.7260   -1.0629   -1.6855 H   0  0  0  0  0  0  0  0  0  0  0  0
    3.3222   -2.5735   -0.8552 H   0  0  0  0  0  0  0  0  0  0  0  0
    3.4810   -2.7499   -2.9781 N   0  3  0  0  0  0  0  0  0  0  0  0
    3.2883   -2.1919   -3.8121 H   0  0  0  0  0  0  0  0  0  0  0  0
    4.4733   -2.9954   -2.9643 H   0  0  0  0  0  0  0  0  0  0  0  0
    2.9279   -3.6087   -3.0198 H   0  0  0  0  0  0  0  0  0  0  0  0
   -1.0730    0.9611    1.3393 C   0  0  0  0  0  0  0  0  0  0  0  0
   -1.9960    1.6351    0.9023 O   0  0  0  0  0  0  0  0  0  0  0  0
   -0.2143    1.5037    2.2779 N   0  0  0  0  0  0  0  0  0  0  0  0
    0.4566    0.8818    2.7192 H   0  0  0  0  0  0  0  0  0  0  0  0
   -0.4019    2.8380    2.8402 C   0  0  0  0  0  0  0  0  0  0  0  0
   -1.3565    2.8993    3.3742 H   0  0  0  0  0  0  0  0  0  0  0  0
    0.4034    3.0711    3.5439 H   0  0  0  0  0  0  0  0  0  0  0  0
   -0.3943    3.5941    2.0476 H   0  0  0  0  0  0  0  0  0  0  0  0
  1  2  1  0  0  0  0
  2  3  1  0  0  0  0
  2  4  1  0  0  0  0
  2  5  1  0  0  0  0
  5  6  2  0  0  0  0
  5  7  1  0  0  0  0
  7  8  1  0  0  0  0
  7  9  1  0  0  0  0
  9 10  1  0  0  0  0
  9 11  1  0  0  0  0
  9 27  1  0  0  0  0
 11 12  1  0  0  0  0
 11 13  1  0  0  0  0
 11 14  1  0  0  0  0
 14 15  1  0  0  0  0
 14 16  1  0  0  0  0
 14 17  1  0  0  0  0
 17 18  1  0  0  0  0
 17 19  1  0  0  0  0
 17 20  1  0  0  0  0
 20 21  1  0  0  0  0
 20 22  1  0  0  0  0
 20 23  1  0  0  0  0
 23 24  1  0  0  0  0
 23 25  1  0  0  0  0
 23 26  1  0  0  0  0
 27 28  2  0  0  0  0
 27 29  1  0  0  0  0
 29 30  1  0  0  0  0
 29 31  1  0  0  0  0
 31 32  1  0  0  0  0
 31 33  1  0  0  0  0
 31 34  1  0  0  0  0
M  CHG  1  23   1
M  END
$$$$

  -OEChem-02102214153D

 34 33  0     1  0  0  0  0  0999 V2000
   -3.6971   -4.0609    1.8590 H   0  0  0  0  0  0  0  0  0  0  0  0
   -3.7489   -3.0577    1.4268 C   0  0  0  0  0  0  0  0  0  0  0  0
   -4.3381   -2.4198    2.0903 H   0  0  0  0  0  0  0  0  0  0  0  0
   -4.2456   -3.1173    0.4554 H   0  0  0  0  0  0  0  0  0  0  0  0
   -2.3536   -2.4868    1.2619 C   0  0  0  0  0  0  0  0  0  0  0  0
   -1.3707   -3.1714    1.5045 O   0  0  0  0  0  0  0  0  0  0  0  0
   -2.1813   -1.1991    0.7975 N   0  0  0  0  0  0  0  0  0  0  0  0
   -3.0210   -0.6320    0.6764 H   0  0  0  0  0  0  0  0  0  0  0  0
   -0.8965   -0.4854    0.8292 C   0  0  1  0  0  0  0  0  0  0  0  0
   -0.2305   -0.9844    1.5405 H   0  0  0  0  0  0  0  0  0  0  0  0
   -0.2782   -0.5251   -0.5851 C   0  0  0  0  0  0  0  0  0  0  0  0
   -0.7961   -1.2902   -1.1742 H   0  0  0  0  0  0  0  0  0  0  0  0
   -0.4311    0.4315   -1.0975 H   0  0  0  0  0  0  0  0  0  0  0  0
    1.2169   -0.8743   -0.5441 C   0  0  0  0  0  0  0  0  0  0  0  0
    1.7828   -0.0186   -0.1594 H   0  0  0  0  0  0  0  0  0  0  0  0
    1.3745   -1.7198    0.1359 H   0  0  0  0  0  0  0  0  0  0  0  0
    1.7154   -1.2678   -1.9397 C   0  0  0  0  0  0  0  0  0  0  0  0
    1.1289   -2.1178   -2.3068 H   0  0  0  0  0  0  0  0  0  0  0  0
    1.5666   -0.4292   -2.6292 H   0  0  0  0  0  0  0  0  0  0  0  0
    3.1934   -1.6466   -1.8843 C   0  0  0  0  0  0  0  0  0  0  0  0
    3.7764   -0.7834   -1.5312 H   0  0  0  0  0  0  0  0  0  0  0  0
    3.3322   -2.4541   -1.1501 H   0  0  0  0  0  0  0  0  0  0  0  0
    3.6313   -2.0729   -3.2312 N   0  3  0  0  0  0  0  0  0  0  0  0
    3.4869   -1.3154   -3.9017 H   0  0  0  0  0  0  0  0  0  0  0  0
    4.6233   -2.3197   -3.2176 H   0  0  0  0  0  0  0  0  0  0  0  0
    3.0917   -2.8875   -3.5312 H   0  0  0  0  0  0  0  0  0  0  0  0
   -1.0710    0.9601    1.3357 C   0  0  0  0  0  0  0  0  0  0  0  0
   -1.9909    1.6386    0.8988 O   0  0  0  0  0  0  0  0  0  0  0  0
   -0.2045    1.5009    2.2681 N   0  0  0  0  0  0  0  0  0  0  0  0
    0.4567    0.8725    2.7155 H   0  0  0  0  0  0  0  0  0  0  0  0
   -0.3908    2.8335    2.8348 C   0  0  0  0  0  0  0  0  0  0  0  0
   -1.3421    2.8925    3.3747 H   0  0  0  0  0  0  0  0  0  0  0  0
    0.4187    3.0662    3.5337 H   0  0  0  0  0  0  0  0  0  0  0  0
   -0.3900    3.5914    2.0439 H   0  0  0  0  0  0  0  0  0  0  0  0
  1  2  1  0  0  0  0
  2  3  1  0  0  0  0
  2  4  1  0  0  0  0
  2  5  1  0  0  0  0
  5  6  2  0  0  0  0
  5  7  1  0  0  0  0
  7  8  1  0  0  0  0
  7  9  1  0  0  0  0
  9 10  1  0  0  0  0
  9 11  1  0  0  0  0
  9 27  1  0  0  0  0
 11 12  1  0  0  0  0
 11 13  1  0  0  0  0
 11 14  1  0  0  0  0
 14 15  1  0  0  0  0
 14 16  1  0  0  0  0
 14 17  1  0  0  0  0
 17 18  1  0  0  0  0
 17 19  1  0  0  0  0
 17 20  1  0  0  0  0
 20 21  1  0  0  0  0
 20 22  1  0  0  0  0
 20 23  1  0  0  0  0
 23 24  1  0  0  0  0
 23 25  1  0  0  0  0
 23 26  1  0  0  0  0
 27 28  2  0  0  0  0
 27 29  1  0  0  0  0
 29 30  1  0  0  0  0
 29 31  1  0  0  0  0
 31 32  1  0  0  0  0
 31 33  1  0  0  0  0
 31 34  1  0  0  0  0
M  CHG  1  23   1
M  END
$$$$

  -OEChem-02102214153D

 34 33  0     1  0  0  0  0  0999 V2000
   -3.6548   -4.0738    1.8358 H   0  0  0  0  0  0  0  0  0  0  0  0
   -3.7178   -3.0610    1.4277 C   0  0  0  0  0  0  0  0  0  0  0  0
   -4.2964   -2.4406    2.1167 H   0  0  0  0  0  0  0  0  0  0  0  0
   -4.2325   -3.1002    0.4646 H   0  0  0  0  0  0  0  0  0  0  0  0
   -2.3275   -2.4818    1.2505 C   0  0  0  0  0  0  0  0  0  0  0  0
   -1.3389   -3.1629    1.4806 O   0  0  0  0  0  0  0  0  0  0  0  0
   -2.1655   -1.1915    0.7903 N   0  0  0  0  0  0  0  0  0  0  0  0
   -3.0080   -0.6246    0.6882 H   0  0  0  0  0  0  0  0  0  0  0  0
   -0.8827   -0.4746    0.8222 C   0  0  1  0  0  0  0  0  0  0  0  0
   -0.2054   -0.9656    1.5292 H   0  0  0  0  0  0  0  0  0  0  0  0
   -0.2741   -0.5029   -0.5971 C   0  0  0  0  0  0  0  0  0  0  0  0
   -0.9479   -1.0257   -1.2850 H   0  0  0  0  0  0  0  0  0  0  0  0
   -0.1616    0.5199   -0.9742 H   0  0  0  0  0  0  0  0  0  0  0  0
    1.0915   -1.2017   -0.5947 C   0  0  0  0  0  0  0  0  0  0  0  0
    1.7712   -0.6779    0.0866 H   0  0  0  0  0  0  0  0  0  0  0  0
    0.9661   -2.2270   -0.2258 H   0  0  0  0  0  0  0  0  0  0  0  0
    1.6889   -1.2272   -2.0056 C   0  0  0  0  0  0  0  0  0  0  0  0
    0.9817   -1.7128   -2.6874 H   0  0  0  0  0  0  0  0  0  0  0  0
    1.8476   -0.2009   -2.3548 H   0  0  0  0  0  0  0  0  0  0  0  0
    3.0103   -1.9924   -1.9997 C   0  0  0  0  0  0  0  0  0  0  0  0
    3.7170   -1.4914   -1.3219 H   0  0  0  0  0  0  0  0  0  0  0  0
    2.8398   -3.0034   -1.6001 H   0  0  0  0  0  0  0  0  0  0  0  0
    3.5412   -2.0488   -3.3792 N   0  3  0  0  0  0  0  0  0  0  0  0
    3.6958   -1.1028   -3.7333 H   0  0  0  0  0  0  0  0  0  0  0  0
    4.4275   -2.5585   -3.3949 H   0  0  0  0  0  0  0  0  0  0  0  0
    2.8741   -2.5259   -3.9892 H   0  0  0  0  0  0  0  0  0  0  0  0
   -1.0766    0.9660    1.3378 C   0  0  0  0  0  0  0  0  0  0  0  0
   -2.0082    1.6333    0.9083 O   0  0  0  0  0  0  0  0  0  0  0  0
   -0.2182    1.5122    2.2746 N   0  0  0  0  0  0  0  0  0  0  0  0
    0.4599    0.8931    2.7093 H   0  0  0  0  0  0  0  0  0  0  0  0
   -0.4276    2.8343    2.8573 C   0  0  0  0  0  0  0  0  0  0  0  0
   -1.3805    2.8698    3.3964 H   0  0  0  0  0  0  0  0  0  0  0  0
    0.3769    3.0721    3.5603 H   0  0  0  0  0  0  0  0  0  0  0  0
   -0.4388    3.6017    2.0757 H   0  0  0  0  0  0  0  0  0  0  0  0
  1  2  1  0  0  0  0
  2  3  1  0  0  0  0
  2  4  1  0  0  0  0
  2  5  1  0  0  0  0
  5  6  2  0  0  0  0
  5  7  1  0  0  0  0
  7  8  1  0  0  0  0
  7  9  1  0  0  0  0
  9 10  1  0  0  0  0
  9 11  1  0  0  0  0
  9 27  1  0  0  0  0
 11 12  1  0  0  0  0
 11 13  1  0  0  0  0
 11 14  1  0  0  0  0
 14 15  1  0  0  0  0
 14 16  1  0  0  0  0
 14 17  1  0  0  0  0
 17 18  1  0  0  0  0
 17 19  1  0  0  0  0
 17 20  1  0  0  0  0
 20 21  1  0  0  0  0
 20 22  1  0  0  0  0
 20 23  1  0  0  0  0
 23 24  1  0  0  0  0
 23 25  1  0  0  0  0
 23 26  1  0  0  0  0
 27 28  2  0  0  0  0
 27 29  1  0  0  0  0
 29 30  1  0  0  0  0
 29 31  1  0  0  0  0
 31 32  1  0  0  0  0
 31 33  1  0  0  0  0
 31 34  1  0  0  0  0
M  CHG  1  23   1
M  END
$$$$

  -OEChem-02102214153D

 34 33  0     1  0  0  0  0  0999 V2000
   -3.6579   -4.0768    1.8342 H   0  0  0  0  0  0  0  0  0  0  0  0
   -3.7180   -3.0690    1.4137 C   0  0  0  0  0  0  0  0  0  0  0  0
   -4.3157   -2.4452    2.0828 H   0  0  0  0  0  0  0  0  0  0  0  0
   -4.2109   -3.1222    0.4400 H   0  0  0  0  0  0  0  0  0  0  0  0
   -2.3277   -2.4828    1.2597 C   0  0  0  0  0  0  0  0  0  0  0  0
   -1.3399   -3.1567    1.5125 O   0  0  0  0  0  0  0  0  0  0  0  0
   -2.1642   -1.1932    0.7974 N   0  0  0  0  0  0  0  0  0  0  0  0
   -3.0075   -0.6319    0.6736 H   0  0  0  0  0  0  0  0  0  0  0  0
   -0.8839   -0.4721    0.8331 C   0  0  1  0  0  0  0  0  0  0  0  0
   -0.2097   -0.9613    1.5437 H   0  0  0  0  0  0  0  0  0  0  0  0
   -0.2719   -0.5054   -0.5853 C   0  0  0  0  0  0  0  0  0  0  0  0
   -0.9400   -1.0246   -1.2819 H   0  0  0  0  0  0  0  0  0  0  0  0
   -0.1637    0.5208   -0.9539 H   0  0  0  0  0  0  0  0  0  0  0  0
    1.0979   -1.1988   -0.5884 C   0  0  0  0  0  0  0  0  0  0  0  0
    1.6979   -0.8358    0.2535 H   0  0  0  0  0  0  0  0  0  0  0  0
    0.9531   -2.2778   -0.4572 H   0  0  0  0  0  0  0  0  0  0  0  0
    1.8491   -0.9072   -1.8920 C   0  0  0  0  0  0  0  0  0  0  0  0
    1.2272   -1.2128   -2.7410 H   0  0  0  0  0  0  0  0  0  0  0  0
    2.0341    0.1695   -1.9762 H   0  0  0  0  0  0  0  0  0  0  0  0
    3.1704   -1.6715   -1.9155 C   0  0  0  0  0  0  0  0  0  0  0  0
    3.7898   -1.3515   -1.0646 H   0  0  0  0  0  0  0  0  0  0  0  0
    2.9680   -2.7449   -1.7834 H   0  0  0  0  0  0  0  0  0  0  0  0
    3.8525   -1.4140   -3.2021 N   0  3  0  0  0  0  0  0  0  0  0  0
    4.0291   -0.4134   -3.3102 H   0  0  0  0  0  0  0  0  0  0  0  0
    4.7437   -1.9140   -3.2346 H   0  0  0  0  0  0  0  0  0  0  0  0
    3.2661   -1.7322   -3.9763 H   0  0  0  0  0  0  0  0  0  0  0  0
   -1.0803    0.9698    1.3433 C   0  0  0  0  0  0  0  0  0  0  0  0
   -2.0020    1.6413    0.8995 O   0  0  0  0  0  0  0  0  0  0  0  0
   -0.2241    1.5170    2.2816 N   0  0  0  0  0  0  0  0  0  0  0  0
    0.4430    0.8942    2.7279 H   0  0  0  0  0  0  0  0  0  0  0  0
   -0.4297    2.8428    2.8569 C   0  0  0  0  0  0  0  0  0  0  0  0
   -1.3841    2.8852    3.3928 H   0  0  0  0  0  0  0  0  0  0  0  0
    0.3733    3.0803    3.5617 H   0  0  0  0  0  0  0  0  0  0  0  0
   -0.4340    3.6064    2.0716 H   0  0  0  0  0  0  0  0  0  0  0  0
  1  2  1  0  0  0  0
  2  3  1  0  0  0  0
  2  4  1  0  0  0  0
  2  5  1  0  0  0  0
  5  6  2  0  0  0  0
  5  7  1  0  0  0  0
  7  8  1  0  0  0  0
  7  9  1  0  0  0  0
  9 10  1  0  0  0  0
  9 11  1  0  0  0  0
  9 27  1  0  0  0  0
 11 12  1  0  0  0  0
 11 13  1  0  0  0  0
 11 14  1  0  0  0  0
 14 15  1  0  0  0  0
 14 16  1  0  0  0  0
 14 17  1  0  0  0  0
 17 18  1  0  0  0  0
 17 19  1  0  0  0  0
 17 20  1  0  0  0  0
 20 21  1  0  0  0  0
 20 22  1  0  0  0  0
 20 23  1  0  0  0  0
 23 24  1  0  0  0  0
 23 25  1  0  0  0  0
 23 26  1  0  0  0  0
 27 28  2  0  0  0  0
 27 29  1  0  0  0  0
 29 30  1  0  0  0  0
 29 31  1  0  0  0  0
 31 32  1  0  0  0  0
 31 33  1  0  0  0  0
 31 34  1  0  0  0  0
M  CHG  1  23   1
M  END
$$$$

  -OEChem-02102214153D

 34 33  0     1  0  0  0  0  0999 V2000
   -3.6642   -4.0770    1.8209 H   0  0  0  0  0  0  0  0  0  0  0  0
   -3.7199   -3.0665    1.4064 C   0  0  0  0  0  0  0  0  0  0  0  0
   -4.3248   -2.4470    2.0731 H   0  0  0  0  0  0  0  0  0  0  0  0
   -4.2025   -3.1138    0.4272 H   0  0  0  0  0  0  0  0  0  0  0  0
   -2.3281   -2.4788    1.2722 C   0  0  0  0  0  0  0  0  0  0  0  0
   -1.3442   -3.1454    1.5564 O   0  0  0  0  0  0  0  0  0  0  0  0
   -2.1594   -1.1916    0.8047 N   0  0  0  0  0  0  0  0  0  0  0  0
   -3.0016   -0.6352    0.6558 H   0  0  0  0  0  0  0  0  0  0  0  0
   -0.8802   -0.4691    0.8484 C   0  0  1  0  0  0  0  0  0  0  0  0
   -0.2140   -0.9545    1.5685 H   0  0  0  0  0  0  0  0  0  0  0  0
   -0.2608   -0.5077   -0.5687 C   0  0  0  0  0  0  0  0  0  0  0  0
   -0.9273   -1.0216   -1.2705 H   0  0  0  0  0  0  0  0  0  0  0  0
   -0.1579    0.5208   -0.9327 H   0  0  0  0  0  0  0  0  0  0  0  0
    1.1140   -1.1986   -0.5856 C   0  0  0  0  0  0  0  0  0  0  0  0
    1.6238   -1.0461    0.3720 H   0  0  0  0  0  0  0  0  0  0  0  0
    0.9690   -2.2774   -0.7154 H   0  0  0  0  0  0  0  0  0  0  0  0
    2.0040   -0.6255   -1.6948 C   0  0  0  0  0  0  0  0  0  0  0  0
    1.4804   -0.7104   -2.6537 H   0  0  0  0  0  0  0  0  0  0  0  0
    2.1929    0.4367   -1.5030 H   0  0  0  0  0  0  0  0  0  0  0  0
    3.3238   -1.3914   -1.7542 C   0  0  0  0  0  0  0  0  0  0  0  0
    3.8438   -1.2943   -0.7899 H   0  0  0  0  0  0  0  0  0  0  0  0
    3.1137   -2.4614   -1.9013 H   0  0  0  0  0  0  0  0  0  0  0  0
    4.1444   -0.8531   -2.8609 N   0  3  0  0  0  0  0  0  0  0  0  0
    4.3292    0.1402   -2.7085 H   0  0  0  0  0  0  0  0  0  0  0  0
    5.0350   -1.3524   -2.9134 H   0  0  0  0  0  0  0  0  0  0  0  0
    3.6494   -0.9652   -3.7481 H   0  0  0  0  0  0  0  0  0  0  0  0
   -1.0832    0.9754    1.3489 C   0  0  0  0  0  0  0  0  0  0  0  0
   -1.9944    1.6479    0.8858 O   0  0  0  0  0  0  0  0  0  0  0  0
   -0.2362    1.5279    2.2925 N   0  0  0  0  0  0  0  0  0  0  0  0
    0.4066    0.8997    2.7661 H   0  0  0  0  0  0  0  0  0  0  0  0
   -0.4575    2.8527    2.8649 C   0  0  0  0  0  0  0  0  0  0  0  0
   -1.4157    2.8873    3.3948 H   0  0  0  0  0  0  0  0  0  0  0  0
    0.3389    3.0977    3.5746 H   0  0  0  0  0  0  0  0  0  0  0  0
   -0.4639    3.6161    2.0793 H   0  0  0  0  0  0  0  0  0  0  0  0
  1  2  1  0  0  0  0
  2  3  1  0  0  0  0
  2  4  1  0  0  0  0
  2  5  1  0  0  0  0
  5  6  2  0  0  0  0
  5  7  1  0  0  0  0
  7  8  1  0  0  0  0
  7  9  1  0  0  0  0
  9 10  1  0  0  0  0
  9 11  1  0  0  0  0
  9 27  1  0  0  0  0
 11 12  1  0  0  0  0
 11 13  1  0  0  0  0
 11 14  1  0  0  0  0
 14 15  1  0  0  0  0
 14 16  1  0  0  0  0
 14 17  1  0  0  0  0
 17 18  1  0  0  0  0
 17 19  1  0  0  0  0
 17 20  1  0  0  0  0
 20 21  1  0  0  0  0
 20 22  1  0  0  0  0
 20 23  1  0  0  0  0
 23 24  1  0  0  0  0
 23 25  1  0  0  0  0
 23 26  1  0  0  0  0
 27 28  2  0  0  0  0
 27 29  1  0  0  0  0
 29 30  1  0  0  0  0
 29 31  1  0  0  0  0
 31 32  1  0  0  0  0
 31 33  1  0  0  0  0
 31 34  1  0  0  0  0
M  CHG  1  23   1
M  END
$$$$

  -OEChem-02102214153D

 34 33  0     1  0  0  0  0  0999 V2000
   -3.6797   -4.0731    1.8241 H   0  0  0  0  0  0  0  0  0  0  0  0
   -3.7302   -3.0674    1.3975 C   0  0  0  0  0  0  0  0  0  0  0  0
   -4.3520   -2.4430    2.0438 H   0  0  0  0  0  0  0  0  0  0  0  0
   -4.1899   -3.1270    0.4081 H   0  0  0  0  0  0  0  0  0  0  0  0
   -2.3380   -2.4761    1.2879 C   0  0  0  0  0  0  0  0  0  0  0  0
   -1.3583   -3.1377    1.5975 O   0  0  0  0  0  0  0  0  0  0  0  0
   -2.1635   -1.1917    0.8145 N   0  0  0  0  0  0  0  0  0  0  0  0
   -3.0032   -0.6388    0.6410 H   0  0  0  0  0  0  0  0  0  0  0  0
   -0.8834   -0.4711    0.8633 C   0  0  1  0  0  0  0  0  0  0  0  0
   -0.2263   -0.9528    1.5932 H   0  0  0  0  0  0  0  0  0  0  0  0
   -0.2549   -0.5139   -0.5513 C   0  0  0  0  0  0  0  0  0  0  0  0
   -0.9214   -1.0340   -1.2487 H   0  0  0  0  0  0  0  0  0  0  0  0
   -0.1642    0.5123   -0.9249 H   0  0  0  0  0  0  0  0  0  0  0  0
    1.1239   -1.2043   -0.5821 C   0  0  0  0  0  0  0  0  0  0  0  0
    1.5280   -1.3097    0.4300 H   0  0  0  0  0  0  0  0  0  0  0  0
    1.0028   -2.2152   -0.9885 H   0  0  0  0  0  0  0  0  0  0  0  0
    2.1269   -0.4020   -1.4198 C   0  0  0  0  0  0  0  0  0  0  0  0
    1.7187   -0.2554   -2.4263 H   0  0  0  0  0  0  0  0  0  0  0  0
    2.2765    0.5840   -0.9657 H   0  0  0  0  0  0  0  0  0  0  0  0
    3.4560   -1.1494   -1.5025 C   0  0  0  0  0  0  0  0  0  0  0  0
    3.8609   -1.2838   -0.4886 H   0  0  0  0  0  0  0  0  0  0  0  0
    3.2802   -2.1538   -1.9156 H   0  0  0  0  0  0  0  0  0  0  0  0
    4.3893   -0.3802   -2.3540 N   0  3  0  0  0  0  0  0  0  0  0  0
    4.5335    0.5523   -1.9620 H   0  0  0  0  0  0  0  0  0  0  0  0
    5.2906   -0.8598   -2.4102 H   0  0  0  0  0  0  0  0  0  0  0  0
    4.0047   -0.2870   -3.2964 H   0  0  0  0  0  0  0  0  0  0  0  0
   -1.0844    0.9770    1.3542 C   0  0  0  0  0  0  0  0  0  0  0  0
   -1.9841    1.6539    0.8752 O   0  0  0  0  0  0  0  0  0  0  0  0
   -0.2408    1.5308    2.3003 N   0  0  0  0  0  0  0  0  0  0  0  0
    0.3871    0.8994    2.7895 H   0  0  0  0  0  0  0  0  0  0  0  0
   -0.4598    2.8607    2.8620 C   0  0  0  0  0  0  0  0  0  0  0  0
   -1.4216    2.9032    3.3847 H   0  0  0  0  0  0  0  0  0  0  0  0
    0.3328    3.1071    3.5753 H   0  0  0  0  0  0  0  0  0  0  0  0
   -0.4574    3.6184    2.0709 H   0  0  0  0  0  0  0  0  0  0  0  0
  1  2  1  0  0  0  0
  2  3  1  0  0  0  0
  2  4  1  0  0  0  0
  2  5  1  0  0  0  0
  5  6  2  0  0  0  0
  5  7  1  0  0  0  0
  7  8  1  0  0  0  0
  7  9  1  0  0  0  0
  9 10  1  0  0  0  0
  9 11  1  0  0  0  0
  9 27  1  0  0  0  0
 11 12  1  0  0  0  0
 11 13  1  0  0  0  0
 11 14  1  0  0  0  0
 14 15  1  0  0  0  0
 14 16  1  0  0  0  0
 14 17  1  0  0  0  0
 17 18  1  0  0  0  0
 17 19  1  0  0  0  0
 17 20  1  0  0  0  0
 20 21  1  0  0  0  0
 20 22  1  0  0  0  0
 20 23  1  0  0  0  0
 23 24  1  0  0  0  0
 23 25  1  0  0  0  0
 23 26  1  0  0  0  0
 27 28  2  0  0  0  0
 27 29  1  0  0  0  0
 29 30  1  0  0  0  0
 29 31  1  0  0  0  0
 31 32  1  0  0  0  0
 31 33  1  0  0  0  0
 31 34  1  0  0  0  0
M  CHG  1  23   1
M  END
$$$$

  -OEChem-02102214153D

 34 33  0     1  0  0  0  0  0999 V2000
   -3.6794   -4.0721    1.8329 H   0  0  0  0  0  0  0  0  0  0  0  0
   -3.7304   -3.0676    1.4032 C   0  0  0  0  0  0  0  0  0  0  0  0
   -4.3562   -2.4427    2.0451 H   0  0  0  0  0  0  0  0  0  0  0  0
   -4.1865   -3.1310    0.4123 H   0  0  0  0  0  0  0  0  0  0  0  0
   -2.3389   -2.4737    1.2978 C   0  0  0  0  0  0  0  0  0  0  0  0
   -1.3602   -3.1289    1.6241 O   0  0  0  0  0  0  0  0  0  0  0  0
   -2.1637   -1.1908    0.8203 N   0  0  0  0  0  0  0  0  0  0  0  0
   -3.0026   -0.6407    0.6342 H   0  0  0  0  0  0  0  0  0  0  0  0
   -0.8827   -0.4713    0.8681 C   0  0  1  0  0  0  0  0  0  0  0  0
   -0.2235   -0.9486    1.5988 H   0  0  0  0  0  0  0  0  0  0  0  0
   -0.2539   -0.5069   -0.5475 C   0  0  0  0  0  0  0  0  0  0  0  0
   -0.9228   -1.0412   -1.2320 H   0  0  0  0  0  0  0  0  0  0  0  0
   -0.1775    0.5141   -0.9381 H   0  0  0  0  0  0  0  0  0  0  0  0
    1.1261   -1.1969   -0.5898 C   0  0  0  0  0  0  0  0  0  0  0  0
    1.4037   -1.5884    0.3944 H   0  0  0  0  0  0  0  0  0  0  0  0
    1.0583   -2.0583   -1.2641 H   0  0  0  0  0  0  0  0  0  0  0  0
    2.2172   -0.2427   -1.0905 C   0  0  0  0  0  0  0  0  0  0  0  0
    1.9360    0.1409   -2.0778 H   0  0  0  0  0  0  0  0  0  0  0  0
    2.3010    0.6081   -0.4051 H   0  0  0  0  0  0  0  0  0  0  0  0
    3.5517   -0.9800   -1.1799 C   0  0  0  0  0  0  0  0  0  0  0  0
    3.8300   -1.3484   -0.1815 H   0  0  0  0  0  0  0  0  0  0  0  0
    3.4338   -1.8613   -1.8278 H   0  0  0  0  0  0  0  0  0  0  0  0
    4.5781   -0.0601   -1.7167 N   0  3  0  0  0  0  0  0  0  0  0  0
    4.6649    0.7590   -1.1122 H   0  0  0  0  0  0  0  0  0  0  0  0
    5.4830   -0.5336   -1.7661 H   0  0  0  0  0  0  0  0  0  0  0  0
    4.3140    0.2475   -2.6549 H   0  0  0  0  0  0  0  0  0  0  0  0
   -1.0864    0.9775    1.3549 C   0  0  0  0  0  0  0  0  0  0  0  0
   -1.9800    1.6562    0.8674 O   0  0  0  0  0  0  0  0  0  0  0  0
   -0.2443    1.5337    2.3011 N   0  0  0  0  0  0  0  0  0  0  0  0
    0.3635    0.8972    2.8086 H   0  0  0  0  0  0  0  0  0  0  0  0
   -0.4711    2.8634    2.8602 C   0  0  0  0  0  0  0  0  0  0  0  0
   -1.4345    2.9023    3.3802 H   0  0  0  0  0  0  0  0  0  0  0  0
    0.3181    3.1155    3.5752 H   0  0  0  0  0  0  0  0  0  0  0  0
   -0.4705    3.6199    2.0680 H   0  0  0  0  0  0  0  0  0  0  0  0
  1  2  1  0  0  0  0
  2  3  1  0  0  0  0
  2  4  1  0  0  0  0
  2  5  1  0  0  0  0
  5  6  2  0  0  0  0
  5  7  1  0  0  0  0
  7  8  1  0  0  0  0
  7  9  1  0  0  0  0
  9 10  1  0  0  0  0
  9 11  1  0  0  0  0
  9 27  1  0  0  0  0
 11 12  1  0  0  0  0
 11 13  1  0  0  0  0
 11 14  1  0  0  0  0
 14 15  1  0  0  0  0
 14 16  1  0  0  0  0
 14 17  1  0  0  0  0
 17 18  1  0  0  0  0
 17 19  1  0  0  0  0
 17 20  1  0  0  0  0
 20 21  1  0  0  0  0
 20 22  1  0  0  0  0
 20 23  1  0  0  0  0
 23 24  1  0  0  0  0
 23 25  1  0  0  0  0
 23 26  1  0  0  0  0
 27 28  2  0  0  0  0
 27 29  1  0  0  0  0
 29 30  1  0  0  0  0
 29 31  1  0  0  0  0
 31 32  1  0  0  0  0
 31 33  1  0  0  0  0
 31 34  1  0  0  0  0
M  CHG  1  23   1
M  END
$$$$

  -OEChem-02102214153D

 34 33  0     1  0  0  0  0  0999 V2000
   -3.6624   -4.0831    1.8267 H   0  0  0  0  0  0  0  0  0  0  0  0
   -3.7179   -3.0790    1.3966 C   0  0  0  0  0  0  0  0  0  0  0  0
   -4.3584   -2.4610    2.0307 H   0  0  0  0  0  0  0  0  0  0  0  0
   -4.1605   -3.1473    0.3999 H   0  0  0  0  0  0  0  0  0  0  0  0
   -2.3312   -2.4712    1.3078 C   0  0  0  0  0  0  0  0  0  0  0  0
   -1.3500   -3.1162    1.6470 O   0  0  0  0  0  0  0  0  0  0  0  0
   -2.1613   -1.1882    0.8286 N   0  0  0  0  0  0  0  0  0  0  0  0
   -3.0011   -0.6460    0.6244 H   0  0  0  0  0  0  0  0  0  0  0  0
   -0.8815   -0.4665    0.8680 C   0  0  1  0  0  0  0  0  0  0  0  0
   -0.2120   -0.9418    1.5909 H   0  0  0  0  0  0  0  0  0  0  0  0
   -0.2618   -0.4982   -0.5509 C   0  0  0  0  0  0  0  0  0  0  0  0
   -0.9311   -1.0513   -1.2197 H   0  0  0  0  0  0  0  0  0  0  0  0
   -0.1961    0.5157   -0.9614 H   0  0  0  0  0  0  0  0  0  0  0  0
    1.1159   -1.1867   -0.5897 C   0  0  0  0  0  0  0  0  0  0  0  0
    1.2639   -1.8209    0.2914 H   0  0  0  0  0  0  0  0  0  0  0  0
    1.1380   -1.8503   -1.4617 H   0  0  0  0  0  0  0  0  0  0  0  0
    2.2527   -0.1668   -0.7240 C   0  0  0  0  0  0  0  0  0  0  0  0
    2.0990    0.4313   -1.6293 H   0  0  0  0  0  0  0  0  0  0  0  0
    2.2399    0.5096    0.1379 H   0  0  0  0  0  0  0  0  0  0  0  0
    3.5930   -0.8947   -0.8023 C   0  0  0  0  0  0  0  0  0  0  0  0
    3.7445   -1.4749    0.1199 H   0  0  0  0  0  0  0  0  0  0  0  0
    3.5649   -1.6137   -1.6344 H   0  0  0  0  0  0  0  0  0  0  0  0
    4.6738    0.0966   -0.9945 N   0  3  0  0  0  0  0  0  0  0  0  0
    4.6828    0.7601   -0.2178 H   0  0  0  0  0  0  0  0  0  0  0  0
    5.5798   -0.3754   -1.0382 H   0  0  0  0  0  0  0  0  0  0  0  0
    4.5259    0.6095   -1.8662 H   0  0  0  0  0  0  0  0  0  0  0  0
   -1.0835    0.9822    1.3553 C   0  0  0  0  0  0  0  0  0  0  0  0
   -1.9714    1.6649    0.8634 O   0  0  0  0  0  0  0  0  0  0  0  0
   -0.2351    1.5385    2.2962 N   0  0  0  0  0  0  0  0  0  0  0  0
    0.3518    0.8953    2.8194 H   0  0  0  0  0  0  0  0  0  0  0  0
   -0.4604    2.8699    2.8524 C   0  0  0  0  0  0  0  0  0  0  0  0
   -1.4221    2.9106    3.3754 H   0  0  0  0  0  0  0  0  0  0  0  0
    0.3314    3.1238    3.5639 H   0  0  0  0  0  0  0  0  0  0  0  0
   -0.4626    3.6242    2.0580 H   0  0  0  0  0  0  0  0  0  0  0  0
  1  2  1  0  0  0  0
  2  3  1  0  0  0  0
  2  4  1  0  0  0  0
  2  5  1  0  0  0  0
  5  6  2  0  0  0  0
  5  7  1  0  0  0  0
  7  8  1  0  0  0  0
  7  9  1  0  0  0  0
  9 10  1  0  0  0  0
  9 11  1  0  0  0  0
  9 27  1  0  0  0  0
 11 12  1  0  0  0  0
 11 13  1  0  0  0  0
 11 14  1  0  0  0  0
 14 15  1  0  0  0  0
 14 16  1  0  0  0  0
 14 17  1  0  0  0  0
 17 18  1  0  0  0  0
 17 19  1  0  0  0  0
 17 20  1  0  0  0  0
 20 21  1  0  0  0  0
 20 22  1  0  0  0  0
 20 23  1  0  0  0  0
 23 24  1  0  0  0  0
 23 25  1  0  0  0  0
 23 26  1  0  0  0  0
 27 28  2  0  0  0  0
 27 29  1  0  0  0  0
 29 30  1  0  0  0  0
 29 31  1  0  0  0  0
 31 32  1  0  0  0  0
 31 33  1  0  0  0  0
 31 34  1  0  0  0  0
M  CHG  1  23   1
M  END
$$$$

  -OEChem-02102214153D

 34 33  0     1  0  0  0  0  0999 V2000
   -3.6456   -4.0935    1.8153 H   0  0  0  0  0  0  0  0  0  0  0  0
   -3.7037   -3.0899    1.3845 C   0  0  0  0  0  0  0  0  0  0  0  0
   -4.3566   -2.4766    2.0103 H   0  0  0  0  0  0  0  0  0  0  0  0
   -4.1332   -3.1615    0.3824 H   0  0  0  0  0  0  0  0  0  0  0  0
   -2.3212   -2.4709    1.3133 C   0  0  0  0  0  0  0  0  0  0  0  0
   -1.3391   -3.1058    1.6695 O   0  0  0  0  0  0  0  0  0  0  0  0
   -2.1559   -1.1871    0.8342 N   0  0  0  0  0  0  0  0  0  0  0  0
   -2.9965   -0.6525    0.6137 H   0  0  0  0  0  0  0  0  0  0  0  0
   -0.8786   -0.4611    0.8732 C   0  0  1  0  0  0  0  0  0  0  0  0
   -0.2013   -0.9359    1.5895 H   0  0  0  0  0  0  0  0  0  0  0  0
   -0.2636   -0.4894   -0.5470 C   0  0  0  0  0  0  0  0  0  0  0  0
   -0.9310   -1.0456   -1.2151 H   0  0  0  0  0  0  0  0  0  0  0  0
   -0.1933    0.5234   -0.9596 H   0  0  0  0  0  0  0  0  0  0  0  0
    1.1119   -1.1748   -0.5775 C   0  0  0  0  0  0  0  0  0  0  0  0
    1.1447   -1.9941    0.1504 H   0  0  0  0  0  0  0  0  0  0  0  0
    1.2445   -1.6227   -1.5687 H   0  0  0  0  0  0  0  0  0  0  0  0
    2.2529   -0.1792   -0.3380 C   0  0  0  0  0  0  0  0  0  0  0  0
    2.2084    0.6126   -1.0941 H   0  0  0  0  0  0  0  0  0  0  0  0
    2.1372    0.2844    0.6476 H   0  0  0  0  0  0  0  0  0  0  0  0
    3.5931   -0.9074   -0.4233 C   0  0  0  0  0  0  0  0  0  0  0  0
    3.6352   -1.6810    0.3580 H   0  0  0  0  0  0  0  0  0  0  0  0
    3.6606   -1.4242   -1.3922 H   0  0  0  0  0  0  0  0  0  0  0  0
    4.6915    0.0709   -0.2683 N   0  3  0  0  0  0  0  0  0  0  0  0
    4.6194    0.5383    0.6371 H   0  0  0  0  0  0  0  0  0  0  0  0
    5.5952   -0.4042   -0.3251 H   0  0  0  0  0  0  0  0  0  0  0  0
    4.6400    0.7733   -1.0090 H   0  0  0  0  0  0  0  0  0  0  0  0
   -1.0881    0.9863    1.3615 C   0  0  0  0  0  0  0  0  0  0  0  0
   -1.9704    1.6694    0.8604 O   0  0  0  0  0  0  0  0  0  0  0  0
   -0.2424    1.5461    2.3032 N   0  0  0  0  0  0  0  0  0  0  0  0
    0.3204    0.9000    2.8486 H   0  0  0  0  0  0  0  0  0  0  0  0
   -0.4662    2.8844    2.8441 C   0  0  0  0  0  0  0  0  0  0  0  0
   -1.4292    2.9338    3.3640 H   0  0  0  0  0  0  0  0  0  0  0  0
    0.3244    3.1451    3.5545 H   0  0  0  0  0  0  0  0  0  0  0  0
   -0.4646    3.6296    2.0412 H   0  0  0  0  0  0  0  0  0  0  0  0
  1  2  1  0  0  0  0
  2  3  1  0  0  0  0
  2  4  1  0  0  0  0
  2  5  1  0  0  0  0
  5  6  2  0  0  0  0
  5  7  1  0  0  0  0
  7  8  1  0  0  0  0
  7  9  1  0  0  0  0
  9 10  1  0  0  0  0
  9 11  1  0  0  0  0
  9 27  1  0  0  0  0
 11 12  1  0  0  0  0
 11 13  1  0  0  0  0
 11 14  1  0  0  0  0
 14 15  1  0  0  0  0
 14 16  1  0  0  0  0
 14 17  1  0  0  0  0
 17 18  1  0  0  0  0
 17 19  1  0  0  0  0
 17 20  1  0  0  0  0
 20 21  1  0  0  0  0
 20 22  1  0  0  0  0
 20 23  1  0  0  0  0
 23 24  1  0  0  0  0
 23 25  1  0  0  0  0
 23 26  1  0  0  0  0
 27 28  2  0  0  0  0
 27 29  1  0  0  0  0
 29 30  1  0  0  0  0
 29 31  1  0  0  0  0
 31 32  1  0  0  0  0
 31 33  1  0  0  0  0
 31 34  1  0  0  0  0
M  CHG  1  23   1
M  END
$$$$

  -OEChem-02102214153D

 34 33  0     1  0  0  0  0  0999 V2000
   -3.6483   -4.0952    1.7929 H   0  0  0  0  0  0  0  0  0  0  0  0
   -3.7037   -3.0892    1.3677 C   0  0  0  0  0  0  0  0  0  0  0  0
   -4.3732   -2.4843    1.9840 H   0  0  0  0  0  0  0  0  0  0  0  0
   -4.1122   -3.1575    0.3566 H   0  0  0  0  0  0  0  0  0  0  0  0
   -2.3237   -2.4617    1.3280 C   0  0  0  0  0  0  0  0  0  0  0  0
   -1.3467   -3.0885    1.7116 O   0  0  0  0  0  0  0  0  0  0  0  0
   -2.1536   -1.1813    0.8421 N   0  0  0  0  0  0  0  0  0  0  0  0
   -2.9910   -0.6528    0.5961 H   0  0  0  0  0  0  0  0  0  0  0  0
   -0.8783   -0.4527    0.8916 C   0  0  1  0  0  0  0  0  0  0  0  0
   -0.2064   -0.9242    1.6151 H   0  0  0  0  0  0  0  0  0  0  0  0
   -0.2524   -0.4923   -0.5233 C   0  0  0  0  0  0  0  0  0  0  0  0
   -0.9150   -1.0439   -1.2000 H   0  0  0  0  0  0  0  0  0  0  0  0
   -0.1671    0.5207   -0.9325 H   0  0  0  0  0  0  0  0  0  0  0  0
    1.1229   -1.1753   -0.5446 C   0  0  0  0  0  0  0  0  0  0  0  0
    1.0645   -2.1267   -0.0023 H   0  0  0  0  0  0  0  0  0  0  0  0
    1.3690   -1.4091   -1.5864 H   0  0  0  0  0  0  0  0  0  0  0  0
    2.2323   -0.2925    0.0416 C   0  0  0  0  0  0  0  0  0  0  0  0
    2.2616    0.6599   -0.4992 H   0  0  0  0  0  0  0  0  0  0  0  0
    2.0242   -0.0803    1.0951 H   0  0  0  0  0  0  0  0  0  0  0  0
    3.5733   -1.0129   -0.0913 C   0  0  0  0  0  0  0  0  0  0  0  0
    3.5344   -1.9554    0.4752 H   0  0  0  0  0  0  0  0  0  0  0  0
    3.7357   -1.2787   -1.1465 H   0  0  0  0  0  0  0  0  0  0  0  0
    4.6562   -0.1358    0.4045 N   0  3  0  0  0  0  0  0  0  0  0  0
    4.5066    0.0828    1.3909 H   0  0  0  0  0  0  0  0  0  0  0  0
    5.5600   -0.6033    0.3025 H   0  0  0  0  0  0  0  0  0  0  0  0
    4.6726    0.7352   -0.1300 H   0  0  0  0  0  0  0  0  0  0  0  0
   -1.1020    0.9973    1.3671 C   0  0  0  0  0  0  0  0  0  0  0  0
   -1.9813    1.6715    0.8493 O   0  0  0  0  0  0  0  0  0  0  0  0
   -0.2732    1.5696    2.3164 N   0  0  0  0  0  0  0  0  0  0  0  0
    0.2732    0.9291    2.8837 H   0  0  0  0  0  0  0  0  0  0  0  0
   -0.5145    2.9115    2.8411 C   0  0  0  0  0  0  0  0  0  0  0  0
   -1.4862    2.9590    3.3448 H   0  0  0  0  0  0  0  0  0  0  0  0
    0.2627    3.1844    3.5616 H   0  0  0  0  0  0  0  0  0  0  0  0
   -0.5052    3.6493    2.0313 H   0  0  0  0  0  0  0  0  0  0  0  0
  1  2  1  0  0  0  0
  2  3  1  0  0  0  0
  2  4  1  0  0  0  0
  2  5  1  0  0  0  0
  5  6  2  0  0  0  0
  5  7  1  0  0  0  0
  7  8  1  0  0  0  0
  7  9  1  0  0  0  0
  9 10  1  0  0  0  0
  9 11  1  0  0  0  0
  9 27  1  0  0  0  0
 11 12  1  0  0  0  0
 11 13  1  0  0  0  0
 11 14  1  0  0  0  0
 14 15  1  0  0  0  0
 14 16  1  0  0  0  0
 14 17  1  0  0  0  0
 17 18  1  0  0  0  0
 17 19  1  0  0  0  0
 17 20  1  0  0  0  0
 20 21  1  0  0  0  0
 20 22  1  0  0  0  0
 20 23  1  0  0  0  0
 23 24  1  0  0  0  0
 23 25  1  0  0  0  0
 23 26  1  0  0  0  0
 27 28  2  0  0  0  0
 27 29  1  0  0  0  0
 29 30  1  0  0  0  0
 29 31  1  0  0  0  0
 31 32  1  0  0  0  0
 31 33  1  0  0  0  0
 31 34  1  0  0  0  0
M  CHG  1  23   1
M  END
$$$$

  -OEChem-02102214153D

 34 33  0     1  0  0  0  0  0999 V2000
   -3.6933   -4.0859    1.7667 H   0  0  0  0  0  0  0  0  0  0  0  0
   -3.7359   -3.0783    1.3440 C   0  0  0  0  0  0  0  0  0  0  0  0
   -4.4233   -2.4752    1.9423 H   0  0  0  0  0  0  0  0  0  0  0  0
   -4.1149   -3.1423    0.3211 H   0  0  0  0  0  0  0  0  0  0  0  0
   -2.3553   -2.4505    1.3478 C   0  0  0  0  0  0  0  0  0  0  0  0
   -1.3924   -3.0709    1.7759 O   0  0  0  0  0  0  0  0  0  0  0  0
   -2.1690   -1.1771    0.8494 N   0  0  0  0  0  0  0  0  0  0  0  0
   -2.9979   -0.6537    0.5662 H   0  0  0  0  0  0  0  0  0  0  0  0
   -0.8956   -0.4470    0.9224 C   0  0  1  0  0  0  0  0  0  0  0  0
   -0.2522   -0.9134    1.6721 H   0  0  0  0  0  0  0  0  0  0  0  0
   -0.2354   -0.5153   -0.4769 C   0  0  0  0  0  0  0  0  0  0  0  0
   -0.8881   -1.0606   -1.1681 H   0  0  0  0  0  0  0  0  0  0  0  0
   -0.1328    0.4970   -0.8838 H   0  0  0  0  0  0  0  0  0  0  0  0
    1.1441   -1.1936   -0.4915 C   0  0  0  0  0  0  0  0  0  0  0  0
    1.0236   -2.2327   -0.1621 H   0  0  0  0  0  0  0  0  0  0  0  0
    1.4990   -1.2166   -1.5280 H   0  0  0  0  0  0  0  0  0  0  0  0
    2.1945   -0.5001    0.3896 C   0  0  0  0  0  0  0  0  0  0  0  0
    2.2585    0.5578    0.1113 H   0  0  0  0  0  0  0  0  0  0  0  0
    1.9109   -0.5598    1.4445 H   0  0  0  0  0  0  0  0  0  0  0  0
    3.5462   -1.1822    0.1827 C   0  0  0  0  0  0  0  0  0  0  0  0
    3.4604   -2.2424    0.4644 H   0  0  0  0  0  0  0  0  0  0  0  0
    3.8037   -1.1526   -0.8864 H   0  0  0  0  0  0  0  0  0  0  0  0
    4.5766   -0.4980    0.9937 N   0  3  0  0  0  0  0  0  0  0  0  0
    4.3404   -0.5614    1.9855 H   0  0  0  0  0  0  0  0  0  0  0  0
    5.4884   -0.9358    0.8427 H   0  0  0  0  0  0  0  0  0  0  0  0
    4.6347    0.4869    0.7271 H   0  0  0  0  0  0  0  0  0  0  0  0
   -1.1271    1.0106    1.3706 C   0  0  0  0  0  0  0  0  0  0  0  0
   -1.9961    1.6761    0.8254 O   0  0  0  0  0  0  0  0  0  0  0  0
   -0.3219    1.5959    2.3322 N   0  0  0  0  0  0  0  0  0  0  0  0
    0.2126    0.9649    2.9204 H   0  0  0  0  0  0  0  0  0  0  0  0
   -0.5730    2.9467    2.8295 C   0  0  0  0  0  0  0  0  0  0  0  0
   -1.5534    3.0016    3.3153 H   0  0  0  0  0  0  0  0  0  0  0  0
    0.1916    3.2327    3.5585 H   0  0  0  0  0  0  0  0  0  0  0  0
   -0.5501    3.6710    2.0077 H   0  0  0  0  0  0  0  0  0  0  0  0
  1  2  1  0  0  0  0
  2  3  1  0  0  0  0
  2  4  1  0  0  0  0
  2  5  1  0  0  0  0
  5  6  2  0  0  0  0
  5  7  1  0  0  0  0
  7  8  1  0  0  0  0
  7  9  1  0  0  0  0
  9 10  1  0  0  0  0
  9 11  1  0  0  0  0
  9 27  1  0  0  0  0
 11 12  1  0  0  0  0
 11 13  1  0  0  0  0
 11 14  1  0  0  0  0
 14 15  1  0  0  0  0
 14 16  1  0  0  0  0
 14 17  1  0  0  0  0
 17 18  1  0  0  0  0
 17 19  1  0  0  0  0
 17 20  1  0  0  0  0
 20 21  1  0  0  0  0
 20 22  1  0  0  0  0
 20 23  1  0  0  0  0
 23 24  1  0  0  0  0
 23 25  1  0  0  0  0
 23 26  1  0  0  0  0
 27 28  2  0  0  0  0
 27 29  1  0  0  0  0
 29 30  1  0  0  0  0
 29 31  1  0  0  0  0
 31 32  1  0  0  0  0
 31 33  1  0  0  0  0
 31 34  1  0  0  0  0
M  CHG  1  23   1
M  END
$$$$

  -OEChem-02102214153D

 34 33  0     1  0  0  0  0  0999 V2000
   -3.7589   -4.0427    1.7925 H   0  0  0  0  0  0  0  0  0  0  0  0
   -3.7842   -3.0424    1.3511 C   0  0  0  0  0  0  0  0  0  0  0  0
   -4.4731   -2.4208    1.9284 H   0  0  0  0  0  0  0  0  0  0  0  0
   -4.1487   -3.1202    0.3238 H   0  0  0  0  0  0  0  0  0  0  0  0
   -2.3973   -2.4296    1.3647 C   0  0  0  0  0  0  0  0  0  0  0  0
   -1.4492   -3.0491    1.8266 O   0  0  0  0  0  0  0  0  0  0  0  0
   -2.1899   -1.1678    0.8455 N   0  0  0  0  0  0  0  0  0  0  0  0
   -3.0086   -0.6415    0.5383 H   0  0  0  0  0  0  0  0  0  0  0  0
   -0.9163   -0.4424    0.9471 C   0  0  1  0  0  0  0  0  0  0  0  0
   -0.3108   -0.8927    1.7340 H   0  0  0  0  0  0  0  0  0  0  0  0
   -0.2105   -0.5387   -0.4300 C   0  0  0  0  0  0  0  0  0  0  0  0
   -0.8534   -1.0691   -1.1417 H   0  0  0  0  0  0  0  0  0  0  0  0
   -0.0865    0.4741   -0.8298 H   0  0  0  0  0  0  0  0  0  0  0  0
    1.1733   -1.2184   -0.4403 C   0  0  0  0  0  0  0  0  0  0  0  0
    1.0147   -2.3004   -0.3618 H   0  0  0  0  0  0  0  0  0  0  0  0
    1.6311   -1.0253   -1.4171 H   0  0  0  0  0  0  0  0  0  0  0  0
    2.1437   -0.7933    0.6742 C   0  0  0  0  0  0  0  0  0  0  0  0
    2.2116    0.2998    0.7034 H   0  0  0  0  0  0  0  0  0  0  0  0
    1.7887   -1.1459    1.6468 H   0  0  0  0  0  0  0  0  0  0  0  0
    3.5179   -1.4009    0.3936 C   0  0  0  0  0  0  0  0  0  0  0  0
    3.4161   -2.4935    0.3114 H   0  0  0  0  0  0  0  0  0  0  0  0
    3.8813   -1.0372   -0.5790 H   0  0  0  0  0  0  0  0  0  0  0  0
    4.4534   -1.0388    1.4806 N   0  3  0  0  0  0  0  0  0  0  0  0
    4.1182   -1.4160    2.3694 H   0  0  0  0  0  0  0  0  0  0  0  0
    5.3806   -1.4247    1.2874 H   0  0  0  0  0  0  0  0  0  0  0  0
    4.5273   -0.0225    1.5556 H   0  0  0  0  0  0  0  0  0  0  0  0
   -1.1630    1.0244    1.3569 C   0  0  0  0  0  0  0  0  0  0  0  0
   -2.0271    1.6718    0.7826 O   0  0  0  0  0  0  0  0  0  0  0  0
   -0.3927    1.6304    2.3338 N   0  0  0  0  0  0  0  0  0  0  0  0
    0.1490    1.0177    2.9342 H   0  0  0  0  0  0  0  0  0  0  0  0
   -0.6672    2.9863    2.8031 C   0  0  0  0  0  0  0  0  0  0  0  0
   -1.6649    3.0431    3.2517 H   0  0  0  0  0  0  0  0  0  0  0  0
    0.0684    3.2863    3.5557 H   0  0  0  0  0  0  0  0  0  0  0  0
   -0.6169    3.6988    1.9725 H   0  0  0  0  0  0  0  0  0  0  0  0
  1  2  1  0  0  0  0
  2  3  1  0  0  0  0
  2  4  1  0  0  0  0
  2  5  1  0  0  0  0
  5  6  2  0  0  0  0
  5  7  1  0  0  0  0
  7  8  1  0  0  0  0
  7  9  1  0  0  0  0
  9 10  1  0  0  0  0
  9 11  1  0  0  0  0
  9 27  1  0  0  0  0
 11 12  1  0  0  0  0
 11 13  1  0  0  0  0
 11 14  1  0  0  0  0
 14 15  1  0  0  0  0
 14 16  1  0  0  0  0
 14 17  1  0  0  0  0
 17 18  1  0  0  0  0
 17 19  1  0  0  0  0
 17 20  1  0  0  0  0
 20 21  1  0  0  0  0
 20 22  1  0  0  0  0
 20 23  1  0  0  0  0
 23 24  1  0  0  0  0
 23 25  1  0  0  0  0
 23 26  1  0  0  0  0
 27 28  2  0  0  0  0
 27 29  1  0  0  0  0
 29 30  1  0  0  0  0
 29 31  1  0  0  0  0
 31 32  1  0  0  0  0
 31 33  1  0  0  0  0
 31 34  1  0  0  0  0
M  CHG  1  23   1
M  END
$$$$

  -OEChem-02102214153D

 34 33  0     1  0  0  0  0  0999 V2000
   -3.7895   -4.0120    1.8210 H   0  0  0  0  0  0  0  0  0  0  0  0
   -3.8068   -3.0180    1.3653 C   0  0  0  0  0  0  0  0  0  0  0  0
   -4.4997   -2.3863    1.9266 H   0  0  0  0  0  0  0  0  0  0  0  0
   -4.1613   -3.1091    0.3358 H   0  0  0  0  0  0  0  0  0  0  0  0
   -2.4179   -2.4098    1.3834 C   0  0  0  0  0  0  0  0  0  0  0  0
   -1.4757   -3.0257    1.8641 O   0  0  0  0  0  0  0  0  0  0  0  0
   -2.2002   -1.1568    0.8476 N   0  0  0  0  0  0  0  0  0  0  0  0
   -3.0133   -0.6288    0.5282 H   0  0  0  0  0  0  0  0  0  0  0  0
   -0.9265   -0.4347    0.9647 C   0  0  1  0  0  0  0  0  0  0  0  0
   -0.3425   -0.8637    1.7773 H   0  0  0  0  0  0  0  0  0  0  0  0
   -0.1946   -0.5447   -0.4004 C   0  0  0  0  0  0  0  0  0  0  0  0
   -0.8338   -1.0621   -1.1248 H   0  0  0  0  0  0  0  0  0  0  0  0
   -0.0590    0.4697   -0.7925 H   0  0  0  0  0  0  0  0  0  0  0  0
    1.1929   -1.2265   -0.4175 C   0  0  0  0  0  0  0  0  0  0  0  0
    1.0284   -2.2935   -0.6071 H   0  0  0  0  0  0  0  0  0  0  0  0
    1.7492   -0.8285   -1.2739 H   0  0  0  0  0  0  0  0  0  0  0  0
    2.0525   -1.1099    0.8516 C   0  0  0  0  0  0  0  0  0  0  0  0
    2.1353   -0.0589    1.1491 H   0  0  0  0  0  0  0  0  0  0  0  0
    1.5897   -1.6734    1.6681 H   0  0  0  0  0  0  0  0  0  0  0  0
    3.4374   -1.6938    0.5767 C   0  0  0  0  0  0  0  0  0  0  0  0
    3.3226   -2.7121    0.1760 H   0  0  0  0  0  0  0  0  0  0  0  0
    3.9359   -1.0954   -0.2001 H   0  0  0  0  0  0  0  0  0  0  0  0
    4.2218   -1.7090    1.8306 N   0  3  0  0  0  0  0  0  0  0  0  0
    3.7433   -2.2775    2.5330 H   0  0  0  0  0  0  0  0  0  0  0  0
    5.1482   -2.1067    1.6600 H   0  0  0  0  0  0  0  0  0  0  0  0
    4.3301   -0.7586    2.1885 H   0  0  0  0  0  0  0  0  0  0  0  0
   -1.1881    1.0378    1.3470 C   0  0  0  0  0  0  0  0  0  0  0  0
   -2.0557    1.6663    0.7569 O   0  0  0  0  0  0  0  0  0  0  0  0
   -0.4439    1.6637    2.3316 N   0  0  0  0  0  0  0  0  0  0  0  0
    0.1164    1.0715    2.9351 H   0  0  0  0  0  0  0  0  0  0  0  0
   -0.7298    3.0264    2.7736 C   0  0  0  0  0  0  0  0  0  0  0  0
   -1.7372    3.0893    3.1994 H   0  0  0  0  0  0  0  0  0  0  0  0
   -0.0110    3.3389    3.5374 H   0  0  0  0  0  0  0  0  0  0  0  0
   -0.6615    3.7257    1.9329 H   0  0  0  0  0  0  0  0  0  0  0  0
  1  2  1  0  0  0  0
  2  3  1  0  0  0  0
  2  4  1  0  0  0  0
  2  5  1  0  0  0  0
  5  6  2  0  0  0  0
  5  7  1  0  0  0  0
  7  8  1  0  0  0  0
  7  9  1  0  0  0  0
  9 10  1  0  0  0  0
  9 11  1  0  0  0  0
  9 27  1  0  0  0  0
 11 12  1  0  0  0  0
 11 13  1  0  0  0  0
 11 14  1  0  0  0  0
 14 15  1  0  0  0  0
 14 16  1  0  0  0  0
 14 17  1  0  0  0  0
 17 18  1  0  0  0  0
 17 19  1  0  0  0  0
 17 20  1  0  0  0  0
 20 21  1  0  0  0  0
 20 22  1  0  0  0  0
 20 23  1  0  0  0  0
 23 24  1  0  0  0  0
 23 25  1  0  0  0  0
 23 26  1  0  0  0  0
 27 28  2  0  0  0  0
 27 29  1  0  0  0  0
 29 30  1  0  0  0  0
 29 31  1  0  0  0  0
 31 32  1  0  0  0  0
 31 33  1  0  0  0  0
 31 34  1  0  0  0  0
M  CHG  1  23   1
M  END
$$$$

  -OEChem-02102214153D

 34 33  0     1  0  0  0  0  0999 V2000
   -3.7845   -3.9924    1.8559 H   0  0  0  0  0  0  0  0  0  0  0  0
   -3.7995   -3.0008    1.3948 C   0  0  0  0  0  0  0  0  0  0  0  0
   -4.4896   -2.3636    1.9535 H   0  0  0  0  0  0  0  0  0  0  0  0
   -4.1565   -3.0966    0.3663 H   0  0  0  0  0  0  0  0  0  0  0  0
   -2.4092   -2.3952    1.4068 C   0  0  0  0  0  0  0  0  0  0  0  0
   -1.4665   -3.0077    1.8929 O   0  0  0  0  0  0  0  0  0  0  0  0
   -2.1903   -1.1492    0.8559 N   0  0  0  0  0  0  0  0  0  0  0  0
   -3.0036   -0.6200    0.5384 H   0  0  0  0  0  0  0  0  0  0  0  0
   -0.9189   -0.4246    0.9775 C   0  0  1  0  0  0  0  0  0  0  0  0
   -0.3432   -0.8304    1.8073 H   0  0  0  0  0  0  0  0  0  0  0  0
   -0.1731   -0.5350   -0.3824 C   0  0  0  0  0  0  0  0  0  0  0  0
   -0.8117   -1.0516   -1.1081 H   0  0  0  0  0  0  0  0  0  0  0  0
   -0.0408    0.4791   -0.7766 H   0  0  0  0  0  0  0  0  0  0  0  0
    1.2201   -1.2132   -0.4073 C   0  0  0  0  0  0  0  0  0  0  0  0
    1.0902   -2.1995   -0.8674 H   0  0  0  0  0  0  0  0  0  0  0  0
    1.8658   -0.6315   -1.0750 H   0  0  0  0  0  0  0  0  0  0  0  0
    1.9394   -1.4204    0.9345 C   0  0  0  0  0  0  0  0  0  0  0  0
    2.0580   -0.4616    1.4505 H   0  0  0  0  0  0  0  0  0  0  0  0
    1.3430   -2.0909    1.5634 H   0  0  0  0  0  0  0  0  0  0  0  0
    3.3032   -2.0643    0.6920 C   0  0  0  0  0  0  0  0  0  0  0  0
    3.1730   -2.9408    0.0399 H   0  0  0  0  0  0  0  0  0  0  0  0
    3.9524   -1.3559    0.1568 H   0  0  0  0  0  0  0  0  0  0  0  0
    3.8893   -2.4631    1.9902 N   0  3  0  0  0  0  0  0  0  0  0  0
    3.2521   -3.0981    2.4772 H   0  0  0  0  0  0  0  0  0  0  0  0
    4.7811   -2.9405    1.8416 H   0  0  0  0  0  0  0  0  0  0  0  0
    4.0467   -1.6396    2.5733 H   0  0  0  0  0  0  0  0  0  0  0  0
   -1.2017    1.0506    1.3378 C   0  0  0  0  0  0  0  0  0  0  0  0
   -2.0860    1.6529    0.7445 O   0  0  0  0  0  0  0  0  0  0  0  0
   -0.4801    1.7012    2.3230 N   0  0  0  0  0  0  0  0  0  0  0  0
    0.1252    1.1389    2.9113 H   0  0  0  0  0  0  0  0  0  0  0  0
   -0.7857    3.0661    2.7439 C   0  0  0  0  0  0  0  0  0  0  0  0
   -1.7970    3.1229    3.1611 H   0  0  0  0  0  0  0  0  0  0  0  0
   -0.0768    3.3975    3.5088 H   0  0  0  0  0  0  0  0  0  0  0  0
   -0.7192    3.7542    1.8941 H   0  0  0  0  0  0  0  0  0  0  0  0
  1  2  1  0  0  0  0
  2  3  1  0  0  0  0
  2  4  1  0  0  0  0
  2  5  1  0  0  0  0
  5  6  2  0  0  0  0
  5  7  1  0  0  0  0
  7  8  1  0  0  0  0
  7  9  1  0  0  0  0
  9 10  1  0  0  0  0
  9 11  1  0  0  0  0
  9 27  1  0  0  0  0
 11 12  1  0  0  0  0
 11 13  1  0  0  0  0
 11 14  1  0  0  0  0
 14 15  1  0  0  0  0
 14 16  1  0  0  0  0
 14 17  1  0  0  0  0
 17 18  1  0  0  0  0
 17 19  1  0  0  0  0
 17 20  1  0  0  0  0
 20 21  1  0  0  0  0
 20 22  1  0  0  0  0
 20 23  1  0  0  0  0
 23 24  1  0  0  0  0
 23 25  1  0  0  0  0
 23 26  1  0  0  0  0
 27 28  2  0  0  0  0
 27 29  1  0  0  0  0
 29 30  1  0  0  0  0
 29 31  1  0  0  0  0
 31 32  1  0  0  0  0
 31 33  1  0  0  0  0
 31 34  1  0  0  0  0
M  CHG  1  23   1
M  END
$$$$

  -OEChem-02102214153D

 34 33  0     1  0  0  0  0  0999 V2000
   -3.7608   -3.9938    1.8870 H   0  0  0  0  0  0  0  0  0  0  0  0
   -3.7780   -3.0042    1.4215 C   0  0  0  0  0  0  0  0  0  0  0  0
   -4.4632   -2.3636    1.9822 H   0  0  0  0  0  0  0  0  0  0  0  0
   -4.1425   -3.1040    0.3961 H   0  0  0  0  0  0  0  0  0  0  0  0
   -2.3873   -2.3996    1.4213 C   0  0  0  0  0  0  0  0  0  0  0  0
   -1.4419   -3.0150    1.8995 O   0  0  0  0  0  0  0  0  0  0  0  0
   -2.1714   -1.1557    0.8645 N   0  0  0  0  0  0  0  0  0  0  0  0
   -2.9883   -0.6276    0.5534 H   0  0  0  0  0  0  0  0  0  0  0  0
   -0.9043   -0.4214    0.9827 C   0  0  1  0  0  0  0  0  0  0  0  0
   -0.3290   -0.8131    1.8199 H   0  0  0  0  0  0  0  0  0  0  0  0
   -0.1495   -0.5255   -0.3742 C   0  0  0  0  0  0  0  0  0  0  0  0
   -0.7820   -1.0673   -1.0868 H   0  0  0  0  0  0  0  0  0  0  0  0
   -0.0388    0.4831   -0.7889 H   0  0  0  0  0  0  0  0  0  0  0  0
    1.2523   -1.1902   -0.3997 C   0  0  0  0  0  0  0  0  0  0  0  0
    1.2022   -2.0291   -1.1033 H   0  0  0  0  0  0  0  0  0  0  0  0
    1.9640   -0.4675   -0.8148 H   0  0  0  0  0  0  0  0  0  0  0  0
    1.8094   -1.7124    0.9334 C   0  0  0  0  0  0  0  0  0  0  0  0
    1.9685   -0.8815    1.6289 H   0  0  0  0  0  0  0  0  0  0  0  0
    1.0836   -2.4057    1.3712 H   0  0  0  0  0  0  0  0  0  0  0  0
    3.1181   -2.4637    0.7052 C   0  0  0  0  0  0  0  0  0  0  0  0
    2.9834   -3.1755   -0.1228 H   0  0  0  0  0  0  0  0  0  0  0  0
    3.9032   -1.7559    0.4010 H   0  0  0  0  0  0  0  0  0  0  0  0
    3.4740   -3.1747    1.9524 N   0  3  0  0  0  0  0  0  0  0  0  0
    2.6984   -3.7788    2.2375 H   0  0  0  0  0  0  0  0  0  0  0  0
    4.3057   -3.7508    1.8059 H   0  0  0  0  0  0  0  0  0  0  0  0
    3.6609   -2.5037    2.6991 H   0  0  0  0  0  0  0  0  0  0  0  0
   -1.1995    1.0540    1.3335 C   0  0  0  0  0  0  0  0  0  0  0  0
   -2.1034    1.6376    0.7511 O   0  0  0  0  0  0  0  0  0  0  0  0
   -0.4853    1.7187    2.3146 N   0  0  0  0  0  0  0  0  0  0  0  0
    0.1689    1.1813    2.8731 H   0  0  0  0  0  0  0  0  0  0  0  0
   -0.7943    3.0862    2.7246 C   0  0  0  0  0  0  0  0  0  0  0  0
   -1.8039    3.1423    3.1460 H   0  0  0  0  0  0  0  0  0  0  0  0
   -0.0832    3.4266    3.4838 H   0  0  0  0  0  0  0  0  0  0  0  0
   -0.7341    3.7679    1.8690 H   0  0  0  0  0  0  0  0  0  0  0  0
  1  2  1  0  0  0  0
  2  3  1  0  0  0  0
  2  4  1  0  0  0  0
  2  5  1  0  0  0  0
  5  6  2  0  0  0  0
  5  7  1  0  0  0  0
  7  8  1  0  0  0  0
  7  9  1  0  0  0  0
  9 10  1  0  0  0  0
  9 11  1  0  0  0  0
  9 27  1  0  0  0  0
 11 12  1  0  0  0  0
 11 13  1  0  0  0  0
 11 14  1  0  0  0  0
 14 15  1  0  0  0  0
 14 16  1  0  0  0  0
 14 17  1  0  0  0  0
 17 18  1  0  0  0  0
 17 19  1  0  0  0  0
 17 20  1  0  0  0  0
 20 21  1  0  0  0  0
 20 22  1  0  0  0  0
 20 23  1  0  0  0  0
 23 24  1  0  0  0  0
 23 25  1  0  0  0  0
 23 26  1  0  0  0  0
 27 28  2  0  0  0  0
 27 29  1  0  0  0  0
 29 30  1  0  0  0  0
 29 31  1  0  0  0  0
 31 32  1  0  0  0  0
 31 33  1  0  0  0  0
 31 34  1  0  0  0  0
M  CHG  1  23   1
M  END
$$$$

  -OEChem-02102214153D

 34 33  0     1  0  0  0  0  0999 V2000
   -3.7774   -3.9840    1.8990 H   0  0  0  0  0  0  0  0  0  0  0  0
   -3.7747   -2.9959    1.4307 C   0  0  0  0  0  0  0  0  0  0  0  0
   -4.4562   -2.3436    1.9825 H   0  0  0  0  0  0  0  0  0  0  0  0
   -4.1297   -3.0926    0.4017 H   0  0  0  0  0  0  0  0  0  0  0  0
   -2.3752   -2.4122    1.4438 C   0  0  0  0  0  0  0  0  0  0  0  0
   -1.4493   -3.0361    1.9472 O   0  0  0  0  0  0  0  0  0  0  0  0
   -2.1407   -1.1736    0.8829 N   0  0  0  0  0  0  0  0  0  0  0  0
   -2.9537   -0.6447    0.5617 H   0  0  0  0  0  0  0  0  0  0  0  0
   -0.8747   -0.4335    0.9936 C   0  0  1  0  0  0  0  0  0  0  0  0
   -0.2930   -0.8193    1.8302 H   0  0  0  0  0  0  0  0  0  0  0  0
   -0.1111   -0.5227   -0.3607 C   0  0  0  0  0  0  0  0  0  0  0  0
   -0.7347   -1.0896   -1.0611 H   0  0  0  0  0  0  0  0  0  0  0  0
   -0.0209    0.4805   -0.7931 H   0  0  0  0  0  0  0  0  0  0  0  0
    1.2968   -1.1737   -0.3805 C   0  0  0  0  0  0  0  0  0  0  0  0
    1.3564   -1.8067   -1.2731 H   0  0  0  0  0  0  0  0  0  0  0  0
    2.0402   -0.3777   -0.5016 H   0  0  0  0  0  0  0  0  0  0  0  0
    1.6824   -2.0012    0.8548 C   0  0  0  0  0  0  0  0  0  0  0  0
    1.8553   -1.3434    1.7129 H   0  0  0  0  0  0  0  0  0  0  0  0
    0.8557   -2.6757    1.0896 H   0  0  0  0  0  0  0  0  0  0  0  0
    2.9244   -2.8463    0.5921 C   0  0  0  0  0  0  0  0  0  0  0  0
    2.8026   -3.3782   -0.3629 H   0  0  0  0  0  0  0  0  0  0  0  0
    3.8054   -2.1953    0.4934 H   0  0  0  0  0  0  0  0  0  0  0  0
    3.0686   -3.8038    1.7107 N   0  3  0  0  0  0  0  0  0  0  0  0
    2.1979   -4.3298    1.8271 H   0  0  0  0  0  0  0  0  0  0  0  0
    3.8295   -4.4592    1.5211 H   0  0  0  0  0  0  0  0  0  0  0  0
    3.2670   -3.3040    2.5789 H   0  0  0  0  0  0  0  0  0  0  0  0
   -1.1848    1.0419    1.3302 C   0  0  0  0  0  0  0  0  0  0  0  0
   -2.1046    1.6052    0.7518 O   0  0  0  0  0  0  0  0  0  0  0  0
   -0.4783    1.7222    2.3054 N   0  0  0  0  0  0  0  0  0  0  0  0
    0.2093    1.2071    2.8451 H   0  0  0  0  0  0  0  0  0  0  0  0
   -0.8073    3.0858    2.7112 C   0  0  0  0  0  0  0  0  0  0  0  0
   -1.8223    3.1304    3.1207 H   0  0  0  0  0  0  0  0  0  0  0  0
   -0.1094    3.4339    3.4790 H   0  0  0  0  0  0  0  0  0  0  0  0
   -0.7446    3.7670    1.8556 H   0  0  0  0  0  0  0  0  0  0  0  0
  1  2  1  0  0  0  0
  2  3  1  0  0  0  0
  2  4  1  0  0  0  0
  2  5  1  0  0  0  0
  5  6  2  0  0  0  0
  5  7  1  0  0  0  0
  7  8  1  0  0  0  0
  7  9  1  0  0  0  0
  9 10  1  0  0  0  0
  9 11  1  0  0  0  0
  9 27  1  0  0  0  0
 11 12  1  0  0  0  0
 11 13  1  0  0  0  0
 11 14  1  0  0  0  0
 14 15  1  0  0  0  0
 14 16  1  0  0  0  0
 14 17  1  0  0  0  0
 17 18  1  0  0  0  0
 17 19  1  0  0  0  0
 17 20  1  0  0  0  0
 20 21  1  0  0  0  0
 20 22  1  0  0  0  0
 20 23  1  0  0  0  0
 23 24  1  0  0  0  0
 23 25  1  0  0  0  0
 23 26  1  0  0  0  0
 27 28  2  0  0  0  0
 27 29  1  0  0  0  0
 29 30  1  0  0  0  0
 29 31  1  0  0  0  0
 31 32  1  0  0  0  0
 31 33  1  0  0  0  0
 31 34  1  0  0  0  0
M  CHG  1  23   1
M  END
$$$$

  -OEChem-02102214153D

 34 33  0     1  0  0  0  0  0999 V2000
   -3.8032   -3.9822    1.8895 H   0  0  0  0  0  0  0  0  0  0  0  0
   -3.7916   -2.9913    1.4272 C   0  0  0  0  0  0  0  0  0  0  0  0
   -4.4628   -2.3349    1.9868 H   0  0  0  0  0  0  0  0  0  0  0  0
   -4.1538   -3.0779    0.3998 H   0  0  0  0  0  0  0  0  0  0  0  0
   -2.3854   -2.4235    1.4366 C   0  0  0  0  0  0  0  0  0  0  0  0
   -1.4661   -3.0618    1.9346 O   0  0  0  0  0  0  0  0  0  0  0  0
   -2.1403   -1.1843    0.8814 N   0  0  0  0  0  0  0  0  0  0  0  0
   -2.9499   -0.6440    0.5706 H   0  0  0  0  0  0  0  0  0  0  0  0
   -0.8657   -0.4574    0.9860 C   0  0  1  0  0  0  0  0  0  0  0  0
   -0.2784   -0.8532    1.8137 H   0  0  0  0  0  0  0  0  0  0  0  0
   -0.1044   -0.5348   -0.3698 C   0  0  0  0  0  0  0  0  0  0  0  0
   -0.7293   -1.0967   -1.0728 H   0  0  0  0  0  0  0  0  0  0  0  0
   -0.0037    0.4701   -0.7962 H   0  0  0  0  0  0  0  0  0  0  0  0
    1.2956   -1.1974   -0.3780 C   0  0  0  0  0  0  0  0  0  0  0  0
    1.4725   -1.5999   -1.3818 H   0  0  0  0  0  0  0  0  0  0  0  0
    2.0477   -0.4201   -0.2028 H   0  0  0  0  0  0  0  0  0  0  0  0
    1.4967   -2.3036    0.6684 C   0  0  0  0  0  0  0  0  0  0  0  0
    1.5681   -1.8751    1.6727 H   0  0  0  0  0  0  0  0  0  0  0  0
    0.6296   -2.9676    0.6281 H   0  0  0  0  0  0  0  0  0  0  0  0
    2.7442   -3.1325    0.3898 C   0  0  0  0  0  0  0  0  0  0  0  0
    2.7191   -3.4904   -0.6500 H   0  0  0  0  0  0  0  0  0  0  0  0
    3.6413   -2.5060    0.4995 H   0  0  0  0  0  0  0  0  0  0  0  0
    2.7444   -4.2644    1.3426 N   0  3  0  0  0  0  0  0  0  0  0  0
    1.8537   -4.7653    1.2818 H   0  0  0  0  0  0  0  0  0  0  0  0
    3.5062   -4.9109    1.1282 H   0  0  0  0  0  0  0  0  0  0  0  0
    2.8572   -3.9188    2.2973 H   0  0  0  0  0  0  0  0  0  0  0  0
   -1.1573    1.0192    1.3335 C   0  0  0  0  0  0  0  0  0  0  0  0
   -2.0744    1.5963    0.7643 O   0  0  0  0  0  0  0  0  0  0  0  0
   -0.4346    1.6852    2.3067 N   0  0  0  0  0  0  0  0  0  0  0  0
    0.2526    1.1587    2.8363 H   0  0  0  0  0  0  0  0  0  0  0  0
   -0.7372    3.0530    2.7186 C   0  0  0  0  0  0  0  0  0  0  0  0
   -1.7454    3.1123    3.1429 H   0  0  0  0  0  0  0  0  0  0  0  0
   -0.0229    3.3897    3.4765 H   0  0  0  0  0  0  0  0  0  0  0  0
   -0.6766    3.7347    1.8631 H   0  0  0  0  0  0  0  0  0  0  0  0
  1  2  1  0  0  0  0
  2  3  1  0  0  0  0
  2  4  1  0  0  0  0
  2  5  1  0  0  0  0
  5  6  2  0  0  0  0
  5  7  1  0  0  0  0
  7  8  1  0  0  0  0
  7  9  1  0  0  0  0
  9 10  1  0  0  0  0
  9 11  1  0  0  0  0
  9 27  1  0  0  0  0
 11 12  1  0  0  0  0
 11 13  1  0  0  0  0
 11 14  1  0  0  0  0
 14 15  1  0  0  0  0
 14 16  1  0  0  0  0
 14 17  1  0  0  0  0
 17 18  1  0  0  0  0
 17 19  1  0  0  0  0
 17 20  1  0  0  0  0
 20 21  1  0  0  0  0
 20 22  1  0  0  0  0
 20 23  1  0  0  0  0
 23 24  1  0  0  0  0
 23 25  1  0  0  0  0
 23 26  1  0  0  0  0
 27 28  2  0  0  0  0
 27 29  1  0  0  0  0
 29 30  1  0  0  0  0
 29 31  1  0  0  0  0
 31 32  1  0  0  0  0
 31 33  1  0  0  0  0
 31 34  1  0  0  0  0
M  CHG  1  23   1
M  END
$$$$

  -OEChem-02102214153D

 34 33  0     1  0  0  0  0  0999 V2000
   -3.7830   -3.9914    1.8910 H   0  0  0  0  0  0  0  0  0  0  0  0
   -3.7764   -2.9943    1.4418 C   0  0  0  0  0  0  0  0  0  0  0  0
   -4.4137   -2.3367    2.0386 H   0  0  0  0  0  0  0  0  0  0  0  0
   -4.1834   -3.0609    0.4297 H   0  0  0  0  0  0  0  0  0  0  0  0
   -2.3629   -2.4463    1.3977 C   0  0  0  0  0  0  0  0  0  0  0  0
   -1.4283   -3.1155    1.8225 O   0  0  0  0  0  0  0  0  0  0  0  0
   -2.1268   -1.1978    0.8594 N   0  0  0  0  0  0  0  0  0  0  0  0
   -2.9438   -0.6402    0.6031 H   0  0  0  0  0  0  0  0  0  0  0  0
   -0.8482   -0.4770    0.9525 C   0  0  1  0  0  0  0  0  0  0  0  0
   -0.2429   -0.8846    1.7627 H   0  0  0  0  0  0  0  0  0  0  0  0
   -0.1083   -0.5434   -0.4120 C   0  0  0  0  0  0  0  0  0  0  0  0
   -0.7386   -1.0877   -1.1239 H   0  0  0  0  0  0  0  0  0  0  0  0
    0.0082    0.4676   -0.8191 H   0  0  0  0  0  0  0  0  0  0  0  0
    1.2817   -1.2181   -0.4018 C   0  0  0  0  0  0  0  0  0  0  0  0
    1.5811   -1.4001   -1.4400 H   0  0  0  0  0  0  0  0  0  0  0  0
    2.0109   -0.5265    0.0343 H   0  0  0  0  0  0  0  0  0  0  0  0
    1.3104   -2.5367    0.3884 C   0  0  0  0  0  0  0  0  0  0  0  0
    1.2297   -2.3447    1.4618 H   0  0  0  0  0  0  0  0  0  0  0  0
    0.4493   -3.1379    0.0784 H   0  0  0  0  0  0  0  0  0  0  0  0
    2.5805   -3.3359    0.1317 C   0  0  0  0  0  0  0  0  0  0  0  0
    2.6973   -3.5043   -0.9489 H   0  0  0  0  0  0  0  0  0  0  0  0
    3.4551   -2.7626    0.4719 H   0  0  0  0  0  0  0  0  0  0  0  0
    2.4454   -4.6136    0.8648 N   0  3  0  0  0  0  0  0  0  0  0  0
    1.6107   -5.1092    0.5428 H   0  0  0  0  0  0  0  0  0  0  0  0
    3.2655   -5.2032    0.7111 H   0  0  0  0  0  0  0  0  0  0  0  0
    2.3452   -4.4315    1.8656 H   0  0  0  0  0  0  0  0  0  0  0  0
   -1.1271    0.9945    1.3312 C   0  0  0  0  0  0  0  0  0  0  0  0
   -2.0619    1.5799    0.8007 O   0  0  0  0  0  0  0  0  0  0  0  0
   -0.3829    1.6403    2.3017 N   0  0  0  0  0  0  0  0  0  0  0  0
    0.3318    1.1099    2.7895 H   0  0  0  0  0  0  0  0  0  0  0  0
   -0.6689    3.0019    2.7450 C   0  0  0  0  0  0  0  0  0  0  0  0
   -1.6669    3.0586    3.1929 H   0  0  0  0  0  0  0  0  0  0  0  0
    0.0639    3.3203    3.4932 H   0  0  0  0  0  0  0  0  0  0  0  0
   -0.6231    3.6992    1.9012 H   0  0  0  0  0  0  0  0  0  0  0  0
  1  2  1  0  0  0  0
  2  3  1  0  0  0  0
  2  4  1  0  0  0  0
  2  5  1  0  0  0  0
  5  6  2  0  0  0  0
  5  7  1  0  0  0  0
  7  8  1  0  0  0  0
  7  9  1  0  0  0  0
  9 10  1  0  0  0  0
  9 11  1  0  0  0  0
  9 27  1  0  0  0  0
 11 12  1  0  0  0  0
 11 13  1  0  0  0  0
 11 14  1  0  0  0  0
 14 15  1  0  0  0  0
 14 16  1  0  0  0  0
 14 17  1  0  0  0  0
 17 18  1  0  0  0  0
 17 19  1  0  0  0  0
 17 20  1  0  0  0  0
 20 21  1  0  0  0  0
 20 22  1  0  0  0  0
 20 23  1  0  0  0  0
 23 24  1  0  0  0  0
 23 25  1  0  0  0  0
 23 26  1  0  0  0  0
 27 28  2  0  0  0  0
 27 29  1  0  0  0  0
 29 30  1  0  0  0  0
 29 31  1  0  0  0  0
 31 32  1  0  0  0  0
 31 33  1  0  0  0  0
 31 34  1  0  0  0  0
M  CHG  1  23   1
M  END
$$$$

  -OEChem-02102214153D

 34 33  0     1  0  0  0  0  0999 V2000
   -3.7860   -4.0039    1.8630 H   0  0  0  0  0  0  0  0  0  0  0  0
   -3.7723   -3.0015    1.4262 C   0  0  0  0  0  0  0  0  0  0  0  0
   -4.3800   -2.3399    2.0489 H   0  0  0  0  0  0  0  0  0  0  0  0
   -4.2088   -3.0471    0.4254 H   0  0  0  0  0  0  0  0  0  0  0  0
   -2.3507   -2.4783    1.3497 C   0  0  0  0  0  0  0  0  0  0  0  0
   -1.4165   -3.1800    1.7156 O   0  0  0  0  0  0  0  0  0  0  0  0
   -2.1127   -1.2184    0.8405 N   0  0  0  0  0  0  0  0  0  0  0  0
   -2.9338   -0.6505    0.6230 H   0  0  0  0  0  0  0  0  0  0  0  0
   -0.8344   -0.4930    0.9203 C   0  0  1  0  0  0  0  0  0  0  0  0
   -0.2056   -0.9283    1.7009 H   0  0  0  0  0  0  0  0  0  0  0  0
   -0.1236   -0.5521   -0.4567 C   0  0  0  0  0  0  0  0  0  0  0  0
   -0.7583   -1.0826   -1.1752 H   0  0  0  0  0  0  0  0  0  0  0  0
    0.0000    0.4645   -0.8481 H   0  0  0  0  0  0  0  0  0  0  0  0
    1.2609   -1.2275   -0.4261 C   0  0  0  0  0  0  0  0  0  0  0  0
    1.6747   -1.2042   -1.4404 H   0  0  0  0  0  0  0  0  0  0  0  0
    1.9368   -0.6572    0.2205 H   0  0  0  0  0  0  0  0  0  0  0  0
    1.1739   -2.6810    0.0595 C   0  0  0  0  0  0  0  0  0  0  0  0
    0.9855   -2.6901    1.1364 H   0  0  0  0  0  0  0  0  0  0  0  0
    0.3335   -3.1757   -0.4406 H   0  0  0  0  0  0  0  0  0  0  0  0
    2.4516   -3.4626   -0.2115 C   0  0  0  0  0  0  0  0  0  0  0  0
    2.6616   -3.4681   -1.2911 H   0  0  0  0  0  0  0  0  0  0  0  0
    3.2986   -2.9685    0.2862 H   0  0  0  0  0  0  0  0  0  0  0  0
    2.2407   -4.8313    0.3080 N   0  3  0  0  0  0  0  0  0  0  0  0
    1.5207   -5.3040   -0.2422 H   0  0  0  0  0  0  0  0  0  0  0  0
    3.1072   -5.3701    0.2596 H   0  0  0  0  0  0  0  0  0  0  0  0
    1.9260   -4.7870    1.2804 H   0  0  0  0  0  0  0  0  0  0  0  0
   -1.0992    0.9700    1.3364 C   0  0  0  0  0  0  0  0  0  0  0  0
   -2.0453    1.5666    0.8398 O   0  0  0  0  0  0  0  0  0  0  0  0
   -0.3306    1.5946    2.3016 N   0  0  0  0  0  0  0  0  0  0  0  0
    0.3904    1.0516    2.7664 H   0  0  0  0  0  0  0  0  0  0  0  0
   -0.6069    2.9461    2.7797 C   0  0  0  0  0  0  0  0  0  0  0  0
   -1.5945    2.9922    3.2515 H   0  0  0  0  0  0  0  0  0  0  0  0
    0.1425    3.2501    3.5171 H   0  0  0  0  0  0  0  0  0  0  0  0
   -0.5811    3.6604    1.9495 H   0  0  0  0  0  0  0  0  0  0  0  0
  1  2  1  0  0  0  0
  2  3  1  0  0  0  0
  2  4  1  0  0  0  0
  2  5  1  0  0  0  0
  5  6  2  0  0  0  0
  5  7  1  0  0  0  0
  7  8  1  0  0  0  0
  7  9  1  0  0  0  0
  9 10  1  0  0  0  0
  9 11  1  0  0  0  0
  9 27  1  0  0  0  0
 11 12  1  0  0  0  0
 11 13  1  0  0  0  0
 11 14  1  0  0  0  0
 14 15  1  0  0  0  0
 14 16  1  0  0  0  0
 14 17  1  0  0  0  0
 17 18  1  0  0  0  0
 17 19  1  0  0  0  0
 17 20  1  0  0  0  0
 20 21  1  0  0  0  0
 20 22  1  0  0  0  0
 20 23  1  0  0  0  0
 23 24  1  0  0  0  0
 23 25  1  0  0  0  0
 23 26  1  0  0  0  0
 27 28  2  0  0  0  0
 27 29  1  0  0  0  0
 29 30  1  0  0  0  0
 29 31  1  0  0  0  0
 31 32  1  0  0  0  0
 31 33  1  0  0  0  0
 31 34  1  0  0  0  0
M  CHG  1  23   1
M  END
$$$$

  -OEChem-02102214153D

 34 33  0     1  0  0  0  0  0999 V2000
   -3.8300   -4.0059    1.8282 H   0  0  0  0  0  0  0  0  0  0  0  0
   -3.8092   -2.9970    1.4070 C   0  0  0  0  0  0  0  0  0  0  0  0
   -4.4097   -2.3405    2.0417 H   0  0  0  0  0  0  0  0  0  0  0  0
   -4.2482   -3.0238    0.4066 H   0  0  0  0  0  0  0  0  0  0  0  0
   -2.3826   -2.4864    1.3369 C   0  0  0  0  0  0  0  0  0  0  0  0
   -1.4591   -3.1993    1.7035 O   0  0  0  0  0  0  0  0  0  0  0  0
   -2.1313   -1.2229    0.8436 N   0  0  0  0  0  0  0  0  0  0  0  0
   -2.9477   -0.6464    0.6317 H   0  0  0  0  0  0  0  0  0  0  0  0
   -0.8426   -0.5121    0.9007 C   0  0  1  0  0  0  0  0  0  0  0  0
   -0.1960   -0.9781    1.6505 H   0  0  0  0  0  0  0  0  0  0  0  0
   -0.1687   -0.5588   -0.4946 C   0  0  0  0  0  0  0  0  0  0  0  0
   -0.8270   -1.0547   -1.2163 H   0  0  0  0  0  0  0  0  0  0  0  0
   -0.0306    0.4655   -0.8594 H   0  0  0  0  0  0  0  0  0  0  0  0
    1.2073   -1.2494   -0.4914 C   0  0  0  0  0  0  0  0  0  0  0  0
    1.7110   -1.0080   -1.4340 H   0  0  0  0  0  0  0  0  0  0  0  0
    1.8250   -0.8547    0.3228 H   0  0  0  0  0  0  0  0  0  0  0  0
    1.0731   -2.7718   -0.3768 C   0  0  0  0  0  0  0  0  0  0  0  0
    0.6883   -3.0120    0.6146 H   0  0  0  0  0  0  0  0  0  0  0  0
    0.3579   -3.1369   -1.1223 H   0  0  0  0  0  0  0  0  0  0  0  0
    2.4104   -3.4788   -0.5539 C   0  0  0  0  0  0  0  0  0  0  0  0
    2.7917   -3.3046   -1.5708 H   0  0  0  0  0  0  0  0  0  0  0  0
    3.1431   -3.0552    0.1484 H   0  0  0  0  0  0  0  0  0  0  0  0
    2.1883   -4.9173   -0.2916 N   0  3  0  0  0  0  0  0  0  0  0  0
    1.5742   -5.3112   -1.0069 H   0  0  0  0  0  0  0  0  0  0  0  0
    3.0764   -5.4224   -0.2979 H   0  0  0  0  0  0  0  0  0  0  0  0
    1.7420   -5.0358    0.6220 H   0  0  0  0  0  0  0  0  0  0  0  0
   -1.0767    0.9483    1.3450 C   0  0  0  0  0  0  0  0  0  0  0  0
   -2.0227    1.5673    0.8761 O   0  0  0  0  0  0  0  0  0  0  0  0
   -0.2738    1.5475    2.2985 N   0  0  0  0  0  0  0  0  0  0  0  0
    0.4406    0.9813    2.7455 H   0  0  0  0  0  0  0  0  0  0  0  0
   -0.5249    2.8904    2.8140 C   0  0  0  0  0  0  0  0  0  0  0  0
   -1.4984    2.9340    3.3144 H   0  0  0  0  0  0  0  0  0  0  0  0
    0.2474    3.1706    3.5370 H   0  0  0  0  0  0  0  0  0  0  0  0
   -0.5157    3.6238    2.0002 H   0  0  0  0  0  0  0  0  0  0  0  0
  1  2  1  0  0  0  0
  2  3  1  0  0  0  0
  2  4  1  0  0  0  0
  2  5  1  0  0  0  0
  5  6  2  0  0  0  0
  5  7  1  0  0  0  0
  7  8  1  0  0  0  0
  7  9  1  0  0  0  0
  9 10  1  0  0  0  0
  9 11  1  0  0  0  0
  9 27  1  0  0  0  0
 11 12  1  0  0  0  0
 11 13  1  0  0  0  0
 11 14  1  0  0  0  0
 14 15  1  0  0  0  0
 14 16  1  0  0  0  0
 14 17  1  0  0  0  0
 17 18  1  0  0  0  0
 17 19  1  0  0  0  0
 17 20  1  0  0  0  0
 20 21  1  0  0  0  0
 20 22  1  0  0  0  0
 20 23  1  0  0  0  0
 23 24  1  0  0  0  0
 23 25  1  0  0  0  0
 23 26  1  0  0  0  0
 27 28  2  0  0  0  0
 27 29  1  0  0  0  0
 29 30  1  0  0  0  0
 29 31  1  0  0  0  0
 31 32  1  0  0  0  0
 31 33  1  0  0  0  0
 31 34  1  0  0  0  0
M  CHG  1  23   1
M  END
$$$$

  -OEChem-02102214153D

 34 33  0     1  0  0  0  0  0999 V2000
   -3.1723   -4.4381    1.6399 H   0  0  0  0  0  0  0  0  0  0  0  0
   -3.3139   -3.3913    1.3577 C   0  0  0  0  0  0  0  0  0  0  0  0
   -3.8241   -2.8752    2.1752 H   0  0  0  0  0  0  0  0  0  0  0  0
   -3.9435   -3.3488    0.4650 H   0  0  0  0  0  0  0  0  0  0  0  0
   -1.9762   -2.7311    1.0841 C   0  0  0  0  0  0  0  0  0  0  0  0
   -0.9414   -3.3923    1.1194 O   0  0  0  0  0  0  0  0  0  0  0  0
   -1.9264   -1.3991    0.7349 N   0  0  0  0  0  0  0  0  0  0  0  0
   -2.8088   -0.8831    0.7719 H   0  0  0  0  0  0  0  0  0  0  0  0
   -0.7098   -0.5723    0.7001 C   0  0  1  0  0  0  0  0  0  0  0  0
    0.0735   -1.0560    1.2909 H   0  0  0  0  0  0  0  0  0  0  0  0
   -0.2505   -0.4048   -0.7678 C   0  0  0  0  0  0  0  0  0  0  0  0
   -0.9670   -0.8592   -1.4611 H   0  0  0  0  0  0  0  0  0  0  0  0
   -0.2333    0.6640   -1.0112 H   0  0  0  0  0  0  0  0  0  0  0  0
    1.1671   -0.9636   -0.9969 C   0  0  0  0  0  0  0  0  0  0  0  0
    1.6250   -0.4056   -1.8216 H   0  0  0  0  0  0  0  0  0  0  0  0
    1.7956   -0.7872   -0.1177 H   0  0  0  0  0  0  0  0  0  0  0  0
    1.1313   -2.4528   -1.3961 C   0  0  0  0  0  0  0  0  0  0  0  0
    0.1001   -2.8201   -1.3587 H   0  0  0  0  0  0  0  0  0  0  0  0
    1.4692   -2.5639   -2.4324 H   0  0  0  0  0  0  0  0  0  0  0  0
    2.0235   -3.2958   -0.4774 C   0  0  0  0  0  0  0  0  0  0  0  0
    2.9686   -3.5225   -0.9914 H   0  0  0  0  0  0  0  0  0  0  0  0
    2.2754   -2.7164    0.4216 H   0  0  0  0  0  0  0  0  0  0  0  0
    1.2991   -4.5245   -0.0952 N   0  3  0  0  0  0  0  0  0  0  0  0
    1.0458   -5.0614   -0.9239 H   0  0  0  0  0  0  0  0  0  0  0  0
    1.8684   -5.1020    0.5234 H   0  0  0  0  0  0  0  0  0  0  0  0
    0.4333   -4.2602    0.4044 H   0  0  0  0  0  0  0  0  0  0  0  0
   -0.9880    0.7932    1.3667 C   0  0  0  0  0  0  0  0  0  0  0  0
   -2.0633    1.3397    1.1628 O   0  0  0  0  0  0  0  0  0  0  0  0
   -0.0976    1.3539    2.2641 N   0  0  0  0  0  0  0  0  0  0  0  0
    0.7690    0.8621    2.4571 H   0  0  0  0  0  0  0  0  0  0  0  0
   -0.3618    2.6078    2.9641 C   0  0  0  0  0  0  0  0  0  0  0  0
   -1.2604    2.5202    3.5842 H   0  0  0  0  0  0  0  0  0  0  0  0
    0.4804    2.8659    3.6135 H   0  0  0  0  0  0  0  0  0  0  0  0
   -0.5077    3.4243    2.2486 H   0  0  0  0  0  0  0  0  0  0  0  0
  1  2  1  0  0  0  0
  2  3  1  0  0  0  0
  2  4  1  0  0  0  0
  2  5  1  0  0  0  0
  5  6  2  0  0  0  0
  5  7  1  0  0  0  0
  7  8  1  0  0  0  0
  7  9  1  0  0  0  0
  9 10  1  0  0  0  0
  9 11  1  0  0  0  0
  9 27  1  0  0  0  0
 11 12  1  0  0  0  0
 11 13  1  0  0  0  0
 11 14  1  0  0  0  0
 14 15  1  0  0  0  0
 14 16  1  0  0  0  0
 14 17  1  0  0  0  0
 17 18  1  0  0  0  0
 17 19  1  0  0  0  0
 17 20  1  0  0  0  0
 20 21  1  0  0  0  0
 20 22  1  0  0  0  0
 20 23  1  0  0  0  0
 23 24  1  0  0  0  0
 23 25  1  0  0  0  0
 23 26  1  0  0  0  0
 27 28  2  0  0  0  0
 27 29  1  0  0  0  0
 29 30  1  0  0  0  0
 29 31  1  0  0  0  0
 31 32  1  0  0  0  0
 31 33  1  0  0  0  0
 31 34  1  0  0  0  0
M  CHG  1  23   1
M  END
$$$$

  -OEChem-02102214153D

 34 33  0     1  0  0  0  0  0999 V2000
   -3.2172   -4.4539    1.3535 H   0  0  0  0  0  0  0  0  0  0  0  0
   -3.3627   -3.3973    1.1127 C   0  0  0  0  0  0  0  0  0  0  0  0
   -3.8939   -2.9197    1.9403 H   0  0  0  0  0  0  0  0  0  0  0  0
   -3.9742   -3.3221    0.2097 H   0  0  0  0  0  0  0  0  0  0  0  0
   -2.0258   -2.7167    0.8926 C   0  0  0  0  0  0  0  0  0  0  0  0
   -0.9796   -3.3630    0.9078 O   0  0  0  0  0  0  0  0  0  0  0  0
   -1.9686   -1.3718    0.6008 N   0  0  0  0  0  0  0  0  0  0  0  0
   -2.8442   -0.8452    0.6519 H   0  0  0  0  0  0  0  0  0  0  0  0
   -0.7325   -0.5805    0.6587 C   0  0  1  0  0  0  0  0  0  0  0  0
    0.0076   -1.1016    1.2712 H   0  0  0  0  0  0  0  0  0  0  0  0
   -0.2139   -0.3746   -0.7832 C   0  0  0  0  0  0  0  0  0  0  0  0
   -0.9221   -0.7739   -1.5177 H   0  0  0  0  0  0  0  0  0  0  0  0
   -0.1549    0.7016   -0.9829 H   0  0  0  0  0  0  0  0  0  0  0  0
    1.1950   -0.9710   -0.9819 C   0  0  0  0  0  0  0  0  0  0  0  0
    1.8042   -0.2543   -1.5448 H   0  0  0  0  0  0  0  0  0  0  0  0
    1.6989   -1.1162   -0.0213 H   0  0  0  0  0  0  0  0  0  0  0  0
    1.1356   -2.2890   -1.7836 C   0  0  0  0  0  0  0  0  0  0  0  0
    0.1247   -2.7122   -1.7808 H   0  0  0  0  0  0  0  0  0  0  0  0
    1.3837   -2.0674   -2.8277 H   0  0  0  0  0  0  0  0  0  0  0  0
    2.1189   -3.3293   -1.2455 C   0  0  0  0  0  0  0  0  0  0  0  0
    2.4382   -3.9807   -2.0719 H   0  0  0  0  0  0  0  0  0  0  0  0
    3.0195   -2.8208   -0.8724 H   0  0  0  0  0  0  0  0  0  0  0  0
    1.4603   -4.1281   -0.1863 N   0  3  0  0  0  0  0  0  0  0  0  0
    1.0832   -4.9910   -0.5790 H   0  0  0  0  0  0  0  0  0  0  0  0
    2.1191   -4.3619    0.5558 H   0  0  0  0  0  0  0  0  0  0  0  0
    0.6699   -3.6053    0.2248 H   0  0  0  0  0  0  0  0  0  0  0  0
   -1.0036    0.7614    1.3747 C   0  0  0  0  0  0  0  0  0  0  0  0
   -2.0539    1.3470    1.1504 O   0  0  0  0  0  0  0  0  0  0  0  0
   -0.1406    1.2560    2.3358 N   0  0  0  0  0  0  0  0  0  0  0  0
    0.7066    0.7358    2.5406 H   0  0  0  0  0  0  0  0  0  0  0  0
   -0.4031    2.4860    3.0781 C   0  0  0  0  0  0  0  0  0  0  0  0
   -1.3407    2.4045    3.6388 H   0  0  0  0  0  0  0  0  0  0  0  0
    0.4061    2.6833    3.7884 H   0  0  0  0  0  0  0  0  0  0  0  0
   -0.4767    3.3388    2.3944 H   0  0  0  0  0  0  0  0  0  0  0  0
  1  2  1  0  0  0  0
  2  3  1  0  0  0  0
  2  4  1  0  0  0  0
  2  5  1  0  0  0  0
  5  6  2  0  0  0  0
  5  7  1  0  0  0  0
  7  8  1  0  0  0  0
  7  9  1  0  0  0  0
  9 10  1  0  0  0  0
  9 11  1  0  0  0  0
  9 27  1  0  0  0  0
 11 12  1  0  0  0  0
 11 13  1  0  0  0  0
 11 14  1  0  0  0  0
 14 15  1  0  0  0  0
 14 16  1  0  0  0  0
 14 17  1  0  0  0  0
 17 18  1  0  0  0  0
 17 19  1  0  0  0  0
 17 20  1  0  0  0  0
 20 21  1  0  0  0  0
 20 22  1  0  0  0  0
 20 23  1  0  0  0  0
 23 24  1  0  0  0  0
 23 25  1  0  0  0  0
 23 26  1  0  0  0  0
 27 28  2  0  0  0  0
 27 29  1  0  0  0  0
 29 30  1  0  0  0  0
 29 31  1  0  0  0  0
 31 32  1  0  0  0  0
 31 33  1  0  0  0  0
 31 34  1  0  0  0  0
M  CHG  1  23   1
M  END
$$$$

  -OEChem-02102214153D

 34 33  0     1  0  0  0  0  0999 V2000
   -3.5822   -4.1067    1.7705 H   0  0  0  0  0  0  0  0  0  0  0  0
   -3.6582   -3.0745    1.4173 C   0  0  0  0  0  0  0  0  0  0  0  0
   -4.1843   -2.4841    2.1717 H   0  0  0  0  0  0  0  0  0  0  0  0
   -4.2347   -3.0605    0.4890 H   0  0  0  0  0  0  0  0  0  0  0  0
   -2.2756   -2.4985    1.1791 C   0  0  0  0  0  0  0  0  0  0  0  0
   -1.2796   -3.2002    1.3031 O   0  0  0  0  0  0  0  0  0  0  0  0
   -2.1308   -1.1992    0.7399 N   0  0  0  0  0  0  0  0  0  0  0  0
   -2.9768   -0.6288    0.6972 H   0  0  0  0  0  0  0  0  0  0  0  0
   -0.8572   -0.4683    0.8050 C   0  0  1  0  0  0  0  0  0  0  0  0
   -0.2053   -0.9557    1.5354 H   0  0  0  0  0  0  0  0  0  0  0  0
   -0.2220   -0.4913   -0.6046 C   0  0  0  0  0  0  0  0  0  0  0  0
   -0.9005   -0.9782   -1.3142 H   0  0  0  0  0  0  0  0  0  0  0  0
   -0.1020    0.5381   -0.9611 H   0  0  0  0  0  0  0  0  0  0  0  0
    1.1618   -1.1767   -0.6162 C   0  0  0  0  0  0  0  0  0  0  0  0
    1.9160   -0.4603   -0.9603 H   0  0  0  0  0  0  0  0  0  0  0  0
    1.4567   -1.4995    0.3872 H   0  0  0  0  0  0  0  0  0  0  0  0
    1.1384   -2.3899   -1.5534 C   0  0  0  0  0  0  0  0  0  0  0  0
    0.2941   -3.0310   -1.2729 H   0  0  0  0  0  0  0  0  0  0  0  0
    0.9869   -2.0585   -2.5867 H   0  0  0  0  0  0  0  0  0  0  0  0
    2.4343   -3.1857   -1.4351 C   0  0  0  0  0  0  0  0  0  0  0  0
    3.2713   -2.5849   -1.8200 H   0  0  0  0  0  0  0  0  0  0  0  0
    2.6378   -3.3872   -0.3729 H   0  0  0  0  0  0  0  0  0  0  0  0
    2.2779   -4.4486   -2.1876 N   0  3  0  0  0  0  0  0  0  0  0  0
    2.0861   -4.2488   -3.1709 H   0  0  0  0  0  0  0  0  0  0  0  0
    3.1302   -5.0085   -2.1202 H   0  0  0  0  0  0  0  0  0  0  0  0
    1.4974   -4.9845   -1.8003 H   0  0  0  0  0  0  0  0  0  0  0  0
   -1.0783    0.9625    1.3386 C   0  0  0  0  0  0  0  0  0  0  0  0
   -2.0453    1.5999    0.9434 O   0  0  0  0  0  0  0  0  0  0  0  0
   -0.2458    1.5099    2.2979 N   0  0  0  0  0  0  0  0  0  0  0  0
    0.4924    0.9261    2.6798 H   0  0  0  0  0  0  0  0  0  0  0  0
   -0.4803    2.8221    2.8936 C   0  0  0  0  0  0  0  0  0  0  0  0
   -1.4410    2.8391    3.4194 H   0  0  0  0  0  0  0  0  0  0  0  0
    0.3104    3.0617    3.6115 H   0  0  0  0  0  0  0  0  0  0  0  0
   -0.4903    3.5985    2.1211 H   0  0  0  0  0  0  0  0  0  0  0  0
  1  2  1  0  0  0  0
  2  3  1  0  0  0  0
  2  4  1  0  0  0  0
  2  5  1  0  0  0  0
  5  6  2  0  0  0  0
  5  7  1  0  0  0  0
  7  8  1  0  0  0  0
  7  9  1  0  0  0  0
  9 10  1  0  0  0  0
  9 11  1  0  0  0  0
  9 27  1  0  0  0  0
 11 12  1  0  0  0  0
 11 13  1  0  0  0  0
 11 14  1  0  0  0  0
 14 15  1  0  0  0  0
 14 16  1  0  0  0  0
 14 17  1  0  0  0  0
 17 18  1  0  0  0  0
 17 19  1  0  0  0  0
 17 20  1  0  0  0  0
 20 21  1  0  0  0  0
 20 22  1  0  0  0  0
 20 23  1  0  0  0  0
 23 24  1  0  0  0  0
 23 25  1  0  0  0  0
 23 26  1  0  0  0  0
 27 28  2  0  0  0  0
 27 29  1  0  0  0  0
 29 30  1  0  0  0  0
 29 31  1  0  0  0  0
 31 32  1  0  0  0  0
 31 33  1  0  0  0  0
 31 34  1  0  0  0  0
M  CHG  1  23   1
M  END
$$$$

  -OEChem-02102214153D

 34 33  0     1  0  0  0  0  0999 V2000
   -3.6621   -4.0471    1.8526 H   0  0  0  0  0  0  0  0  0  0  0  0
   -3.7213   -3.0334    1.4468 C   0  0  0  0  0  0  0  0  0  0  0  0
   -4.2637   -2.4033    2.1563 H   0  0  0  0  0  0  0  0  0  0  0  0
   -4.2713   -3.0622    0.5029 H   0  0  0  0  0  0  0  0  0  0  0  0
   -2.3280   -2.4791    1.2198 C   0  0  0  0  0  0  0  0  0  0  0  0
   -1.3429   -3.1858    1.3855 O   0  0  0  0  0  0  0  0  0  0  0  0
   -2.1599   -1.1889    0.7629 N   0  0  0  0  0  0  0  0  0  0  0  0
   -2.9973   -0.6078    0.7000 H   0  0  0  0  0  0  0  0  0  0  0  0
   -0.8746   -0.4777    0.8196 C   0  0  1  0  0  0  0  0  0  0  0  0
   -0.2255   -0.9630    1.5546 H   0  0  0  0  0  0  0  0  0  0  0  0
   -0.2340   -0.5139   -0.5880 C   0  0  0  0  0  0  0  0  0  0  0  0
   -0.9169   -1.0221   -1.2779 H   0  0  0  0  0  0  0  0  0  0  0  0
   -0.1133    0.5051   -0.9730 H   0  0  0  0  0  0  0  0  0  0  0  0
    1.1395   -1.2176   -0.5924 C   0  0  0  0  0  0  0  0  0  0  0  0
    1.9344   -0.4649   -0.6345 H   0  0  0  0  0  0  0  0  0  0  0  0
    1.2785   -1.7956    0.3276 H   0  0  0  0  0  0  0  0  0  0  0  0
    1.2494   -2.1860   -1.7763 C   0  0  0  0  0  0  0  0  0  0  0  0
    0.4187   -2.8999   -1.7306 H   0  0  0  0  0  0  0  0  0  0  0  0
    1.1697   -1.6285   -2.7161 H   0  0  0  0  0  0  0  0  0  0  0  0
    2.5742   -2.9415   -1.7196 C   0  0  0  0  0  0  0  0  0  0  0  0
    3.4055   -2.2279   -1.8161 H   0  0  0  0  0  0  0  0  0  0  0  0
    2.6716   -3.4241   -0.7355 H   0  0  0  0  0  0  0  0  0  0  0  0
    2.5972   -3.9457   -2.8046 N   0  3  0  0  0  0  0  0  0  0  0  0
    2.4989   -3.4839   -3.7107 H   0  0  0  0  0  0  0  0  0  0  0  0
    3.4788   -4.4629   -2.7879 H   0  0  0  0  0  0  0  0  0  0  0  0
    1.8245   -4.6041   -2.6826 H   0  0  0  0  0  0  0  0  0  0  0  0
   -1.0789    0.9623    1.3334 C   0  0  0  0  0  0  0  0  0  0  0  0
   -2.0297    1.6123    0.9195 O   0  0  0  0  0  0  0  0  0  0  0  0
   -0.2409    1.5097    2.2876 N   0  0  0  0  0  0  0  0  0  0  0  0
    0.4744    0.9127    2.6926 H   0  0  0  0  0  0  0  0  0  0  0  0
   -0.4653    2.8281    2.8730 C   0  0  0  0  0  0  0  0  0  0  0  0
   -1.4330    2.8611    3.3855 H   0  0  0  0  0  0  0  0  0  0  0  0
    0.3186    3.0599    3.6007 H   0  0  0  0  0  0  0  0  0  0  0  0
   -0.4529    3.6006    2.0963 H   0  0  0  0  0  0  0  0  0  0  0  0
  1  2  1  0  0  0  0
  2  3  1  0  0  0  0
  2  4  1  0  0  0  0
  2  5  1  0  0  0  0
  5  6  2  0  0  0  0
  5  7  1  0  0  0  0
  7  8  1  0  0  0  0
  7  9  1  0  0  0  0
  9 10  1  0  0  0  0
  9 11  1  0  0  0  0
  9 27  1  0  0  0  0
 11 12  1  0  0  0  0
 11 13  1  0  0  0  0
 11 14  1  0  0  0  0
 14 15  1  0  0  0  0
 14 16  1  0  0  0  0
 14 17  1  0  0  0  0
 17 18  1  0  0  0  0
 17 19  1  0  0  0  0
 17 20  1  0  0  0  0
 20 21  1  0  0  0  0
 20 22  1  0  0  0  0
 20 23  1  0  0  0  0
 23 24  1  0  0  0  0
 23 25  1  0  0  0  0
 23 26  1  0  0  0  0
 27 28  2  0  0  0  0
 27 29  1  0  0  0  0
 29 30  1  0  0  0  0
 29 31  1  0  0  0  0
 31 32  1  0  0  0  0
 31 33  1  0  0  0  0
 31 34  1  0  0  0  0
M  CHG  1  23   1
M  END
$$$$

  -OEChem-02102214153D

 34 33  0     1  0  0  0  0  0999 V2000
   -3.6863   -4.0417    1.8759 H   0  0  0  0  0  0  0  0  0  0  0  0
   -3.7404   -3.0361    1.4493 C   0  0  0  0  0  0  0  0  0  0  0  0
   -4.2974   -2.3936    2.1360 H   0  0  0  0  0  0  0  0  0  0  0  0
   -4.2725   -3.0846    0.4961 H   0  0  0  0  0  0  0  0  0  0  0  0
   -2.3445   -2.4825    1.2372 C   0  0  0  0  0  0  0  0  0  0  0  0
   -1.3619   -3.1853    1.4274 O   0  0  0  0  0  0  0  0  0  0  0  0
   -2.1711   -1.1937    0.7778 N   0  0  0  0  0  0  0  0  0  0  0  0
   -3.0074   -0.6134    0.6998 H   0  0  0  0  0  0  0  0  0  0  0  0
   -0.8833   -0.4862    0.8234 C   0  0  1  0  0  0  0  0  0  0  0  0
   -0.2231   -0.9752    1.5466 H   0  0  0  0  0  0  0  0  0  0  0  0
   -0.2537   -0.5155   -0.5884 C   0  0  0  0  0  0  0  0  0  0  0  0
   -0.9362   -1.0364   -1.2690 H   0  0  0  0  0  0  0  0  0  0  0  0
   -0.1383    0.5016   -0.9796 H   0  0  0  0  0  0  0  0  0  0  0  0
    1.1139   -1.2221   -0.5908 C   0  0  0  0  0  0  0  0  0  0  0  0
    1.9018   -0.4999   -0.3501 H   0  0  0  0  0  0  0  0  0  0  0  0
    1.1266   -2.0035    0.1781 H   0  0  0  0  0  0  0  0  0  0  0  0
    1.3803   -1.8928   -1.9436 C   0  0  0  0  0  0  0  0  0  0  0  0
    0.5703   -2.5980   -2.1624 H   0  0  0  0  0  0  0  0  0  0  0  0
    1.3928   -1.1325   -2.7327 H   0  0  0  0  0  0  0  0  0  0  0  0
    2.7121   -2.6377   -1.9041 C   0  0  0  0  0  0  0  0  0  0  0  0
    3.5241   -1.9203   -1.7155 H   0  0  0  0  0  0  0  0  0  0  0  0
    2.7028   -3.3464   -1.0627 H   0  0  0  0  0  0  0  0  0  0  0  0
    2.9069   -3.3440   -3.1886 N   0  3  0  0  0  0  0  0  0  0  0  0
    2.8993   -2.6747   -3.9606 H   0  0  0  0  0  0  0  0  0  0  0  0
    3.8013   -3.8390   -3.1861 H   0  0  0  0  0  0  0  0  0  0  0  0
    2.1542   -4.0212   -3.3297 H   0  0  0  0  0  0  0  0  0  0  0  0
   -1.0785    0.9552    1.3366 C   0  0  0  0  0  0  0  0  0  0  0  0
   -2.0181    1.6155    0.9138 O   0  0  0  0  0  0  0  0  0  0  0  0
   -0.2308    1.5007    2.2834 N   0  0  0  0  0  0  0  0  0  0  0  0
    0.4711    0.8948    2.6983 H   0  0  0  0  0  0  0  0  0  0  0  0
   -0.4343    2.8284    2.8557 C   0  0  0  0  0  0  0  0  0  0  0  0
   -1.3950    2.8783    3.3796 H   0  0  0  0  0  0  0  0  0  0  0  0
    0.3613    3.0605    3.5706 H   0  0  0  0  0  0  0  0  0  0  0  0
   -0.4233    3.5914    2.0699 H   0  0  0  0  0  0  0  0  0  0  0  0
  1  2  1  0  0  0  0
  2  3  1  0  0  0  0
  2  4  1  0  0  0  0
  2  5  1  0  0  0  0
  5  6  2  0  0  0  0
  5  7  1  0  0  0  0
  7  8  1  0  0  0  0
  7  9  1  0  0  0  0
  9 10  1  0  0  0  0
  9 11  1  0  0  0  0
  9 27  1  0  0  0  0
 11 12  1  0  0  0  0
 11 13  1  0  0  0  0
 11 14  1  0  0  0  0
 14 15  1  0  0  0  0
 14 16  1  0  0  0  0
 14 17  1  0  0  0  0
 17 18  1  0  0  0  0
 17 19  1  0  0  0  0
 17 20  1  0  0  0  0
 20 21  1  0  0  0  0
 20 22  1  0  0  0  0
 20 23  1  0  0  0  0
 23 24  1  0  0  0  0
 23 25  1  0  0  0  0
 23 26  1  0  0  0  0
 27 28  2  0  0  0  0
 27 29  1  0  0  0  0
 29 30  1  0  0  0  0
 29 31  1  0  0  0  0
 31 32  1  0  0  0  0
 31 33  1  0  0  0  0
 31 34  1  0  0  0  0
M  CHG  1  23   1
M  END
$$$$

  -OEChem-02102214153D

 34 33  0     1  0  0  0  0  0999 V2000
   -3.6763   -4.0521    1.8751 H   0  0  0  0  0  0  0  0  0  0  0  0
   -3.7343   -3.0473    1.4475 C   0  0  0  0  0  0  0  0  0  0  0  0
   -4.2982   -2.4077    2.1312 H   0  0  0  0  0  0  0  0  0  0  0  0
   -4.2613   -3.1000    0.4918 H   0  0  0  0  0  0  0  0  0  0  0  0
   -2.3405   -2.4859    1.2418 C   0  0  0  0  0  0  0  0  0  0  0  0
   -1.3551   -3.1802    1.4458 O   0  0  0  0  0  0  0  0  0  0  0  0
   -2.1725   -1.1961    0.7828 N   0  0  0  0  0  0  0  0  0  0  0  0
   -3.0116   -0.6216    0.6960 H   0  0  0  0  0  0  0  0  0  0  0  0
   -0.8866   -0.4843    0.8178 C   0  0  1  0  0  0  0  0  0  0  0  0
   -0.2150   -0.9760    1.5292 H   0  0  0  0  0  0  0  0  0  0  0  0
   -0.2685   -0.5074   -0.5979 C   0  0  0  0  0  0  0  0  0  0  0  0
   -0.9460   -1.0334   -1.2798 H   0  0  0  0  0  0  0  0  0  0  0  0
   -0.1563    0.5122   -0.9839 H   0  0  0  0  0  0  0  0  0  0  0  0
    1.0972   -1.2097   -0.5956 C   0  0  0  0  0  0  0  0  0  0  0  0
    1.8415   -0.5667   -0.1128 H   0  0  0  0  0  0  0  0  0  0  0  0
    1.0230   -2.1374   -0.0151 H   0  0  0  0  0  0  0  0  0  0  0  0
    1.5320   -1.5579   -2.0236 C   0  0  0  0  0  0  0  0  0  0  0  0
    0.7621   -2.1785   -2.4956 H   0  0  0  0  0  0  0  0  0  0  0  0
    1.6333   -0.6374   -2.6094 H   0  0  0  0  0  0  0  0  0  0  0  0
    2.8579   -2.3144   -1.9942 C   0  0  0  0  0  0  0  0  0  0  0  0
    3.6305   -1.6757   -1.5414 H   0  0  0  0  0  0  0  0  0  0  0  0
    2.7527   -3.2010   -1.3509 H   0  0  0  0  0  0  0  0  0  0  0  0
    3.2227   -2.7009   -3.3742 N   0  3  0  0  0  0  0  0  0  0  0  0
    3.3019   -1.8683   -3.9612 H   0  0  0  0  0  0  0  0  0  0  0  0
    4.1172   -3.1958   -3.3762 H   0  0  0  0  0  0  0  0  0  0  0  0
    2.5042   -3.3142   -3.7646 H   0  0  0  0  0  0  0  0  0  0  0  0
   -1.0785    0.9561    1.3339 C   0  0  0  0  0  0  0  0  0  0  0  0
   -2.0146    1.6216    0.9115 O   0  0  0  0  0  0  0  0  0  0  0  0
   -0.2212    1.4994    2.2733 N   0  0  0  0  0  0  0  0  0  0  0  0
    0.4701    0.8853    2.6941 H   0  0  0  0  0  0  0  0  0  0  0  0
   -0.4213    2.8247    2.8516 C   0  0  0  0  0  0  0  0  0  0  0  0
   -1.3773    2.8712    3.3843 H   0  0  0  0  0  0  0  0  0  0  0  0
    0.3801    3.0554    3.5602 H   0  0  0  0  0  0  0  0  0  0  0  0
   -0.4184    3.5908    2.0688 H   0  0  0  0  0  0  0  0  0  0  0  0
  1  2  1  0  0  0  0
  2  3  1  0  0  0  0
  2  4  1  0  0  0  0
  2  5  1  0  0  0  0
  5  6  2  0  0  0  0
  5  7  1  0  0  0  0
  7  8  1  0  0  0  0
  7  9  1  0  0  0  0
  9 10  1  0  0  0  0
  9 11  1  0  0  0  0
  9 27  1  0  0  0  0
 11 12  1  0  0  0  0
 11 13  1  0  0  0  0
 11 14  1  0  0  0  0
 14 15  1  0  0  0  0
 14 16  1  0  0  0  0
 14 17  1  0  0  0  0
 17 18  1  0  0  0  0
 17 19  1  0  0  0  0
 17 20  1  0  0  0  0
 20 21  1  0  0  0  0
 20 22  1  0  0  0  0
 20 23  1  0  0  0  0
 23 24  1  0  0  0  0
 23 25  1  0  0  0  0
 23 26  1  0  0  0  0
 27 28  2  0  0  0  0
 27 29  1  0  0  0  0
 29 30  1  0  0  0  0
 29 31  1  0  0  0  0
 31 32  1  0  0  0  0
 31 33  1  0  0  0  0
 31 34  1  0  0  0  0
M  CHG  1  23   1
M  END
$$$$

  -OEChem-02102214153D

 34 33  0     1  0  0  0  0  0999 V2000
   -3.6697   -4.0574    1.8366 H   0  0  0  0  0  0  0  0  0  0  0  0
   -3.7186   -3.0434    1.4300 C   0  0  0  0  0  0  0  0  0  0  0  0
   -4.2887   -2.4161    2.1198 H   0  0  0  0  0  0  0  0  0  0  0  0
   -4.2334   -3.0735    0.4668 H   0  0  0  0  0  0  0  0  0  0  0  0
   -2.3207   -2.4829    1.2537 C   0  0  0  0  0  0  0  0  0  0  0  0
   -1.3411   -3.1747    1.4902 O   0  0  0  0  0  0  0  0  0  0  0  0
   -2.1435   -1.1963    0.7894 N   0  0  0  0  0  0  0  0  0  0  0  0
   -2.9807   -0.6216    0.6847 H   0  0  0  0  0  0  0  0  0  0  0  0
   -0.8578   -0.4852    0.8330 C   0  0  1  0  0  0  0  0  0  0  0  0
   -0.1777   -0.9675    1.5431 H   0  0  0  0  0  0  0  0  0  0  0  0
   -0.2478   -0.4978   -0.5846 C   0  0  0  0  0  0  0  0  0  0  0  0
   -1.0182   -0.7364   -1.3264 H   0  0  0  0  0  0  0  0  0  0  0  0
    0.1356    0.4993   -0.8282 H   0  0  0  0  0  0  0  0  0  0  0  0
    0.9066   -1.5054   -0.6714 C   0  0  0  0  0  0  0  0  0  0  0  0
    1.6783   -1.2453    0.0615 H   0  0  0  0  0  0  0  0  0  0  0  0
    0.5282   -2.5036   -0.4209 H   0  0  0  0  0  0  0  0  0  0  0  0
    1.5141   -1.5215   -2.0779 C   0  0  0  0  0  0  0  0  0  0  0  0
    0.7267   -1.7391   -2.8082 H   0  0  0  0  0  0  0  0  0  0  0  0
    1.9301   -0.5347   -2.3096 H   0  0  0  0  0  0  0  0  0  0  0  0
    2.6049   -2.5873   -2.1575 C   0  0  0  0  0  0  0  0  0  0  0  0
    3.3942   -2.3537   -1.4279 H   0  0  0  0  0  0  0  0  0  0  0  0
    2.1784   -3.5605   -1.8716 H   0  0  0  0  0  0  0  0  0  0  0  0
    3.1438   -2.6275   -3.5343 N   0  3  0  0  0  0  0  0  0  0  0  0
    3.5382   -1.7181   -3.7822 H   0  0  0  0  0  0  0  0  0  0  0  0
    3.8759   -3.3376   -3.6047 H   0  0  0  0  0  0  0  0  0  0  0  0
    2.3970   -2.8555   -4.1936 H   0  0  0  0  0  0  0  0  0  0  0  0
   -1.0733    0.9555    1.3407 C   0  0  0  0  0  0  0  0  0  0  0  0
   -2.0099    1.6091    0.9007 O   0  0  0  0  0  0  0  0  0  0  0  0
   -0.2360    1.5131    2.2897 N   0  0  0  0  0  0  0  0  0  0  0  0
    0.4559    0.9086    2.7236 H   0  0  0  0  0  0  0  0  0  0  0  0
   -0.4635    2.8363    2.8629 C   0  0  0  0  0  0  0  0  0  0  0  0
   -1.4265    2.8684    3.3839 H   0  0  0  0  0  0  0  0  0  0  0  0
    0.3260    3.0812    3.5802 H   0  0  0  0  0  0  0  0  0  0  0  0
   -0.4637    3.6007    2.0784 H   0  0  0  0  0  0  0  0  0  0  0  0
  1  2  1  0  0  0  0
  2  3  1  0  0  0  0
  2  4  1  0  0  0  0
  2  5  1  0  0  0  0
  5  6  2  0  0  0  0
  5  7  1  0  0  0  0
  7  8  1  0  0  0  0
  7  9  1  0  0  0  0
  9 10  1  0  0  0  0
  9 11  1  0  0  0  0
  9 27  1  0  0  0  0
 11 12  1  0  0  0  0
 11 13  1  0  0  0  0
 11 14  1  0  0  0  0
 14 15  1  0  0  0  0
 14 16  1  0  0  0  0
 14 17  1  0  0  0  0
 17 18  1  0  0  0  0
 17 19  1  0  0  0  0
 17 20  1  0  0  0  0
 20 21  1  0  0  0  0
 20 22  1  0  0  0  0
 20 23  1  0  0  0  0
 23 24  1  0  0  0  0
 23 25  1  0  0  0  0
 23 26  1  0  0  0  0
 27 28  2  0  0  0  0
 27 29  1  0  0  0  0
 29 30  1  0  0  0  0
 29 31  1  0  0  0  0
 31 32  1  0  0  0  0
 31 33  1  0  0  0  0
 31 34  1  0  0  0  0
M  CHG  1  23   1
M  END
$$$$

  -OEChem-02102214153D

 34 33  0     1  0  0  0  0  0999 V2000
   -3.6548   -4.0619    1.8371 H   0  0  0  0  0  0  0  0  0  0  0  0
   -3.7099   -3.0517    1.4220 C   0  0  0  0  0  0  0  0  0  0  0  0
   -4.2917   -2.4248    2.1023 H   0  0  0  0  0  0  0  0  0  0  0  0
   -4.2168   -3.0951    0.4548 H   0  0  0  0  0  0  0  0  0  0  0  0
   -2.3154   -2.4800    1.2534 C   0  0  0  0  0  0  0  0  0  0  0  0
   -1.3319   -3.1630    1.4993 O   0  0  0  0  0  0  0  0  0  0  0  0
   -2.1431   -1.1925    0.7892 N   0  0  0  0  0  0  0  0  0  0  0  0
   -2.9825   -0.6232    0.6749 H   0  0  0  0  0  0  0  0  0  0  0  0
   -0.8595   -0.4781    0.8398 C   0  0  1  0  0  0  0  0  0  0  0  0
   -0.1842   -0.9586    1.5550 H   0  0  0  0  0  0  0  0  0  0  0  0
   -0.2472   -0.4937   -0.5776 C   0  0  0  0  0  0  0  0  0  0  0  0
   -1.0110   -0.7234   -1.3291 H   0  0  0  0  0  0  0  0  0  0  0  0
    0.1368    0.5065   -0.8073 H   0  0  0  0  0  0  0  0  0  0  0  0
    0.9110   -1.4982   -0.6710 C   0  0  0  0  0  0  0  0  0  0  0  0
    1.5614   -1.3979    0.2049 H   0  0  0  0  0  0  0  0  0  0  0  0
    0.5000   -2.5146   -0.6668 H   0  0  0  0  0  0  0  0  0  0  0  0
    1.7464   -1.2613   -1.9334 C   0  0  0  0  0  0  0  0  0  0  0  0
    1.0922   -1.3046   -2.8113 H   0  0  0  0  0  0  0  0  0  0  0  0
    2.1987   -0.2641   -1.8943 H   0  0  0  0  0  0  0  0  0  0  0  0
    2.8328   -2.3291   -2.0410 C   0  0  0  0  0  0  0  0  0  0  0  0
    3.4889   -2.2699   -1.1600 H   0  0  0  0  0  0  0  0  0  0  0  0
    2.3630   -3.3240   -2.0262 H   0  0  0  0  0  0  0  0  0  0  0  0
    3.5952   -2.1197   -3.2912 N   0  3  0  0  0  0  0  0  0  0  0  0
    4.0213   -1.1910   -3.2898 H   0  0  0  0  0  0  0  0  0  0  0  0
    4.3324   -2.8233   -3.3753 H   0  0  0  0  0  0  0  0  0  0  0  0
    2.9707   -2.1965   -4.0966 H   0  0  0  0  0  0  0  0  0  0  0  0
   -1.0779    0.9627    1.3464 C   0  0  0  0  0  0  0  0  0  0  0  0
   -2.0043    1.6216    0.8931 O   0  0  0  0  0  0  0  0  0  0  0  0
   -0.2449    1.5199    2.2993 N   0  0  0  0  0  0  0  0  0  0  0  0
    0.4321    0.9098    2.7485 H   0  0  0  0  0  0  0  0  0  0  0  0
   -0.4744    2.8447    2.8682 C   0  0  0  0  0  0  0  0  0  0  0  0
   -1.4396    2.8790    3.3849 H   0  0  0  0  0  0  0  0  0  0  0  0
    0.3119    3.0911    3.5884 H   0  0  0  0  0  0  0  0  0  0  0  0
   -0.4711    3.6070    2.0816 H   0  0  0  0  0  0  0  0  0  0  0  0
  1  2  1  0  0  0  0
  2  3  1  0  0  0  0
  2  4  1  0  0  0  0
  2  5  1  0  0  0  0
  5  6  2  0  0  0  0
  5  7  1  0  0  0  0
  7  8  1  0  0  0  0
  7  9  1  0  0  0  0
  9 10  1  0  0  0  0
  9 11  1  0  0  0  0
  9 27  1  0  0  0  0
 11 12  1  0  0  0  0
 11 13  1  0  0  0  0
 11 14  1  0  0  0  0
 14 15  1  0  0  0  0
 14 16  1  0  0  0  0
 14 17  1  0  0  0  0
 17 18  1  0  0  0  0
 17 19  1  0  0  0  0
 17 20  1  0  0  0  0
 20 21  1  0  0  0  0
 20 22  1  0  0  0  0
 20 23  1  0  0  0  0
 23 24  1  0  0  0  0
 23 25  1  0  0  0  0
 23 26  1  0  0  0  0
 27 28  2  0  0  0  0
 27 29  1  0  0  0  0
 29 30  1  0  0  0  0
 29 31  1  0  0  0  0
 31 32  1  0  0  0  0
 31 33  1  0  0  0  0
 31 34  1  0  0  0  0
M  CHG  1  23   1
M  END
$$$$

  -OEChem-02102214153D

 34 33  0     1  0  0  0  0  0999 V2000
   -3.6545   -4.0628    1.8255 H   0  0  0  0  0  0  0  0  0  0  0  0
   -3.7066   -3.0517    1.4122 C   0  0  0  0  0  0  0  0  0  0  0  0
   -4.3014   -2.4283    2.0842 H   0  0  0  0  0  0  0  0  0  0  0  0
   -4.1974   -3.0943    0.4369 H   0  0  0  0  0  0  0  0  0  0  0  0
   -2.3122   -2.4737    1.2670 C   0  0  0  0  0  0  0  0  0  0  0  0
   -1.3298   -3.1491    1.5373 O   0  0  0  0  0  0  0  0  0  0  0  0
   -2.1379   -1.1884    0.7976 N   0  0  0  0  0  0  0  0  0  0  0  0
   -2.9768   -0.6235    0.6607 H   0  0  0  0  0  0  0  0  0  0  0  0
   -0.8558   -0.4731    0.8572 C   0  0  1  0  0  0  0  0  0  0  0  0
   -0.1874   -0.9468    1.5828 H   0  0  0  0  0  0  0  0  0  0  0  0
   -0.2394   -0.4971   -0.5599 C   0  0  0  0  0  0  0  0  0  0  0  0
   -1.0005   -0.7198   -1.3160 H   0  0  0  0  0  0  0  0  0  0  0  0
    0.1404    0.5061   -0.7835 H   0  0  0  0  0  0  0  0  0  0  0  0
    0.9240   -1.4998   -0.6677 C   0  0  0  0  0  0  0  0  0  0  0  0
    1.4329   -1.5953    0.2974 H   0  0  0  0  0  0  0  0  0  0  0  0
    0.5176   -2.4856   -0.9220 H   0  0  0  0  0  0  0  0  0  0  0  0
    1.9562   -1.0493   -1.7075 C   0  0  0  0  0  0  0  0  0  0  0  0
    1.4541   -0.8981   -2.6698 H   0  0  0  0  0  0  0  0  0  0  0  0
    2.3978   -0.0951   -1.3995 H   0  0  0  0  0  0  0  0  0  0  0  0
    3.0442   -2.1117   -1.8492 C   0  0  0  0  0  0  0  0  0  0  0  0
    3.5438   -2.2509   -0.8791 H   0  0  0  0  0  0  0  0  0  0  0  0
    2.5777   -3.0728   -2.1120 H   0  0  0  0  0  0  0  0  0  0  0  0
    4.0052   -1.6854   -2.8896 N   0  3  0  0  0  0  0  0  0  0  0  0
    4.4298   -0.7934   -2.6291 H   0  0  0  0  0  0  0  0  0  0  0  0
    4.7424   -2.3858   -2.9951 H   0  0  0  0  0  0  0  0  0  0  0  0
    3.5240   -1.5742   -3.7843 H   0  0  0  0  0  0  0  0  0  0  0  0
   -1.0825    0.9698    1.3544 C   0  0  0  0  0  0  0  0  0  0  0  0
   -1.9985    1.6287    0.8803 O   0  0  0  0  0  0  0  0  0  0  0  0
   -0.2600    1.5326    2.3133 N   0  0  0  0  0  0  0  0  0  0  0  0
    0.3979    0.9194    2.7860 H   0  0  0  0  0  0  0  0  0  0  0  0
   -0.4990    2.8595    2.8733 C   0  0  0  0  0  0  0  0  0  0  0  0
   -1.4673    2.8919    3.3845 H   0  0  0  0  0  0  0  0  0  0  0  0
    0.2824    3.1135    3.5962 H   0  0  0  0  0  0  0  0  0  0  0  0
   -0.4946    3.6176    2.0827 H   0  0  0  0  0  0  0  0  0  0  0  0
  1  2  1  0  0  0  0
  2  3  1  0  0  0  0
  2  4  1  0  0  0  0
  2  5  1  0  0  0  0
  5  6  2  0  0  0  0
  5  7  1  0  0  0  0
  7  8  1  0  0  0  0
  7  9  1  0  0  0  0
  9 10  1  0  0  0  0
  9 11  1  0  0  0  0
  9 27  1  0  0  0  0
 11 12  1  0  0  0  0
 11 13  1  0  0  0  0
 11 14  1  0  0  0  0
 14 15  1  0  0  0  0
 14 16  1  0  0  0  0
 14 17  1  0  0  0  0
 17 18  1  0  0  0  0
 17 19  1  0  0  0  0
 17 20  1  0  0  0  0
 20 21  1  0  0  0  0
 20 22  1  0  0  0  0
 20 23  1  0  0  0  0
 23 24  1  0  0  0  0
 23 25  1  0  0  0  0
 23 26  1  0  0  0  0
 27 28  2  0  0  0  0
 27 29  1  0  0  0  0
 29 30  1  0  0  0  0
 29 31  1  0  0  0  0
 31 32  1  0  0  0  0
 31 33  1  0  0  0  0
 31 34  1  0  0  0  0
M  CHG  1  23   1
M  END
$$$$

  -OEChem-02102214153D

 34 33  0     1  0  0  0  0  0999 V2000
   -3.6632   -4.0652    1.8228 H   0  0  0  0  0  0  0  0  0  0  0  0
   -3.7108   -3.0554    1.4054 C   0  0  0  0  0  0  0  0  0  0  0  0
   -4.3225   -2.4324    2.0624 H   0  0  0  0  0  0  0  0  0  0  0  0
   -4.1805   -3.1035    0.4200 H   0  0  0  0  0  0  0  0  0  0  0  0
   -2.3163   -2.4713    1.2878 C   0  0  0  0  0  0  0  0  0  0  0  0
   -1.3370   -3.1383    1.5882 O   0  0  0  0  0  0  0  0  0  0  0  0
   -2.1385   -1.1887    0.8122 N   0  0  0  0  0  0  0  0  0  0  0  0
   -2.9763   -0.6295    0.6475 H   0  0  0  0  0  0  0  0  0  0  0  0
   -0.8572   -0.4723    0.8720 C   0  0  1  0  0  0  0  0  0  0  0  0
   -0.1898   -0.9384    1.6030 H   0  0  0  0  0  0  0  0  0  0  0  0
   -0.2387   -0.4983   -0.5453 C   0  0  0  0  0  0  0  0  0  0  0  0
   -1.0029   -0.7277   -1.2965 H   0  0  0  0  0  0  0  0  0  0  0  0
    0.1280    0.5078   -0.7773 H   0  0  0  0  0  0  0  0  0  0  0  0
    0.9300   -1.4978   -0.6685 C   0  0  0  0  0  0  0  0  0  0  0  0
    1.2699   -1.8202    0.3213 H   0  0  0  0  0  0  0  0  0  0  0  0
    0.5694   -2.3925   -1.1886 H   0  0  0  0  0  0  0  0  0  0  0  0
    2.1227   -0.8886   -1.4155 C   0  0  0  0  0  0  0  0  0  0  0  0
    1.7915   -0.5409   -2.4007 H   0  0  0  0  0  0  0  0  0  0  0  0
    2.5025   -0.0248   -0.8586 H   0  0  0  0  0  0  0  0  0  0  0  0
    3.2225   -1.9368   -1.5744 C   0  0  0  0  0  0  0  0  0  0  0  0
    3.5474   -2.2738   -0.5789 H   0  0  0  0  0  0  0  0  0  0  0  0
    2.8108   -2.8153   -2.0933 H   0  0  0  0  0  0  0  0  0  0  0  0
    4.3482   -1.3505   -2.3342 N   0  3  0  0  0  0  0  0  0  0  0  0
    4.7200   -0.5388   -1.8374 H   0  0  0  0  0  0  0  0  0  0  0  0
    5.0938   -2.0412   -2.4463 H   0  0  0  0  0  0  0  0  0  0  0  0
    4.0287   -1.0554   -3.2591 H   0  0  0  0  0  0  0  0  0  0  0  0
   -1.0860    0.9732    1.3601 C   0  0  0  0  0  0  0  0  0  0  0  0
   -1.9940    1.6334    0.8729 O   0  0  0  0  0  0  0  0  0  0  0  0
   -0.2658    1.5402    2.3187 N   0  0  0  0  0  0  0  0  0  0  0  0
    0.3755    0.9235    2.8092 H   0  0  0  0  0  0  0  0  0  0  0  0
   -0.5062    2.8704    2.8700 C   0  0  0  0  0  0  0  0  0  0  0  0
   -1.4754    2.9051    3.3793 H   0  0  0  0  0  0  0  0  0  0  0  0
    0.2741    3.1297    3.5923 H   0  0  0  0  0  0  0  0  0  0  0  0
   -0.5009    3.6236    2.0746 H   0  0  0  0  0  0  0  0  0  0  0  0
  1  2  1  0  0  0  0
  2  3  1  0  0  0  0
  2  4  1  0  0  0  0
  2  5  1  0  0  0  0
  5  6  2  0  0  0  0
  5  7  1  0  0  0  0
  7  8  1  0  0  0  0
  7  9  1  0  0  0  0
  9 10  1  0  0  0  0
  9 11  1  0  0  0  0
  9 27  1  0  0  0  0
 11 12  1  0  0  0  0
 11 13  1  0  0  0  0
 11 14  1  0  0  0  0
 14 15  1  0  0  0  0
 14 16  1  0  0  0  0
 14 17  1  0  0  0  0
 17 18  1  0  0  0  0
 17 19  1  0  0  0  0
 17 20  1  0  0  0  0
 20 21  1  0  0  0  0
 20 22  1  0  0  0  0
 20 23  1  0  0  0  0
 23 24  1  0  0  0  0
 23 25  1  0  0  0  0
 23 26  1  0  0  0  0
 27 28  2  0  0  0  0
 27 29  1  0  0  0  0
 29 30  1  0  0  0  0
 29 31  1  0  0  0  0
 31 32  1  0  0  0  0
 31 33  1  0  0  0  0
 31 34  1  0  0  0  0
M  CHG  1  23   1
M  END
$$$$

  -OEChem-02102214153D

 34 33  0     1  0  0  0  0  0999 V2000
   -3.6474   -4.0704    1.8395 H   0  0  0  0  0  0  0  0  0  0  0  0
   -3.7009   -3.0671    1.4075 C   0  0  0  0  0  0  0  0  0  0  0  0
   -4.3243   -2.4410    2.0503 H   0  0  0  0  0  0  0  0  0  0  0  0
   -4.1606   -3.1333    0.4186 H   0  0  0  0  0  0  0  0  0  0  0  0
   -2.3112   -2.4715    1.2942 C   0  0  0  0  0  0  0  0  0  0  0  0
   -1.3275   -3.1293    1.6011 O   0  0  0  0  0  0  0  0  0  0  0  0
   -2.1413   -1.1879    0.8183 N   0  0  0  0  0  0  0  0  0  0  0  0
   -2.9817   -0.6337    0.6502 H   0  0  0  0  0  0  0  0  0  0  0  0
   -0.8612   -0.4689    0.8694 C   0  0  1  0  0  0  0  0  0  0  0  0
   -0.1860   -0.9328    1.5947 H   0  0  0  0  0  0  0  0  0  0  0  0
   -0.2467   -0.4855   -0.5499 C   0  0  0  0  0  0  0  0  0  0  0  0
   -1.0175   -0.7338   -1.2884 H   0  0  0  0  0  0  0  0  0  0  0  0
    0.1023    0.5223   -0.8017 H   0  0  0  0  0  0  0  0  0  0  0  0
    0.9245   -1.4824   -0.6764 C   0  0  0  0  0  0  0  0  0  0  0  0
    1.0710   -2.0350    0.2580 H   0  0  0  0  0  0  0  0  0  0  0  0
    0.6606   -2.2237   -1.4391 H   0  0  0  0  0  0  0  0  0  0  0  0
    2.2316   -0.7873   -1.0740 C   0  0  0  0  0  0  0  0  0  0  0  0
    2.0860   -0.2525   -2.0192 H   0  0  0  0  0  0  0  0  0  0  0  0
    2.5041   -0.0555   -0.3055 H   0  0  0  0  0  0  0  0  0  0  0  0
    3.3399   -1.8273   -1.2254 C   0  0  0  0  0  0  0  0  0  0  0  0
    3.4771   -2.3501   -0.2671 H   0  0  0  0  0  0  0  0  0  0  0  0
    3.0286   -2.5824   -1.9625 H   0  0  0  0  0  0  0  0  0  0  0  0
    4.5859   -1.1532   -1.6504 N   0  3  0  0  0  0  0  0  0  0  0  0
    4.8553   -0.4488   -0.9612 H   0  0  0  0  0  0  0  0  0  0  0  0
    5.3418   -1.8360   -1.7396 H   0  0  0  0  0  0  0  0  0  0  0  0
    4.4446   -0.6964   -2.5536 H   0  0  0  0  0  0  0  0  0  0  0  0
   -1.0889    0.9758    1.3608 C   0  0  0  0  0  0  0  0  0  0  0  0
   -2.0000    1.6363    0.8802 O   0  0  0  0  0  0  0  0  0  0  0  0
   -0.2626    1.5437    2.3140 N   0  0  0  0  0  0  0  0  0  0  0  0
    0.3796    0.9270    2.8030 H   0  0  0  0  0  0  0  0  0  0  0  0
   -0.5008    2.8750    2.8649 C   0  0  0  0  0  0  0  0  0  0  0  0
   -1.4701    2.9123    3.3736 H   0  0  0  0  0  0  0  0  0  0  0  0
    0.2791    3.1338    3.5877 H   0  0  0  0  0  0  0  0  0  0  0  0
   -0.4939    3.6277    2.0691 H   0  0  0  0  0  0  0  0  0  0  0  0
  1  2  1  0  0  0  0
  2  3  1  0  0  0  0
  2  4  1  0  0  0  0
  2  5  1  0  0  0  0
  5  6  2  0  0  0  0
  5  7  1  0  0  0  0
  7  8  1  0  0  0  0
  7  9  1  0  0  0  0
  9 10  1  0  0  0  0
  9 11  1  0  0  0  0
  9 27  1  0  0  0  0
 11 12  1  0  0  0  0
 11 13  1  0  0  0  0
 11 14  1  0  0  0  0
 14 15  1  0  0  0  0
 14 16  1  0  0  0  0
 14 17  1  0  0  0  0
 17 18  1  0  0  0  0
 17 19  1  0  0  0  0
 17 20  1  0  0  0  0
 20 21  1  0  0  0  0
 20 22  1  0  0  0  0
 20 23  1  0  0  0  0
 23 24  1  0  0  0  0
 23 25  1  0  0  0  0
 23 26  1  0  0  0  0
 27 28  2  0  0  0  0
 27 29  1  0  0  0  0
 29 30  1  0  0  0  0
 29 31  1  0  0  0  0
 31 32  1  0  0  0  0
 31 33  1  0  0  0  0
 31 34  1  0  0  0  0
M  CHG  1  23   1
M  END
$$$$

  -OEChem-02102214153D

 34 33  0     1  0  0  0  0  0999 V2000
   -3.6266   -4.0835    1.8330 H   0  0  0  0  0  0  0  0  0  0  0  0
   -3.6845   -3.0791    1.4042 C   0  0  0  0  0  0  0  0  0  0  0  0
   -4.3206   -2.4611    2.0425 H   0  0  0  0  0  0  0  0  0  0  0  0
   -4.1338   -3.1458    0.4105 H   0  0  0  0  0  0  0  0  0  0  0  0
   -2.2987   -2.4712    1.3068 C   0  0  0  0  0  0  0  0  0  0  0  0
   -1.3133   -3.1190    1.6298 O   0  0  0  0  0  0  0  0  0  0  0  0
   -2.1338   -1.1876    0.8283 N   0  0  0  0  0  0  0  0  0  0  0  0
   -2.9760   -0.6411    0.6449 H   0  0  0  0  0  0  0  0  0  0  0  0
   -0.8561   -0.4632    0.8692 C   0  0  1  0  0  0  0  0  0  0  0  0
   -0.1692   -0.9258    1.5848 H   0  0  0  0  0  0  0  0  0  0  0  0
   -0.2510   -0.4733   -0.5534 C   0  0  0  0  0  0  0  0  0  0  0  0
   -1.0282   -0.7425   -1.2779 H   0  0  0  0  0  0  0  0  0  0  0  0
    0.0856    0.5331   -0.8265 H   0  0  0  0  0  0  0  0  0  0  0  0
    0.9205   -1.4659   -0.6778 C   0  0  0  0  0  0  0  0  0  0  0  0
    0.8883   -2.2052    0.1308 H   0  0  0  0  0  0  0  0  0  0  0  0
    0.7952   -2.0198   -1.6148 H   0  0  0  0  0  0  0  0  0  0  0  0
    2.2791   -0.7575   -0.7085 C   0  0  0  0  0  0  0  0  0  0  0  0
    2.3087   -0.0628   -1.5555 H   0  0  0  0  0  0  0  0  0  0  0  0
    2.4112   -0.1798    0.2129 H   0  0  0  0  0  0  0  0  0  0  0  0
    3.3906   -1.7965   -0.8427 C   0  0  0  0  0  0  0  0  0  0  0  0
    3.3482   -2.4836    0.0155 H   0  0  0  0  0  0  0  0  0  0  0  0
    3.2129   -2.3987   -1.7460 H   0  0  0  0  0  0  0  0  0  0  0  0
    4.6982   -1.1089   -0.9123 N   0  3  0  0  0  0  0  0  0  0  0  0
    4.8478   -0.5549   -0.0672 H   0  0  0  0  0  0  0  0  0  0  0  0
    5.4513   -1.7955   -0.9960 H   0  0  0  0  0  0  0  0  0  0  0  0
    4.7238   -0.4891   -1.7243 H   0  0  0  0  0  0  0  0  0  0  0  0
   -1.0870    0.9809    1.3600 C   0  0  0  0  0  0  0  0  0  0  0  0
   -2.0000    1.6392    0.8805 O   0  0  0  0  0  0  0  0  0  0  0  0
   -0.2565    1.5534    2.3067 N   0  0  0  0  0  0  0  0  0  0  0  0
    0.3743    0.9342    2.8064 H   0  0  0  0  0  0  0  0  0  0  0  0
   -0.5013    2.8833    2.8581 C   0  0  0  0  0  0  0  0  0  0  0  0
   -1.4683    2.9147    3.3719 H   0  0  0  0  0  0  0  0  0  0  0  0
    0.2807    3.1472    3.5768 H   0  0  0  0  0  0  0  0  0  0  0  0
   -0.5034    3.6359    2.0620 H   0  0  0  0  0  0  0  0  0  0  0  0
  1  2  1  0  0  0  0
  2  3  1  0  0  0  0
  2  4  1  0  0  0  0
  2  5  1  0  0  0  0
  5  6  2  0  0  0  0
  5  7  1  0  0  0  0
  7  8  1  0  0  0  0
  7  9  1  0  0  0  0
  9 10  1  0  0  0  0
  9 11  1  0  0  0  0
  9 27  1  0  0  0  0
 11 12  1  0  0  0  0
 11 13  1  0  0  0  0
 11 14  1  0  0  0  0
 14 15  1  0  0  0  0
 14 16  1  0  0  0  0
 14 17  1  0  0  0  0
 17 18  1  0  0  0  0
 17 19  1  0  0  0  0
 17 20  1  0  0  0  0
 20 21  1  0  0  0  0
 20 22  1  0  0  0  0
 20 23  1  0  0  0  0
 23 24  1  0  0  0  0
 23 25  1  0  0  0  0
 23 26  1  0  0  0  0
 27 28  2  0  0  0  0
 27 29  1  0  0  0  0
 29 30  1  0  0  0  0
 29 31  1  0  0  0  0
 31 32  1  0  0  0  0
 31 33  1  0  0  0  0
 31 34  1  0  0  0  0
M  CHG  1  23   1
M  END
$$$$

  -OEChem-02102214153D

 34 33  0     1  0  0  0  0  0999 V2000
   -3.6113   -4.0943    1.8239 H   0  0  0  0  0  0  0  0  0  0  0  0
   -3.6706   -3.0889    1.3976 C   0  0  0  0  0  0  0  0  0  0  0  0
   -4.3201   -2.4778    2.0292 H   0  0  0  0  0  0  0  0  0  0  0  0
   -4.1057   -3.1557    0.3974 H   0  0  0  0  0  0  0  0  0  0  0  0
   -2.2881   -2.4705    1.3210 C   0  0  0  0  0  0  0  0  0  0  0  0
   -1.3033   -3.1069    1.6684 O   0  0  0  0  0  0  0  0  0  0  0  0
   -2.1258   -1.1883    0.8383 N   0  0  0  0  0  0  0  0  0  0  0  0
   -2.9684   -0.6506    0.6322 H   0  0  0  0  0  0  0  0  0  0  0  0
   -0.8511   -0.4585    0.8744 C   0  0  1  0  0  0  0  0  0  0  0  0
   -0.1587   -0.9202    1.5854 H   0  0  0  0  0  0  0  0  0  0  0  0
   -0.2500   -0.4680   -0.5496 C   0  0  0  0  0  0  0  0  0  0  0  0
   -1.0273   -0.7485   -1.2696 H   0  0  0  0  0  0  0  0  0  0  0  0
    0.0839    0.5364   -0.8325 H   0  0  0  0  0  0  0  0  0  0  0  0
    0.9225   -1.4553   -0.6690 C   0  0  0  0  0  0  0  0  0  0  0  0
    0.7445   -2.3282   -0.0299 H   0  0  0  0  0  0  0  0  0  0  0  0
    0.9567   -1.8166   -1.7030 H   0  0  0  0  0  0  0  0  0  0  0  0
    2.2697   -0.8039   -0.3367 C   0  0  0  0  0  0  0  0  0  0  0  0
    2.4526    0.0306   -1.0228 H   0  0  0  0  0  0  0  0  0  0  0  0
    2.2439   -0.4075    0.6839 H   0  0  0  0  0  0  0  0  0  0  0  0
    3.3787   -1.8465   -0.4673 C   0  0  0  0  0  0  0  0  0  0  0  0
    3.1770   -2.6750    0.2282 H   0  0  0  0  0  0  0  0  0  0  0  0
    3.3595   -2.2672   -1.4836 H   0  0  0  0  0  0  0  0  0  0  0  0
    4.6849   -1.2147   -0.1808 N   0  3  0  0  0  0  0  0  0  0  0  0
    4.6929   -0.8439    0.7710 H   0  0  0  0  0  0  0  0  0  0  0  0
    5.4353   -1.9033   -0.2741 H   0  0  0  0  0  0  0  0  0  0  0  0
    4.8543   -0.4499   -0.8371 H   0  0  0  0  0  0  0  0  0  0  0  0
   -1.0875    0.9864    1.3603 C   0  0  0  0  0  0  0  0  0  0  0  0
   -1.9996    1.6415    0.8751 O   0  0  0  0  0  0  0  0  0  0  0  0
   -0.2574    1.5652    2.3040 N   0  0  0  0  0  0  0  0  0  0  0  0
    0.3582    0.9448    2.8204 H   0  0  0  0  0  0  0  0  0  0  0  0
   -0.5063    2.8979    2.8473 C   0  0  0  0  0  0  0  0  0  0  0  0
   -1.4727    2.9287    3.3623 H   0  0  0  0  0  0  0  0  0  0  0  0
    0.2759    3.1703    3.5628 H   0  0  0  0  0  0  0  0  0  0  0  0
   -0.5134    3.6452    2.0464 H   0  0  0  0  0  0  0  0  0  0  0  0
  1  2  1  0  0  0  0
  2  3  1  0  0  0  0
  2  4  1  0  0  0  0
  2  5  1  0  0  0  0
  5  6  2  0  0  0  0
  5  7  1  0  0  0  0
  7  8  1  0  0  0  0
  7  9  1  0  0  0  0
  9 10  1  0  0  0  0
  9 11  1  0  0  0  0
  9 27  1  0  0  0  0
 11 12  1  0  0  0  0
 11 13  1  0  0  0  0
 11 14  1  0  0  0  0
 14 15  1  0  0  0  0
 14 16  1  0  0  0  0
 14 17  1  0  0  0  0
 17 18  1  0  0  0  0
 17 19  1  0  0  0  0
 17 20  1  0  0  0  0
 20 21  1  0  0  0  0
 20 22  1  0  0  0  0
 20 23  1  0  0  0  0
 23 24  1  0  0  0  0
 23 25  1  0  0  0  0
 23 26  1  0  0  0  0
 27 28  2  0  0  0  0
 27 29  1  0  0  0  0
 29 30  1  0  0  0  0
 29 31  1  0  0  0  0
 31 32  1  0  0  0  0
 31 33  1  0  0  0  0
 31 34  1  0  0  0  0
M  CHG  1  23   1
M  END
$$$$

  -OEChem-02102214153D

 34 33  0     1  0  0  0  0  0999 V2000
   -3.5998   -4.0956    1.8230 H   0  0  0  0  0  0  0  0  0  0  0  0
   -3.6612   -3.0904    1.3965 C   0  0  0  0  0  0  0  0  0  0  0  0
   -4.3217   -2.4836    2.0209 H   0  0  0  0  0  0  0  0  0  0  0  0
   -4.0844   -3.1599    0.3914 H   0  0  0  0  0  0  0  0  0  0  0  0
   -2.2821   -2.4628    1.3363 C   0  0  0  0  0  0  0  0  0  0  0  0
   -1.2975   -3.0909    1.7009 O   0  0  0  0  0  0  0  0  0  0  0  0
   -2.1208   -1.1837    0.8448 N   0  0  0  0  0  0  0  0  0  0  0  0
   -2.9634   -0.6521    0.6228 H   0  0  0  0  0  0  0  0  0  0  0  0
   -0.8505   -0.4473    0.8930 C   0  0  1  0  0  0  0  0  0  0  0  0
   -0.1693   -0.9023    1.6173 H   0  0  0  0  0  0  0  0  0  0  0  0
   -0.2352   -0.4653   -0.5250 C   0  0  0  0  0  0  0  0  0  0  0  0
   -1.0036   -0.7406   -1.2564 H   0  0  0  0  0  0  0  0  0  0  0  0
    0.1094    0.5379   -0.7996 H   0  0  0  0  0  0  0  0  0  0  0  0
    0.9432   -1.4445   -0.6407 C   0  0  0  0  0  0  0  0  0  0  0  0
    0.6505   -2.4083   -0.2074 H   0  0  0  0  0  0  0  0  0  0  0  0
    1.1407   -1.6130   -1.7054 H   0  0  0  0  0  0  0  0  0  0  0  0
    2.2281   -0.9337    0.0249 C   0  0  0  0  0  0  0  0  0  0  0  0
    2.5296    0.0114   -0.4401 H   0  0  0  0  0  0  0  0  0  0  0  0
    2.0531   -0.7493    1.0894 H   0  0  0  0  0  0  0  0  0  0  0  0
    3.3252   -1.9833   -0.1468 C   0  0  0  0  0  0  0  0  0  0  0  0
    2.9938   -2.9274    0.3114 H   0  0  0  0  0  0  0  0  0  0  0  0
    3.4695   -2.1795   -1.2195 H   0  0  0  0  0  0  0  0  0  0  0  0
    4.5765   -1.5003    0.4762 N   0  3  0  0  0  0  0  0  0  0  0  0
    4.4346   -1.3533    1.4771 H   0  0  0  0  0  0  0  0  0  0  0  0
    5.3209   -2.1892    0.3458 H   0  0  0  0  0  0  0  0  0  0  0  0
    4.8628   -0.6184    0.0470 H   0  0  0  0  0  0  0  0  0  0  0  0
   -1.1053    0.9999    1.3637 C   0  0  0  0  0  0  0  0  0  0  0  0
   -2.0196    1.6402    0.8633 O   0  0  0  0  0  0  0  0  0  0  0  0
   -0.2966    1.5964    2.3148 N   0  0  0  0  0  0  0  0  0  0  0  0
    0.3236    0.9911    2.8427 H   0  0  0  0  0  0  0  0  0  0  0  0
   -0.5641    2.9350    2.8350 C   0  0  0  0  0  0  0  0  0  0  0  0
   -1.5380    2.9651    3.3356 H   0  0  0  0  0  0  0  0  0  0  0  0
    0.2053    3.2248    3.5574 H   0  0  0  0  0  0  0  0  0  0  0  0
   -0.5657    3.6705    2.0229 H   0  0  0  0  0  0  0  0  0  0  0  0
  1  2  1  0  0  0  0
  2  3  1  0  0  0  0
  2  4  1  0  0  0  0
  2  5  1  0  0  0  0
  5  6  2  0  0  0  0
  5  7  1  0  0  0  0
  7  8  1  0  0  0  0
  7  9  1  0  0  0  0
  9 10  1  0  0  0  0
  9 11  1  0  0  0  0
  9 27  1  0  0  0  0
 11 12  1  0  0  0  0
 11 13  1  0  0  0  0
 11 14  1  0  0  0  0
 14 15  1  0  0  0  0
 14 16  1  0  0  0  0
 14 17  1  0  0  0  0
 17 18  1  0  0  0  0
 17 19  1  0  0  0  0
 17 20  1  0  0  0  0
 20 21  1  0  0  0  0
 20 22  1  0  0  0  0
 20 23  1  0  0  0  0
 23 24  1  0  0  0  0
 23 25  1  0  0  0  0
 23 26  1  0  0  0  0
 27 28  2  0  0  0  0
 27 29  1  0  0  0  0
 29 30  1  0  0  0  0
 29 31  1  0  0  0  0
 31 32  1  0  0  0  0
 31 33  1  0  0  0  0
 31 34  1  0  0  0  0
M  CHG  1  23   1
M  END
$$$$

  -OEChem-02102214153D

 34 33  0     1  0  0  0  0  0999 V2000
   -3.6447   -4.0609    1.8432 H   0  0  0  0  0  0  0  0  0  0  0  0
   -3.6954   -3.0588    1.4082 C   0  0  0  0  0  0  0  0  0  0  0  0
   -4.3620   -2.4443    2.0184 H   0  0  0  0  0  0  0  0  0  0  0  0
   -4.1055   -3.1342    0.3981 H   0  0  0  0  0  0  0  0  0  0  0  0
   -2.3127   -2.4373    1.3617 C   0  0  0  0  0  0  0  0  0  0  0  0
   -1.3371   -3.0599    1.7600 O   0  0  0  0  0  0  0  0  0  0  0  0
   -2.1366   -1.1699    0.8459 N   0  0  0  0  0  0  0  0  0  0  0  0
   -2.9726   -0.6386    0.5990 H   0  0  0  0  0  0  0  0  0  0  0  0
   -0.8678   -0.4338    0.9229 C   0  0  1  0  0  0  0  0  0  0  0  0
   -0.2248   -0.8705    1.6882 H   0  0  0  0  0  0  0  0  0  0  0  0
   -0.2066   -0.4911   -0.4749 C   0  0  0  0  0  0  0  0  0  0  0  0
   -0.9551   -0.7588   -1.2293 H   0  0  0  0  0  0  0  0  0  0  0  0
    0.1565    0.5078   -0.7415 H   0  0  0  0  0  0  0  0  0  0  0  0
    0.9811   -1.4656   -0.5770 C   0  0  0  0  0  0  0  0  0  0  0  0
    0.6093   -2.4772   -0.3752 H   0  0  0  0  0  0  0  0  0  0  0  0
    1.3401   -1.4494   -1.6121 H   0  0  0  0  0  0  0  0  0  0  0  0
    2.1578   -1.1683    0.3657 C   0  0  0  0  0  0  0  0  0  0  0  0
    2.5085   -0.1435    0.2015 H   0  0  0  0  0  0  0  0  0  0  0  0
    1.8480   -1.2630    1.4100 H   0  0  0  0  0  0  0  0  0  0  0  0
    3.2802   -2.1654    0.0817 C   0  0  0  0  0  0  0  0  0  0  0  0
    2.8867   -3.1872    0.1910 H   0  0  0  0  0  0  0  0  0  0  0  0
    3.6056   -2.0546   -0.9632 H   0  0  0  0  0  0  0  0  0  0  0  0
    4.4014   -1.9295    1.0166 N   0  3  0  0  0  0  0  0  0  0  0  0
    4.0882   -2.0728    1.9788 H   0  0  0  0  0  0  0  0  0  0  0  0
    5.1652   -2.5797    0.8180 H   0  0  0  0  0  0  0  0  0  0  0  0
    4.7459   -0.9729    0.9165 H   0  0  0  0  0  0  0  0  0  0  0  0
   -1.1393    1.0239    1.3512 C   0  0  0  0  0  0  0  0  0  0  0  0
   -2.0463    1.6468    0.8166 O   0  0  0  0  0  0  0  0  0  0  0  0
   -0.3652    1.6419    2.3171 N   0  0  0  0  0  0  0  0  0  0  0  0
    0.2570    1.0548    2.8624 H   0  0  0  0  0  0  0  0  0  0  0  0
   -0.6561    2.9862    2.8084 C   0  0  0  0  0  0  0  0  0  0  0  0
   -1.6434    3.0177    3.2820 H   0  0  0  0  0  0  0  0  0  0  0  0
    0.0918    3.2922    3.5465 H   0  0  0  0  0  0  0  0  0  0  0  0
   -0.6406    3.7083    1.9847 H   0  0  0  0  0  0  0  0  0  0  0  0
  1  2  1  0  0  0  0
  2  3  1  0  0  0  0
  2  4  1  0  0  0  0
  2  5  1  0  0  0  0
  5  6  2  0  0  0  0
  5  7  1  0  0  0  0
  7  8  1  0  0  0  0
  7  9  1  0  0  0  0
  9 10  1  0  0  0  0
  9 11  1  0  0  0  0
  9 27  1  0  0  0  0
 11 12  1  0  0  0  0
 11 13  1  0  0  0  0
 11 14  1  0  0  0  0
 14 15  1  0  0  0  0
 14 16  1  0  0  0  0
 14 17  1  0  0  0  0
 17 18  1  0  0  0  0
 17 19  1  0  0  0  0
 17 20  1  0  0  0  0
 20 21  1  0  0  0  0
 20 22  1  0  0  0  0
 20 23  1  0  0  0  0
 23 24  1  0  0  0  0
 23 25  1  0  0  0  0
 23 26  1  0  0  0  0
 27 28  2  0  0  0  0
 27 29  1  0  0  0  0
 29 30  1  0  0  0  0
 29 31  1  0  0  0  0
 31 32  1  0  0  0  0
 31 33  1  0  0  0  0
 31 34  1  0  0  0  0
M  CHG  1  23   1
M  END
$$$$

  -OEChem-02102214153D

 34 33  0     1  0  0  0  0  0999 V2000
   -3.7061   -4.0083    1.8914 H   0  0  0  0  0  0  0  0  0  0  0  0
   -3.7380   -3.0152    1.4346 C   0  0  0  0  0  0  0  0  0  0  0  0
   -4.4033   -2.3787    2.0234 H   0  0  0  0  0  0  0  0  0  0  0  0
   -4.1375   -3.1062    0.4215 H   0  0  0  0  0  0  0  0  0  0  0  0
   -2.3470   -2.4127    1.3917 C   0  0  0  0  0  0  0  0  0  0  0  0
   -1.3834   -3.0358    1.8198 O   0  0  0  0  0  0  0  0  0  0  0  0
   -2.1497   -1.1589    0.8511 N   0  0  0  0  0  0  0  0  0  0  0  0
   -2.9757   -0.6235    0.5797 H   0  0  0  0  0  0  0  0  0  0  0  0
   -0.8786   -0.4314    0.9509 C   0  0  1  0  0  0  0  0  0  0  0  0
   -0.2652   -0.8430    1.7510 H   0  0  0  0  0  0  0  0  0  0  0  0
   -0.1802   -0.5156   -0.4287 C   0  0  0  0  0  0  0  0  0  0  0  0
   -0.9133   -0.7632   -1.2048 H   0  0  0  0  0  0  0  0  0  0  0  0
    0.2051    0.4797   -0.6777 H   0  0  0  0  0  0  0  0  0  0  0  0
    1.0100   -1.4931   -0.5287 C   0  0  0  0  0  0  0  0  0  0  0  0
    0.5991   -2.5077   -0.5895 H   0  0  0  0  0  0  0  0  0  0  0  0
    1.5251   -1.2931   -1.4751 H   0  0  0  0  0  0  0  0  0  0  0  0
    2.0290   -1.4605    0.6215 C   0  0  0  0  0  0  0  0  0  0  0  0
    2.3754   -0.4338    0.7828 H   0  0  0  0  0  0  0  0  0  0  0  0
    1.5664   -1.8241    1.5439 H   0  0  0  0  0  0  0  0  0  0  0  0
    3.2049   -2.3713    0.2732 C   0  0  0  0  0  0  0  0  0  0  0  0
    2.8174   -3.3613   -0.0103 H   0  0  0  0  0  0  0  0  0  0  0  0
    3.7310   -1.9666   -0.6037 H   0  0  0  0  0  0  0  0  0  0  0  0
    4.1058   -2.4770    1.4411 N   0  3  0  0  0  0  0  0  0  0  0  0
    3.5990   -2.8762    2.2343 H   0  0  0  0  0  0  0  0  0  0  0  0
    4.8993   -3.0820    1.2186 H   0  0  0  0  0  0  0  0  0  0  0  0
    4.4552   -1.5529    1.6999 H   0  0  0  0  0  0  0  0  0  0  0  0
   -1.1634    1.0361    1.3375 C   0  0  0  0  0  0  0  0  0  0  0  0
   -2.0629    1.6410    0.7704 O   0  0  0  0  0  0  0  0  0  0  0  0
   -0.4228    1.6777    2.3141 N   0  0  0  0  0  0  0  0  0  0  0  0
    0.2008    1.1113    2.8793 H   0  0  0  0  0  0  0  0  0  0  0  0
   -0.7259    3.0347    2.7612 C   0  0  0  0  0  0  0  0  0  0  0  0
   -1.7293    3.0803    3.1985 H   0  0  0  0  0  0  0  0  0  0  0  0
   -0.0039    3.3576    3.5176 H   0  0  0  0  0  0  0  0  0  0  0  0
   -0.6784    3.7360    1.9209 H   0  0  0  0  0  0  0  0  0  0  0  0
  1  2  1  0  0  0  0
  2  3  1  0  0  0  0
  2  4  1  0  0  0  0
  2  5  1  0  0  0  0
  5  6  2  0  0  0  0
  5  7  1  0  0  0  0
  7  8  1  0  0  0  0
  7  9  1  0  0  0  0
  9 10  1  0  0  0  0
  9 11  1  0  0  0  0
  9 27  1  0  0  0  0
 11 12  1  0  0  0  0
 11 13  1  0  0  0  0
 11 14  1  0  0  0  0
 14 15  1  0  0  0  0
 14 16  1  0  0  0  0
 14 17  1  0  0  0  0
 17 18  1  0  0  0  0
 17 19  1  0  0  0  0
 17 20  1  0  0  0  0
 20 21  1  0  0  0  0
 20 22  1  0  0  0  0
 20 23  1  0  0  0  0
 23 24  1  0  0  0  0
 23 25  1  0  0  0  0
 23 26  1  0  0  0  0
 27 28  2  0  0  0  0
 27 29  1  0  0  0  0
 29 30  1  0  0  0  0
 29 31  1  0  0  0  0
 31 32  1  0  0  0  0
 31 33  1  0  0  0  0
 31 34  1  0  0  0  0
M  CHG  1  23   1
M  END
$$$$

  -OEChem-02102214153D

 34 33  0     1  0  0  0  0  0999 V2000
   -3.7305   -3.9846    1.9165 H   0  0  0  0  0  0  0  0  0  0  0  0
   -3.7532   -2.9945    1.4525 C   0  0  0  0  0  0  0  0  0  0  0  0
   -4.4247   -2.3521    2.0276 H   0  0  0  0  0  0  0  0  0  0  0  0
   -4.1390   -3.0913    0.4347 H   0  0  0  0  0  0  0  0  0  0  0  0
   -2.3601   -2.3955    1.4238 C   0  0  0  0  0  0  0  0  0  0  0  0
   -1.4052   -3.0158    1.8766 O   0  0  0  0  0  0  0  0  0  0  0  0
   -2.1509   -1.1514    0.8654 N   0  0  0  0  0  0  0  0  0  0  0  0
   -2.9714   -0.6167    0.5754 H   0  0  0  0  0  0  0  0  0  0  0  0
   -0.8796   -0.4251    0.9726 C   0  0  1  0  0  0  0  0  0  0  0  0
   -0.2794   -0.8133    1.7940 H   0  0  0  0  0  0  0  0  0  0  0  0
   -0.1608   -0.5228   -0.3975 C   0  0  0  0  0  0  0  0  0  0  0  0
   -0.8854   -0.7568   -1.1859 H   0  0  0  0  0  0  0  0  0  0  0  0
    0.2329    0.4719   -0.6350 H   0  0  0  0  0  0  0  0  0  0  0  0
    1.0356   -1.4981   -0.5025 C   0  0  0  0  0  0  0  0  0  0  0  0
    0.6342   -2.4658   -0.8248 H   0  0  0  0  0  0  0  0  0  0  0  0
    1.6939   -1.1389   -1.3015 H   0  0  0  0  0  0  0  0  0  0  0  0
    1.8632   -1.7442    0.7683 C   0  0  0  0  0  0  0  0  0  0  0  0
    2.2185   -0.7922    1.1768 H   0  0  0  0  0  0  0  0  0  0  0  0
    1.2401   -2.2404    1.5190 H   0  0  0  0  0  0  0  0  0  0  0  0
    3.0424   -2.6567    0.4399 C   0  0  0  0  0  0  0  0  0  0  0  0
    2.6745   -3.5252   -0.1268 H   0  0  0  0  0  0  0  0  0  0  0  0
    3.7508   -2.1216   -0.2095 H   0  0  0  0  0  0  0  0  0  0  0  0
    3.6809   -3.0902    1.7012 N   0  3  0  0  0  0  0  0  0  0  0  0
    2.9913   -3.5616    2.2920 H   0  0  0  0  0  0  0  0  0  0  0  0
    4.4455   -3.7393    1.5036 H   0  0  0  0  0  0  0  0  0  0  0  0
    4.0515   -2.2821    2.2035 H   0  0  0  0  0  0  0  0  0  0  0  0
   -1.1766    1.0482    1.3303 C   0  0  0  0  0  0  0  0  0  0  0  0
   -2.0807    1.6345    0.7505 O   0  0  0  0  0  0  0  0  0  0  0  0
   -0.4555    1.7102    2.3080 N   0  0  0  0  0  0  0  0  0  0  0  0
    0.1954    1.1682    2.8662 H   0  0  0  0  0  0  0  0  0  0  0  0
   -0.7669    3.0739    2.7280 C   0  0  0  0  0  0  0  0  0  0  0  0
   -1.7763    3.1251    3.1505 H   0  0  0  0  0  0  0  0  0  0  0  0
   -0.0558    3.4101    3.4889 H   0  0  0  0  0  0  0  0  0  0  0  0
   -0.7087    3.7612    1.8769 H   0  0  0  0  0  0  0  0  0  0  0  0
  1  2  1  0  0  0  0
  2  3  1  0  0  0  0
  2  4  1  0  0  0  0
  2  5  1  0  0  0  0
  5  6  2  0  0  0  0
  5  7  1  0  0  0  0
  7  8  1  0  0  0  0
  7  9  1  0  0  0  0
  9 10  1  0  0  0  0
  9 11  1  0  0  0  0
  9 27  1  0  0  0  0
 11 12  1  0  0  0  0
 11 13  1  0  0  0  0
 11 14  1  0  0  0  0
 14 15  1  0  0  0  0
 14 16  1  0  0  0  0
 14 17  1  0  0  0  0
 17 18  1  0  0  0  0
 17 19  1  0  0  0  0
 17 20  1  0  0  0  0
 20 21  1  0  0  0  0
 20 22  1  0  0  0  0
 20 23  1  0  0  0  0
 23 24  1  0  0  0  0
 23 25  1  0  0  0  0
 23 26  1  0  0  0  0
 27 28  2  0  0  0  0
 27 29  1  0  0  0  0
 29 30  1  0  0  0  0
 29 31  1  0  0  0  0
 31 32  1  0  0  0  0
 31 33  1  0  0  0  0
 31 34  1  0  0  0  0
M  CHG  1  23   1
M  END
$$$$

  -OEChem-02102214153D

 34 33  0     1  0  0  0  0  0999 V2000
   -3.7620   -3.9589    1.9558 H   0  0  0  0  0  0  0  0  0  0  0  0
   -3.7604   -2.9765    1.4753 C   0  0  0  0  0  0  0  0  0  0  0  0
   -4.4374   -2.3164    2.0236 H   0  0  0  0  0  0  0  0  0  0  0  0
   -4.1226   -3.0856    0.4500 H   0  0  0  0  0  0  0  0  0  0  0  0
   -2.3597   -2.3954    1.4718 C   0  0  0  0  0  0  0  0  0  0  0  0
   -1.4293   -3.0196    1.9664 O   0  0  0  0  0  0  0  0  0  0  0  0
   -2.1263   -1.1618    0.9002 N   0  0  0  0  0  0  0  0  0  0  0  0
   -2.9395   -0.6317    0.5819 H   0  0  0  0  0  0  0  0  0  0  0  0
   -0.8584   -0.4257    1.0038 C   0  0  1  0  0  0  0  0  0  0  0  0
   -0.2579   -0.7928    1.8358 H   0  0  0  0  0  0  0  0  0  0  0  0
   -0.1261   -0.5236   -0.3630 C   0  0  0  0  0  0  0  0  0  0  0  0
   -0.8493   -0.7649   -1.1503 H   0  0  0  0  0  0  0  0  0  0  0  0
    0.2536    0.4761   -0.6038 H   0  0  0  0  0  0  0  0  0  0  0  0
    1.0875   -1.4813   -0.4846 C   0  0  0  0  0  0  0  0  0  0  0  0
    0.7480   -2.3509   -1.0590 H   0  0  0  0  0  0  0  0  0  0  0  0
    1.8607   -0.9845   -1.0817 H   0  0  0  0  0  0  0  0  0  0  0  0
    1.7123   -2.0042    0.8177 C   0  0  0  0  0  0  0  0  0  0  0  0
    2.1036   -1.1705    1.4102 H   0  0  0  0  0  0  0  0  0  0  0  0
    0.9474   -2.5189    1.4022 H   0  0  0  0  0  0  0  0  0  0  0  0
    2.8235   -3.0034    0.5092 C   0  0  0  0  0  0  0  0  0  0  0  0
    2.4727   -3.7021   -0.2648 H   0  0  0  0  0  0  0  0  0  0  0  0
    3.6962   -2.4742    0.0994 H   0  0  0  0  0  0  0  0  0  0  0  0
    3.1538   -3.7303    1.7540 N   0  3  0  0  0  0  0  0  0  0  0  0
    2.3065   -4.1618    2.1337 H   0  0  0  0  0  0  0  0  0  0  0  0
    3.8418   -4.4619    1.5645 H   0  0  0  0  0  0  0  0  0  0  0  0
    3.5346   -3.0852    2.4479 H   0  0  0  0  0  0  0  0  0  0  0  0
   -1.1808    1.0506    1.3300 C   0  0  0  0  0  0  0  0  0  0  0  0
   -2.0984    1.6056    0.7401 O   0  0  0  0  0  0  0  0  0  0  0  0
   -0.4816    1.7446    2.3013 N   0  0  0  0  0  0  0  0  0  0  0  0
    0.2029    1.2366    2.8517 H   0  0  0  0  0  0  0  0  0  0  0  0
   -0.8226    3.1088    2.6962 C   0  0  0  0  0  0  0  0  0  0  0  0
   -1.8422    3.1504    3.0945 H   0  0  0  0  0  0  0  0  0  0  0  0
   -0.1355    3.4645    3.4702 H   0  0  0  0  0  0  0  0  0  0  0  0
   -0.7541    3.7865    1.8383 H   0  0  0  0  0  0  0  0  0  0  0  0
  1  2  1  0  0  0  0
  2  3  1  0  0  0  0
  2  4  1  0  0  0  0
  2  5  1  0  0  0  0
  5  6  2  0  0  0  0
  5  7  1  0  0  0  0
  7  8  1  0  0  0  0
  7  9  1  0  0  0  0
  9 10  1  0  0  0  0
  9 11  1  0  0  0  0
  9 27  1  0  0  0  0
 11 12  1  0  0  0  0
 11 13  1  0  0  0  0
 11 14  1  0  0  0  0
 14 15  1  0  0  0  0
 14 16  1  0  0  0  0
 14 17  1  0  0  0  0
 17 18  1  0  0  0  0
 17 19  1  0  0  0  0
 17 20  1  0  0  0  0
 20 21  1  0  0  0  0
 20 22  1  0  0  0  0
 20 23  1  0  0  0  0
 23 24  1  0  0  0  0
 23 25  1  0  0  0  0
 23 26  1  0  0  0  0
 27 28  2  0  0  0  0
 27 29  1  0  0  0  0
 29 30  1  0  0  0  0
 29 31  1  0  0  0  0
 31 32  1  0  0  0  0
 31 33  1  0  0  0  0
 31 34  1  0  0  0  0
M  CHG  1  23   1
M  END
$$$$

  -OEChem-02102214153D

 34 33  0     1  0  0  0  0  0999 V2000
   -3.8980   -3.9199    1.9331 H   0  0  0  0  0  0  0  0  0  0  0  0
   -3.8458   -2.9394    1.4518 C   0  0  0  0  0  0  0  0  0  0  0  0
   -4.5334   -2.2605    1.9627 H   0  0  0  0  0  0  0  0  0  0  0  0
   -4.1567   -3.0420    0.4092 H   0  0  0  0  0  0  0  0  0  0  0  0
   -2.4326   -2.3935    1.5214 C   0  0  0  0  0  0  0  0  0  0  0  0
   -1.5590   -3.0228    2.1025 O   0  0  0  0  0  0  0  0  0  0  0  0
   -2.1426   -1.1748    0.9437 N   0  0  0  0  0  0  0  0  0  0  0  0
   -2.9314   -0.6426    0.5717 H   0  0  0  0  0  0  0  0  0  0  0  0
   -0.8622   -0.4550    1.0414 C   0  0  1  0  0  0  0  0  0  0  0  0
   -0.2654   -0.8296    1.8742 H   0  0  0  0  0  0  0  0  0  0  0  0
   -0.1141   -0.5500   -0.3217 C   0  0  0  0  0  0  0  0  0  0  0  0
   -0.8418   -0.8020   -1.1016 H   0  0  0  0  0  0  0  0  0  0  0  0
    0.2564    0.4499   -0.5764 H   0  0  0  0  0  0  0  0  0  0  0  0
    1.0996   -1.5077   -0.4594 C   0  0  0  0  0  0  0  0  0  0  0  0
    0.8699   -2.2103   -1.2683 H   0  0  0  0  0  0  0  0  0  0  0  0
    1.9665   -0.9204   -0.7826 H   0  0  0  0  0  0  0  0  0  0  0  0
    1.4921   -2.3166    0.7830 C   0  0  0  0  0  0  0  0  0  0  0  0
    1.8204   -1.6437    1.5822 H   0  0  0  0  0  0  0  0  0  0  0  0
    0.6204   -2.8709    1.1261 H   0  0  0  0  0  0  0  0  0  0  0  0
    2.5947   -3.3208    0.4669 C   0  0  0  0  0  0  0  0  0  0  0  0
    2.3245   -3.8806   -0.4406 H   0  0  0  0  0  0  0  0  0  0  0  0
    3.5340   -2.7890    0.2561 H   0  0  0  0  0  0  0  0  0  0  0  0
    2.7241   -4.2296    1.6269 N   0  3  0  0  0  0  0  0  0  0  0  0
    1.8098   -4.6331    1.8505 H   0  0  0  0  0  0  0  0  0  0  0  0
    3.3783   -4.9854    1.4150 H   0  0  0  0  0  0  0  0  0  0  0  0
    3.0614   -3.7140    2.4414 H   0  0  0  0  0  0  0  0  0  0  0  0
   -1.1696    1.0298    1.3422 C   0  0  0  0  0  0  0  0  0  0  0  0
   -2.0709    1.5890    0.7313 O   0  0  0  0  0  0  0  0  0  0  0  0
   -0.4660    1.7285    2.3064 N   0  0  0  0  0  0  0  0  0  0  0  0
    0.2027    1.2169    2.8730 H   0  0  0  0  0  0  0  0  0  0  0  0
   -0.7791    3.1078    2.6698 C   0  0  0  0  0  0  0  0  0  0  0  0
   -1.7942    3.1777    3.0756 H   0  0  0  0  0  0  0  0  0  0  0  0
   -0.0779    3.4696    3.4283 H   0  0  0  0  0  0  0  0  0  0  0  0
   -0.7061    3.7628    1.7947 H   0  0  0  0  0  0  0  0  0  0  0  0
  1  2  1  0  0  0  0
  2  3  1  0  0  0  0
  2  4  1  0  0  0  0
  2  5  1  0  0  0  0
  5  6  2  0  0  0  0
  5  7  1  0  0  0  0
  7  8  1  0  0  0  0
  7  9  1  0  0  0  0
  9 10  1  0  0  0  0
  9 11  1  0  0  0  0
  9 27  1  0  0  0  0
 11 12  1  0  0  0  0
 11 13  1  0  0  0  0
 11 14  1  0  0  0  0
 14 15  1  0  0  0  0
 14 16  1  0  0  0  0
 14 17  1  0  0  0  0
 17 18  1  0  0  0  0
 17 19  1  0  0  0  0
 17 20  1  0  0  0  0
 20 21  1  0  0  0  0
 20 22  1  0  0  0  0
 20 23  1  0  0  0  0
 23 24  1  0  0  0  0
 23 25  1  0  0  0  0
 23 26  1  0  0  0  0
 27 28  2  0  0  0  0
 27 29  1  0  0  0  0
 29 30  1  0  0  0  0
 29 31  1  0  0  0  0
 31 32  1  0  0  0  0
 31 33  1  0  0  0  0
 31 34  1  0  0  0  0
M  CHG  1  23   1
M  END
$$$$

  -OEChem-02102214153D

 34 33  0     1  0  0  0  0  0999 V2000
   -3.9658   -3.8805    1.9553 H   0  0  0  0  0  0  0  0  0  0  0  0
   -3.8946   -2.9031    1.4704 C   0  0  0  0  0  0  0  0  0  0  0  0
   -4.5634   -2.2071    1.9832 H   0  0  0  0  0  0  0  0  0  0  0  0
   -4.2139   -3.0017    0.4299 H   0  0  0  0  0  0  0  0  0  0  0  0
   -2.4696   -2.3883    1.5299 C   0  0  0  0  0  0  0  0  0  0  0  0
   -1.6074   -3.0323    2.1137 O   0  0  0  0  0  0  0  0  0  0  0  0
   -2.1587   -1.1768    0.9480 N   0  0  0  0  0  0  0  0  0  0  0  0
   -2.9383   -0.6263    0.5829 H   0  0  0  0  0  0  0  0  0  0  0  0
   -0.8631   -0.4849    1.0419 C   0  0  1  0  0  0  0  0  0  0  0  0
   -0.2719   -0.8674    1.8745 H   0  0  0  0  0  0  0  0  0  0  0  0
   -0.1037   -0.5669   -0.3167 C   0  0  0  0  0  0  0  0  0  0  0  0
   -0.8351   -0.8217   -1.0919 H   0  0  0  0  0  0  0  0  0  0  0  0
    0.2706    0.4300   -0.5781 H   0  0  0  0  0  0  0  0  0  0  0  0
    1.0951   -1.5421   -0.4562 C   0  0  0  0  0  0  0  0  0  0  0  0
    1.0244   -2.0271   -1.4363 H   0  0  0  0  0  0  0  0  0  0  0  0
    2.0156   -0.9478   -0.4572 H   0  0  0  0  0  0  0  0  0  0  0  0
    1.2273   -2.6152    0.6298 C   0  0  0  0  0  0  0  0  0  0  0  0
    1.3972   -2.1559    1.6082 H   0  0  0  0  0  0  0  0  0  0  0  0
    0.2945   -3.1793    0.6537 H   0  0  0  0  0  0  0  0  0  0  0  0
    2.3580   -3.5912    0.3343 C   0  0  0  0  0  0  0  0  0  0  0  0
    2.2324   -3.9981   -0.6798 H   0  0  0  0  0  0  0  0  0  0  0  0
    3.3233   -3.0647    0.3602 H   0  0  0  0  0  0  0  0  0  0  0  0
    2.2869   -4.6612    1.3534 N   0  3  0  0  0  0  0  0  0  0  0  0
    1.3365   -5.0403    1.3875 H   0  0  0  0  0  0  0  0  0  0  0  0
    2.9392   -5.4143    1.1272 H   0  0  0  0  0  0  0  0  0  0  0  0
    2.5173   -4.2833    2.2740 H   0  0  0  0  0  0  0  0  0  0  0  0
   -1.1488    1.0044    1.3423 C   0  0  0  0  0  0  0  0  0  0  0  0
   -2.0478    1.5744    0.7372 O   0  0  0  0  0  0  0  0  0  0  0  0
   -0.4338    1.6929    2.3054 N   0  0  0  0  0  0  0  0  0  0  0  0
    0.2429    1.1773    2.8594 H   0  0  0  0  0  0  0  0  0  0  0  0
   -0.7219    3.0783    2.6645 C   0  0  0  0  0  0  0  0  0  0  0  0
   -1.7324    3.1655    3.0781 H   0  0  0  0  0  0  0  0  0  0  0  0
   -0.0092    3.4333    3.4153 H   0  0  0  0  0  0  0  0  0  0  0  0
   -0.6455    3.7269    1.7851 H   0  0  0  0  0  0  0  0  0  0  0  0
  1  2  1  0  0  0  0
  2  3  1  0  0  0  0
  2  4  1  0  0  0  0
  2  5  1  0  0  0  0
  5  6  2  0  0  0  0
  5  7  1  0  0  0  0
  7  8  1  0  0  0  0
  7  9  1  0  0  0  0
  9 10  1  0  0  0  0
  9 11  1  0  0  0  0
  9 27  1  0  0  0  0
 11 12  1  0  0  0  0
 11 13  1  0  0  0  0
 11 14  1  0  0  0  0
 14 15  1  0  0  0  0
 14 16  1  0  0  0  0
 14 17  1  0  0  0  0
 17 18  1  0  0  0  0
 17 19  1  0  0  0  0
 17 20  1  0  0  0  0
 20 21  1  0  0  0  0
 20 22  1  0  0  0  0
 20 23  1  0  0  0  0
 23 24  1  0  0  0  0
 23 25  1  0  0  0  0
 23 26  1  0  0  0  0
 27 28  2  0  0  0  0
 27 29  1  0  0  0  0
 29 30  1  0  0  0  0
 29 31  1  0  0  0  0
 31 32  1  0  0  0  0
 31 33  1  0  0  0  0
 31 34  1  0  0  0  0
M  CHG  1  23   1
M  END
$$$$

  -OEChem-02102214153D

 34 33  0     1  0  0  0  0  0999 V2000
   -3.9733   -3.8792    1.9687 H   0  0  0  0  0  0  0  0  0  0  0  0
   -3.9001   -2.8979    1.4920 C   0  0  0  0  0  0  0  0  0  0  0  0
   -4.5339   -2.1947    2.0387 H   0  0  0  0  0  0  0  0  0  0  0  0
   -4.2629   -2.9772    0.4642 H   0  0  0  0  0  0  0  0  0  0  0  0
   -2.4629   -2.4135    1.5011 C   0  0  0  0  0  0  0  0  0  0  0  0
   -1.5884   -3.0972    2.0187 O   0  0  0  0  0  0  0  0  0  0  0  0
   -2.1532   -1.1945    0.9337 N   0  0  0  0  0  0  0  0  0  0  0  0
   -2.9390   -0.6223    0.6179 H   0  0  0  0  0  0  0  0  0  0  0  0
   -0.8521   -0.5101    1.0168 C   0  0  1  0  0  0  0  0  0  0  0  0
   -0.2486   -0.9048    1.8357 H   0  0  0  0  0  0  0  0  0  0  0  0
   -0.1035   -0.5769   -0.3468 C   0  0  0  0  0  0  0  0  0  0  0  0
   -0.8390   -0.8306   -1.1183 H   0  0  0  0  0  0  0  0  0  0  0  0
    0.2749    0.4188   -0.6061 H   0  0  0  0  0  0  0  0  0  0  0  0
    1.0851   -1.5607   -0.4795 C   0  0  0  0  0  0  0  0  0  0  0  0
    1.1848   -1.8413   -1.5340 H   0  0  0  0  0  0  0  0  0  0  0  0
    2.0005   -1.0297   -0.1962 H   0  0  0  0  0  0  0  0  0  0  0  0
    0.9799   -2.8219    0.3843 C   0  0  0  0  0  0  0  0  0  0  0  0
    0.9924   -2.5616    1.4460 H   0  0  0  0  0  0  0  0  0  0  0  0
    0.0297   -3.3094    0.1479 H   0  0  0  0  0  0  0  0  0  0  0  0
    2.1069   -3.8084    0.1144 C   0  0  0  0  0  0  0  0  0  0  0  0
    2.1185   -4.0713   -0.9534 H   0  0  0  0  0  0  0  0  0  0  0  0
    3.0750   -3.3427    0.3498 H   0  0  0  0  0  0  0  0  0  0  0  0
    1.8502   -4.9942    0.9607 N   0  3  0  0  0  0  0  0  0  0  0  0
    0.9151   -5.3602    0.7662 H   0  0  0  0  0  0  0  0  0  0  0  0
    2.5414   -5.7231    0.7756 H   0  0  0  0  0  0  0  0  0  0  0  0
    1.8931   -4.7327    1.9478 H   0  0  0  0  0  0  0  0  0  0  0  0
   -1.1235    0.9760    1.3441 C   0  0  0  0  0  0  0  0  0  0  0  0
   -2.0386    1.5550    0.7726 O   0  0  0  0  0  0  0  0  0  0  0  0
   -0.3888    1.6467    2.3048 N   0  0  0  0  0  0  0  0  0  0  0  0
    0.3154    1.1280    2.8206 H   0  0  0  0  0  0  0  0  0  0  0  0
   -0.6609    3.0293    2.6864 C   0  0  0  0  0  0  0  0  0  0  0  0
   -1.6613    3.1167    3.1238 H   0  0  0  0  0  0  0  0  0  0  0  0
    0.0704    3.3721    3.4249 H   0  0  0  0  0  0  0  0  0  0  0  0
   -0.6012    3.6876    1.8128 H   0  0  0  0  0  0  0  0  0  0  0  0
  1  2  1  0  0  0  0
  2  3  1  0  0  0  0
  2  4  1  0  0  0  0
  2  5  1  0  0  0  0
  5  6  2  0  0  0  0
  5  7  1  0  0  0  0
  7  8  1  0  0  0  0
  7  9  1  0  0  0  0
  9 10  1  0  0  0  0
  9 11  1  0  0  0  0
  9 27  1  0  0  0  0
 11 12  1  0  0  0  0
 11 13  1  0  0  0  0
 11 14  1  0  0  0  0
 14 15  1  0  0  0  0
 14 16  1  0  0  0  0
 14 17  1  0  0  0  0
 17 18  1  0  0  0  0
 17 19  1  0  0  0  0
 17 20  1  0  0  0  0
 20 21  1  0  0  0  0
 20 22  1  0  0  0  0
 20 23  1  0  0  0  0
 23 24  1  0  0  0  0
 23 25  1  0  0  0  0
 23 26  1  0  0  0  0
 27 28  2  0  0  0  0
 27 29  1  0  0  0  0
 29 30  1  0  0  0  0
 29 31  1  0  0  0  0
 31 32  1  0  0  0  0
 31 33  1  0  0  0  0
 31 34  1  0  0  0  0
M  CHG  1  23   1
M  END
$$$$

  -OEChem-02102214153D

 34 33  0     1  0  0  0  0  0999 V2000
   -3.9725   -3.8920    1.9552 H   0  0  0  0  0  0  0  0  0  0  0  0
   -3.8878   -2.9060    1.4899 C   0  0  0  0  0  0  0  0  0  0  0  0
   -4.4942   -2.1969    2.0596 H   0  0  0  0  0  0  0  0  0  0  0  0
   -4.2744   -2.9633    0.4693 H   0  0  0  0  0  0  0  0  0  0  0  0
   -2.4406   -2.4520    1.4746 C   0  0  0  0  0  0  0  0  0  0  0  0
   -1.5716   -3.1725    1.9470 O   0  0  0  0  0  0  0  0  0  0  0  0
   -2.1243   -1.2259    0.9260 N   0  0  0  0  0  0  0  0  0  0  0  0
   -2.9153   -0.6461    0.6380 H   0  0  0  0  0  0  0  0  0  0  0  0
   -0.8271   -0.5277    0.9956 C   0  0  1  0  0  0  0  0  0  0  0  0
   -0.2034   -0.9396    1.7936 H   0  0  0  0  0  0  0  0  0  0  0  0
   -0.0958   -0.5904   -0.3760 C   0  0  0  0  0  0  0  0  0  0  0  0
   -0.8297   -0.8499   -1.1467 H   0  0  0  0  0  0  0  0  0  0  0  0
    0.2814    0.4056   -0.6352 H   0  0  0  0  0  0  0  0  0  0  0  0
    1.0946   -1.5684   -0.4843 C   0  0  0  0  0  0  0  0  0  0  0  0
    1.3542   -1.6755   -1.5434 H   0  0  0  0  0  0  0  0  0  0  0  0
    1.9616   -1.1317    0.0240 H   0  0  0  0  0  0  0  0  0  0  0  0
    0.8091   -2.9441    0.1189 C   0  0  0  0  0  0  0  0  0  0  0  0
    0.7597   -2.8493    1.2067 H   0  0  0  0  0  0  0  0  0  0  0  0
   -0.1587   -3.2973   -0.2531 H   0  0  0  0  0  0  0  0  0  0  0  0
    1.8776   -3.9725   -0.2187 C   0  0  0  0  0  0  0  0  0  0  0  0
    1.9604   -4.0812   -1.3099 H   0  0  0  0  0  0  0  0  0  0  0  0
    2.8527   -3.6269    0.1540 H   0  0  0  0  0  0  0  0  0  0  0  0
    1.4655   -5.2379    0.4268 N   0  3  0  0  0  0  0  0  0  0  0  0
    0.6161   -5.5930   -0.0167 H   0  0  0  0  0  0  0  0  0  0  0  0
    2.2042   -5.9388    0.3472 H   0  0  0  0  0  0  0  0  0  0  0  0
    1.2644   -5.0705    1.4162 H   0  0  0  0  0  0  0  0  0  0  0  0
   -1.1004    0.9531    1.3427 C   0  0  0  0  0  0  0  0  0  0  0  0
   -2.0307    1.5297    0.7938 O   0  0  0  0  0  0  0  0  0  0  0  0
   -0.3539    1.6194    2.2973 N   0  0  0  0  0  0  0  0  0  0  0  0
    0.3568    1.0976    2.8013 H   0  0  0  0  0  0  0  0  0  0  0  0
   -0.6398    2.9906    2.7090 C   0  0  0  0  0  0  0  0  0  0  0  0
   -1.6363    3.0560    3.1590 H   0  0  0  0  0  0  0  0  0  0  0  0
    0.0951    3.3288    3.4462 H   0  0  0  0  0  0  0  0  0  0  0  0
   -0.5988    3.6667    1.8480 H   0  0  0  0  0  0  0  0  0  0  0  0
  1  2  1  0  0  0  0
  2  3  1  0  0  0  0
  2  4  1  0  0  0  0
  2  5  1  0  0  0  0
  5  6  2  0  0  0  0
  5  7  1  0  0  0  0
  7  8  1  0  0  0  0
  7  9  1  0  0  0  0
  9 10  1  0  0  0  0
  9 11  1  0  0  0  0
  9 27  1  0  0  0  0
 11 12  1  0  0  0  0
 11 13  1  0  0  0  0
 11 14  1  0  0  0  0
 14 15  1  0  0  0  0
 14 16  1  0  0  0  0
 14 17  1  0  0  0  0
 17 18  1  0  0  0  0
 17 19  1  0  0  0  0
 17 20  1  0  0  0  0
 20 21  1  0  0  0  0
 20 22  1  0  0  0  0
 20 23  1  0  0  0  0
 23 24  1  0  0  0  0
 23 25  1  0  0  0  0
 23 26  1  0  0  0  0
 27 28  2  0  0  0  0
 27 29  1  0  0  0  0
 29 30  1  0  0  0  0
 29 31  1  0  0  0  0
 31 32  1  0  0  0  0
 31 33  1  0  0  0  0
 31 34  1  0  0  0  0
M  CHG  1  23   1
M  END
$$$$

  -OEChem-02102214153D

 34 33  0     1  0  0  0  0  0999 V2000
   -4.0077   -3.8893    1.9091 H   0  0  0  0  0  0  0  0  0  0  0  0
   -3.9112   -2.9009    1.4512 C   0  0  0  0  0  0  0  0  0  0  0  0
   -4.5096   -2.1893    2.0262 H   0  0  0  0  0  0  0  0  0  0  0  0
   -4.2975   -2.9457    0.4300 H   0  0  0  0  0  0  0  0  0  0  0  0
   -2.4589   -2.4634    1.4407 C   0  0  0  0  0  0  0  0  0  0  0  0
   -1.6003   -3.2014    1.8999 O   0  0  0  0  0  0  0  0  0  0  0  0
   -2.1295   -1.2351    0.9068 N   0  0  0  0  0  0  0  0  0  0  0  0
   -2.9181   -0.6460    0.6317 H   0  0  0  0  0  0  0  0  0  0  0  0
   -0.8310   -0.5381    0.9804 C   0  0  1  0  0  0  0  0  0  0  0  0
   -0.2081   -0.9691    1.7702 H   0  0  0  0  0  0  0  0  0  0  0  0
   -0.0991   -0.6101   -0.3873 C   0  0  0  0  0  0  0  0  0  0  0  0
   -0.8237   -0.8576   -1.1710 H   0  0  0  0  0  0  0  0  0  0  0  0
    0.2950    0.3824   -0.6347 H   0  0  0  0  0  0  0  0  0  0  0  0
    1.0845   -1.5948   -0.4579 C   0  0  0  0  0  0  0  0  0  0  0  0
    1.5102   -1.5325   -1.4659 H   0  0  0  0  0  0  0  0  0  0  0  0
    1.8630   -1.2840    0.2475 H   0  0  0  0  0  0  0  0  0  0  0  0
    0.6807   -3.0402   -0.1702 C   0  0  0  0  0  0  0  0  0  0  0  0
    0.5681   -3.1421    0.9103 H   0  0  0  0  0  0  0  0  0  0  0  0
   -0.2786   -3.2601   -0.6520 H   0  0  0  0  0  0  0  0  0  0  0  0
    1.7282   -4.0454   -0.6268 C   0  0  0  0  0  0  0  0  0  0  0  0
    1.8493   -3.9904   -1.7184 H   0  0  0  0  0  0  0  0  0  0  0  0
    2.6984   -3.7937   -0.1744 H   0  0  0  0  0  0  0  0  0  0  0  0
    1.2620   -5.3804   -0.1938 N   0  3  0  0  0  0  0  0  0  0  0  0
    0.4235   -5.6420   -0.7154 H   0  0  0  0  0  0  0  0  0  0  0  0
    1.9878   -6.0817   -0.3517 H   0  0  0  0  0  0  0  0  0  0  0  0
    1.0287   -5.3562    0.8026 H   0  0  0  0  0  0  0  0  0  0  0  0
   -1.0920    0.9414    1.3393 C   0  0  0  0  0  0  0  0  0  0  0  0
   -2.0232    1.5269    0.8016 O   0  0  0  0  0  0  0  0  0  0  0  0
   -0.3367    1.5929    2.2969 N   0  0  0  0  0  0  0  0  0  0  0  0
    0.3751    1.0610    2.7889 H   0  0  0  0  0  0  0  0  0  0  0  0
   -0.6096    2.9616    2.7262 C   0  0  0  0  0  0  0  0  0  0  0  0
   -1.6049    3.0314    3.1781 H   0  0  0  0  0  0  0  0  0  0  0  0
    0.1296    3.2821    3.4669 H   0  0  0  0  0  0  0  0  0  0  0  0
   -0.5627    3.6491    1.8748 H   0  0  0  0  0  0  0  0  0  0  0  0
  1  2  1  0  0  0  0
  2  3  1  0  0  0  0
  2  4  1  0  0  0  0
  2  5  1  0  0  0  0
  5  6  2  0  0  0  0
  5  7  1  0  0  0  0
  7  8  1  0  0  0  0
  7  9  1  0  0  0  0
  9 10  1  0  0  0  0
  9 11  1  0  0  0  0
  9 27  1  0  0  0  0
 11 12  1  0  0  0  0
 11 13  1  0  0  0  0
 11 14  1  0  0  0  0
 14 15  1  0  0  0  0
 14 16  1  0  0  0  0
 14 17  1  0  0  0  0
 17 18  1  0  0  0  0
 17 19  1  0  0  0  0
 17 20  1  0  0  0  0
 20 21  1  0  0  0  0
 20 22  1  0  0  0  0
 20 23  1  0  0  0  0
 23 24  1  0  0  0  0
 23 25  1  0  0  0  0
 23 26  1  0  0  0  0
 27 28  2  0  0  0  0
 27 29  1  0  0  0  0
 29 30  1  0  0  0  0
 29 31  1  0  0  0  0
 31 32  1  0  0  0  0
 31 33  1  0  0  0  0
 31 34  1  0  0  0  0
M  CHG  1  23   1
M  END
$$$$

  -OEChem-02102214153D

 34 33  0     1  0  0  0  0  0999 V2000
   -3.5837   -4.2629    1.7450 H   0  0  0  0  0  0  0  0  0  0  0  0
   -3.6084   -3.2256    1.3995 C   0  0  0  0  0  0  0  0  0  0  0  0
   -4.1352   -2.6225    2.1440 H   0  0  0  0  0  0  0  0  0  0  0  0
   -4.1577   -3.1802    0.4557 H   0  0  0  0  0  0  0  0  0  0  0  0
   -2.2005   -2.6957    1.2070 C   0  0  0  0  0  0  0  0  0  0  0  0
   -1.2384   -3.4386    1.3741 O   0  0  0  0  0  0  0  0  0  0  0  0
   -2.0169   -1.3905    0.8061 N   0  0  0  0  0  0  0  0  0  0  0  0
   -2.8600   -0.8132    0.7542 H   0  0  0  0  0  0  0  0  0  0  0  0
   -0.7481   -0.6412    0.7749 C   0  0  1  0  0  0  0  0  0  0  0  0
    0.0053   -1.1382    1.3937 H   0  0  0  0  0  0  0  0  0  0  0  0
   -0.2295   -0.4730   -0.6789 C   0  0  0  0  0  0  0  0  0  0  0  0
   -1.0491   -0.6281   -1.3892 H   0  0  0  0  0  0  0  0  0  0  0  0
    0.1067    0.5612   -0.8175 H   0  0  0  0  0  0  0  0  0  0  0  0
    0.9608   -1.3822   -1.0396 C   0  0  0  0  0  0  0  0  0  0  0  0
    1.4131   -1.0058   -1.9642 H   0  0  0  0  0  0  0  0  0  0  0  0
    1.7243   -1.2959   -0.2591 H   0  0  0  0  0  0  0  0  0  0  0  0
    0.5599   -2.8498   -1.2655 C   0  0  0  0  0  0  0  0  0  0  0  0
   -0.4996   -2.9782   -1.0320 H   0  0  0  0  0  0  0  0  0  0  0  0
    0.6787   -3.1040   -2.3245 H   0  0  0  0  0  0  0  0  0  0  0  0
    1.4230   -3.7892   -0.4172 C   0  0  0  0  0  0  0  0  0  0  0  0
    2.3207   -4.0767   -0.9830 H   0  0  0  0  0  0  0  0  0  0  0  0
    1.7605   -3.2562    0.4827 H   0  0  0  0  0  0  0  0  0  0  0  0
    0.6171   -4.9604   -0.0245 N   0  3  0  0  0  0  0  0  0  0  0  0
    0.2317   -5.4220   -0.8474 H   0  0  0  0  0  0  0  0  0  0  0  0
    1.1801   -5.6233    0.5080 H   0  0  0  0  0  0  0  0  0  0  0  0
   -0.1615   -4.6339    0.5715 H   0  0  0  0  0  0  0  0  0  0  0  0
   -1.0036    0.7589    1.3787 C   0  0  0  0  0  0  0  0  0  0  0  0
   -2.0406    1.3440    1.0947 O   0  0  0  0  0  0  0  0  0  0  0  0
   -0.1314    1.3220    2.2922 N   0  0  0  0  0  0  0  0  0  0  0  0
    0.7016    0.8017    2.5496 H   0  0  0  0  0  0  0  0  0  0  0  0
   -0.3689    2.6187    2.9204 C   0  0  0  0  0  0  0  0  0  0  0  0
   -1.3022    2.6038    3.4939 H   0  0  0  0  0  0  0  0  0  0  0  0
    0.4505    2.8667    3.6024 H   0  0  0  0  0  0  0  0  0  0  0  0
   -0.4356    3.4068    2.1625 H   0  0  0  0  0  0  0  0  0  0  0  0
  1  2  1  0  0  0  0
  2  3  1  0  0  0  0
  2  4  1  0  0  0  0
  2  5  1  0  0  0  0
  5  6  2  0  0  0  0
  5  7  1  0  0  0  0
  7  8  1  0  0  0  0
  7  9  1  0  0  0  0
  9 10  1  0  0  0  0
  9 11  1  0  0  0  0
  9 27  1  0  0  0  0
 11 12  1  0  0  0  0
 11 13  1  0  0  0  0
 11 14  1  0  0  0  0
 14 15  1  0  0  0  0
 14 16  1  0  0  0  0
 14 17  1  0  0  0  0
 17 18  1  0  0  0  0
 17 19  1  0  0  0  0
 17 20  1  0  0  0  0
 20 21  1  0  0  0  0
 20 22  1  0  0  0  0
 20 23  1  0  0  0  0
 23 24  1  0  0  0  0
 23 25  1  0  0  0  0
 23 26  1  0  0  0  0
 27 28  2  0  0  0  0
 27 29  1  0  0  0  0
 29 30  1  0  0  0  0
 29 31  1  0  0  0  0
 31 32  1  0  0  0  0
 31 33  1  0  0  0  0
 31 34  1  0  0  0  0
M  CHG  1  23   1
M  END
$$$$

  -OEChem-02102214153D

 34 33  0     1  0  0  0  0  0999 V2000
   -3.7557   -4.2424    1.2714 H   0  0  0  0  0  0  0  0  0  0  0  0
   -3.7506   -3.1827    1.0018 C   0  0  0  0  0  0  0  0  0  0  0  0
   -4.2981   -2.6248    1.7661 H   0  0  0  0  0  0  0  0  0  0  0  0
   -4.2594   -3.0606    0.0421 H   0  0  0  0  0  0  0  0  0  0  0  0
   -2.3276   -2.6682    0.9048 C   0  0  0  0  0  0  0  0  0  0  0  0
   -1.3762   -3.4305    1.0589 O   0  0  0  0  0  0  0  0  0  0  0  0
   -2.0906   -1.3455    0.5992 N   0  0  0  0  0  0  0  0  0  0  0  0
   -2.9055   -0.7285    0.5537 H   0  0  0  0  0  0  0  0  0  0  0  0
   -0.7856   -0.6762    0.7127 C   0  0  1  0  0  0  0  0  0  0  0  0
   -0.1124   -1.2477    1.3575 H   0  0  0  0  0  0  0  0  0  0  0  0
   -0.1664   -0.4713   -0.6925 C   0  0  0  0  0  0  0  0  0  0  0  0
   -0.9385   -0.5205   -1.4688 H   0  0  0  0  0  0  0  0  0  0  0  0
    0.2568    0.5387   -0.7433 H   0  0  0  0  0  0  0  0  0  0  0  0
    0.9797   -1.4570   -0.9898 C   0  0  0  0  0  0  0  0  0  0  0  0
    1.6889   -0.9851   -1.6794 H   0  0  0  0  0  0  0  0  0  0  0  0
    1.5305   -1.6765   -0.0706 H   0  0  0  0  0  0  0  0  0  0  0  0
    0.4442   -2.7429   -1.6497 C   0  0  0  0  0  0  0  0  0  0  0  0
   -0.5929   -2.9264   -1.3565 H   0  0  0  0  0  0  0  0  0  0  0  0
    0.4366   -2.5936   -2.7353 H   0  0  0  0  0  0  0  0  0  0  0  0
    1.2829   -3.9804   -1.3267 C   0  0  0  0  0  0  0  0  0  0  0  0
    0.9771   -4.7927   -2.0020 H   0  0  0  0  0  0  0  0  0  0  0  0
    2.3435   -3.7741   -1.5296 H   0  0  0  0  0  0  0  0  0  0  0  0
    1.0623   -4.3734    0.0829 N   0  3  0  0  0  0  0  0  0  0  0  0
    1.1950   -5.3780    0.2007 H   0  0  0  0  0  0  0  0  0  0  0  0
    1.7045   -3.8766    0.6971 H   0  0  0  0  0  0  0  0  0  0  0  0
    0.0973   -4.1346    0.3658 H   0  0  0  0  0  0  0  0  0  0  0  0
   -1.0014    0.6957    1.3930 C   0  0  0  0  0  0  0  0  0  0  0  0
   -1.9793    1.3620    1.0813 O   0  0  0  0  0  0  0  0  0  0  0  0
   -0.1686    1.1415    2.4033 N   0  0  0  0  0  0  0  0  0  0  0  0
    0.6090    0.5532    2.6855 H   0  0  0  0  0  0  0  0  0  0  0  0
   -0.3844    2.4019    3.1088 C   0  0  0  0  0  0  0  0  0  0  0  0
   -1.3477    2.3907    3.6300 H   0  0  0  0  0  0  0  0  0  0  0  0
    0.4056    2.5649    3.8485 H   0  0  0  0  0  0  0  0  0  0  0  0
   -0.3759    3.2424    2.4062 H   0  0  0  0  0  0  0  0  0  0  0  0
  1  2  1  0  0  0  0
  2  3  1  0  0  0  0
  2  4  1  0  0  0  0
  2  5  1  0  0  0  0
  5  6  2  0  0  0  0
  5  7  1  0  0  0  0
  7  8  1  0  0  0  0
  7  9  1  0  0  0  0
  9 10  1  0  0  0  0
  9 11  1  0  0  0  0
  9 27  1  0  0  0  0
 11 12  1  0  0  0  0
 11 13  1  0  0  0  0
 11 14  1  0  0  0  0
 14 15  1  0  0  0  0
 14 16  1  0  0  0  0
 14 17  1  0  0  0  0
 17 18  1  0  0  0  0
 17 19  1  0  0  0  0
 17 20  1  0  0  0  0
 20 21  1  0  0  0  0
 20 22  1  0  0  0  0
 20 23  1  0  0  0  0
 23 24  1  0  0  0  0
 23 25  1  0  0  0  0
 23 26  1  0  0  0  0
 27 28  2  0  0  0  0
 27 29  1  0  0  0  0
 29 30  1  0  0  0  0
 29 31  1  0  0  0  0
 31 32  1  0  0  0  0
 31 33  1  0  0  0  0
 31 34  1  0  0  0  0
M  CHG  1  23   1
M  END
$$$$

  -OEChem-02102214153D

 34 33  0     1  0  0  0  0  0999 V2000
   -3.6205   -4.2707    1.1536 H   0  0  0  0  0  0  0  0  0  0  0  0
   -3.6569   -3.2049    0.9114 C   0  0  0  0  0  0  0  0  0  0  0  0
   -4.1898   -2.6830    1.7107 H   0  0  0  0  0  0  0  0  0  0  0  0
   -4.2064   -3.0741   -0.0244 H   0  0  0  0  0  0  0  0  0  0  0  0
   -2.2544   -2.6455    0.7723 C   0  0  0  0  0  0  0  0  0  0  0  0
   -1.2773   -3.3908    0.8129 O   0  0  0  0  0  0  0  0  0  0  0  0
   -2.0654   -1.3088    0.4975 N   0  0  0  0  0  0  0  0  0  0  0  0
   -2.8982   -0.7147    0.5087 H   0  0  0  0  0  0  0  0  0  0  0  0
   -0.7829   -0.6090    0.6629 C   0  0  1  0  0  0  0  0  0  0  0  0
   -0.1258   -1.1745    1.3293 H   0  0  0  0  0  0  0  0  0  0  0  0
   -0.1439   -0.4250   -0.7320 C   0  0  0  0  0  0  0  0  0  0  0  0
   -0.8974   -0.4954   -1.5249 H   0  0  0  0  0  0  0  0  0  0  0  0
    0.2658    0.5897   -0.7925 H   0  0  0  0  0  0  0  0  0  0  0  0
    1.0242   -1.4058   -0.9622 C   0  0  0  0  0  0  0  0  0  0  0  0
    1.8596   -0.8689   -1.4261 H   0  0  0  0  0  0  0  0  0  0  0  0
    1.3951   -1.8026   -0.0132 H   0  0  0  0  0  0  0  0  0  0  0  0
    0.5830   -2.5362   -1.9113 C   0  0  0  0  0  0  0  0  0  0  0  0
   -0.4795   -2.7606   -1.7679 H   0  0  0  0  0  0  0  0  0  0  0  0
    0.7004   -2.1932   -2.9454 H   0  0  0  0  0  0  0  0  0  0  0  0
    1.3814   -3.8244   -1.7098 C   0  0  0  0  0  0  0  0  0  0  0  0
    1.1388   -4.5156   -2.5300 H   0  0  0  0  0  0  0  0  0  0  0  0
    2.4574   -3.6087   -1.7774 H   0  0  0  0  0  0  0  0  0  0  0  0
    1.0259   -4.4265   -0.4038 N   0  3  0  0  0  0  0  0  0  0  0  0
    0.9570   -5.4412   -0.4832 H   0  0  0  0  0  0  0  0  0  0  0  0
    1.7248   -4.1937    0.2998 H   0  0  0  0  0  0  0  0  0  0  0  0
    0.1137   -4.0617   -0.0821 H   0  0  0  0  0  0  0  0  0  0  0  0
   -1.0289    0.7466    1.3625 C   0  0  0  0  0  0  0  0  0  0  0  0
   -2.0156    1.3989    1.0500 O   0  0  0  0  0  0  0  0  0  0  0  0
   -0.2242    1.1840    2.3988 N   0  0  0  0  0  0  0  0  0  0  0  0
    0.5693    0.6119    2.6703 H   0  0  0  0  0  0  0  0  0  0  0  0
   -0.4654    2.4329    3.1163 C   0  0  0  0  0  0  0  0  0  0  0  0
   -1.4444    2.4118    3.6074 H   0  0  0  0  0  0  0  0  0  0  0  0
    0.3008    2.5859    3.8827 H   0  0  0  0  0  0  0  0  0  0  0  0
   -0.4374    3.2839    2.4270 H   0  0  0  0  0  0  0  0  0  0  0  0
  1  2  1  0  0  0  0
  2  3  1  0  0  0  0
  2  4  1  0  0  0  0
  2  5  1  0  0  0  0
  5  6  2  0  0  0  0
  5  7  1  0  0  0  0
  7  8  1  0  0  0  0
  7  9  1  0  0  0  0
  9 10  1  0  0  0  0
  9 11  1  0  0  0  0
  9 27  1  0  0  0  0
 11 12  1  0  0  0  0
 11 13  1  0  0  0  0
 11 14  1  0  0  0  0
 14 15  1  0  0  0  0
 14 16  1  0  0  0  0
 14 17  1  0  0  0  0
 17 18  1  0  0  0  0
 17 19  1  0  0  0  0
 17 20  1  0  0  0  0
 20 21  1  0  0  0  0
 20 22  1  0  0  0  0
 20 23  1  0  0  0  0
 23 24  1  0  0  0  0
 23 25  1  0  0  0  0
 23 26  1  0  0  0  0
 27 28  2  0  0  0  0
 27 29  1  0  0  0  0
 29 30  1  0  0  0  0
 29 31  1  0  0  0  0
 31 32  1  0  0  0  0
 31 33  1  0  0  0  0
 31 34  1  0  0  0  0
M  CHG  1  23   1
M  END
$$$$

  -OEChem-02102214153D

 34 33  0     1  0  0  0  0  0999 V2000
   -3.5817   -4.0964    1.7638 H   0  0  0  0  0  0  0  0  0  0  0  0
   -3.6493   -3.0597    1.4221 C   0  0  0  0  0  0  0  0  0  0  0  0
   -4.1409   -2.4667    2.1976 H   0  0  0  0  0  0  0  0  0  0  0  0
   -4.2532   -3.0259    0.5120 H   0  0  0  0  0  0  0  0  0  0  0  0
   -2.2644   -2.5061    1.1476 C   0  0  0  0  0  0  0  0  0  0  0  0
   -1.2796   -3.2304    1.2205 O   0  0  0  0  0  0  0  0  0  0  0  0
   -2.1115   -1.2062    0.7153 N   0  0  0  0  0  0  0  0  0  0  0  0
   -2.9523   -0.6260    0.7075 H   0  0  0  0  0  0  0  0  0  0  0  0
   -0.8363   -0.4794    0.7960 C   0  0  1  0  0  0  0  0  0  0  0  0
   -0.1788   -0.9576    1.5283 H   0  0  0  0  0  0  0  0  0  0  0  0
   -0.1986   -0.4853   -0.6099 C   0  0  0  0  0  0  0  0  0  0  0  0
   -0.9589   -0.6910   -1.3717 H   0  0  0  0  0  0  0  0  0  0  0  0
    0.1901    0.5157   -0.8286 H   0  0  0  0  0  0  0  0  0  0  0  0
    0.9779   -1.4814   -0.6996 C   0  0  0  0  0  0  0  0  0  0  0  0
    1.8956   -0.9382   -0.9511 H   0  0  0  0  0  0  0  0  0  0  0  0
    1.1484   -1.9790    0.2609 H   0  0  0  0  0  0  0  0  0  0  0  0
    0.6980   -2.5434   -1.7686 C   0  0  0  0  0  0  0  0  0  0  0  0
   -0.3006   -2.9614   -1.5953 H   0  0  0  0  0  0  0  0  0  0  0  0
    0.7093   -2.0852   -2.7637 H   0  0  0  0  0  0  0  0  0  0  0  0
    1.7327   -3.6609   -1.6785 C   0  0  0  0  0  0  0  0  0  0  0  0
    2.7205   -3.2696   -1.9621 H   0  0  0  0  0  0  0  0  0  0  0  0
    1.8023   -3.9997   -0.6337 H   0  0  0  0  0  0  0  0  0  0  0  0
    1.3122   -4.7705   -2.5597 N   0  3  0  0  0  0  0  0  0  0  0  0
    1.2279   -4.4403   -3.5225 H   0  0  0  0  0  0  0  0  0  0  0  0
    1.9971   -5.5282   -2.5241 H   0  0  0  0  0  0  0  0  0  0  0  0
    0.4057   -5.1284   -2.2503 H   0  0  0  0  0  0  0  0  0  0  0  0
   -1.0787    0.9467    1.3342 C   0  0  0  0  0  0  0  0  0  0  0  0
   -2.0570    1.5687    0.9416 O   0  0  0  0  0  0  0  0  0  0  0  0
   -0.2662    1.4980    2.3081 N   0  0  0  0  0  0  0  0  0  0  0  0
    0.5004    0.9368    2.6677 H   0  0  0  0  0  0  0  0  0  0  0  0
   -0.5152    2.8087    2.9014 C   0  0  0  0  0  0  0  0  0  0  0  0
   -1.4869    2.8236    3.4069 H   0  0  0  0  0  0  0  0  0  0  0  0
    0.2597    3.0468    3.6366 H   0  0  0  0  0  0  0  0  0  0  0  0
   -0.5088    3.5873    2.1311 H   0  0  0  0  0  0  0  0  0  0  0  0
  1  2  1  0  0  0  0
  2  3  1  0  0  0  0
  2  4  1  0  0  0  0
  2  5  1  0  0  0  0
  5  6  2  0  0  0  0
  5  7  1  0  0  0  0
  7  8  1  0  0  0  0
  7  9  1  0  0  0  0
  9 10  1  0  0  0  0
  9 11  1  0  0  0  0
  9 27  1  0  0  0  0
 11 12  1  0  0  0  0
 11 13  1  0  0  0  0
 11 14  1  0  0  0  0
 14 15  1  0  0  0  0
 14 16  1  0  0  0  0
 14 17  1  0  0  0  0
 17 18  1  0  0  0  0
 17 19  1  0  0  0  0
 17 20  1  0  0  0  0
 20 21  1  0  0  0  0
 20 22  1  0  0  0  0
 20 23  1  0  0  0  0
 23 24  1  0  0  0  0
 23 25  1  0  0  0  0
 23 26  1  0  0  0  0
 27 28  2  0  0  0  0
 27 29  1  0  0  0  0
 29 30  1  0  0  0  0
 29 31  1  0  0  0  0
 31 32  1  0  0  0  0
 31 33  1  0  0  0  0
 31 34  1  0  0  0  0
M  CHG  1  23   1
M  END
$$$$

  -OEChem-02102214153D

 34 33  0     1  0  0  0  0  0999 V2000
   -3.6762   -4.0292    1.8723 H   0  0  0  0  0  0  0  0  0  0  0  0
   -3.7233   -3.0179    1.4588 C   0  0  0  0  0  0  0  0  0  0  0  0
   -4.2503   -2.3743    2.1679 H   0  0  0  0  0  0  0  0  0  0  0  0
   -4.2815   -3.0451    0.5199 H   0  0  0  0  0  0  0  0  0  0  0  0
   -2.3240   -2.4860    1.2161 C   0  0  0  0  0  0  0  0  0  0  0  0
   -1.3498   -3.2107    1.3646 O   0  0  0  0  0  0  0  0  0  0  0  0
   -2.1424   -1.1984    0.7586 N   0  0  0  0  0  0  0  0  0  0  0  0
   -2.9748   -0.6089    0.7071 H   0  0  0  0  0  0  0  0  0  0  0  0
   -0.8548   -0.4911    0.8213 C   0  0  1  0  0  0  0  0  0  0  0  0
   -0.1938   -0.9685    1.5521 H   0  0  0  0  0  0  0  0  0  0  0  0
   -0.2195   -0.5120   -0.5860 C   0  0  0  0  0  0  0  0  0  0  0  0
   -0.9919   -0.7380   -1.3294 H   0  0  0  0  0  0  0  0  0  0  0  0
    0.1683    0.4820   -0.8353 H   0  0  0  0  0  0  0  0  0  0  0  0
    0.9423   -1.5229   -0.6726 C   0  0  0  0  0  0  0  0  0  0  0  0
    1.8969   -0.9870   -0.6293 H   0  0  0  0  0  0  0  0  0  0  0  0
    0.9117   -2.2115    0.1792 H   0  0  0  0  0  0  0  0  0  0  0  0
    0.8521   -2.3554   -1.9560 C   0  0  0  0  0  0  0  0  0  0  0  0
   -0.1319   -2.8361   -2.0021 H   0  0  0  0  0  0  0  0  0  0  0  0
    0.9549   -1.7007   -2.8284 H   0  0  0  0  0  0  0  0  0  0  0  0
    1.9428   -3.4232   -1.9578 C   0  0  0  0  0  0  0  0  0  0  0  0
    2.9290   -2.9364   -1.9568 H   0  0  0  0  0  0  0  0  0  0  0  0
    1.8697   -4.0112   -1.0305 H   0  0  0  0  0  0  0  0  0  0  0  0
    1.7696   -4.2873   -3.1449 N   0  3  0  0  0  0  0  0  0  0  0  0
    1.8275   -3.7270   -3.9971 H   0  0  0  0  0  0  0  0  0  0  0  0
    2.4974   -5.0046   -3.1671 H   0  0  0  0  0  0  0  0  0  0  0  0
    0.8557   -4.7437   -3.1093 H   0  0  0  0  0  0  0  0  0  0  0  0
   -1.0757    0.9482    1.3317 C   0  0  0  0  0  0  0  0  0  0  0  0
   -2.0305    1.5879    0.9105 O   0  0  0  0  0  0  0  0  0  0  0  0
   -0.2515    1.5032    2.2934 N   0  0  0  0  0  0  0  0  0  0  0  0
    0.4790    0.9193    2.6903 H   0  0  0  0  0  0  0  0  0  0  0  0
   -0.4840    2.8232    2.8722 C   0  0  0  0  0  0  0  0  0  0  0  0
   -1.4593    2.8586    3.3696 H   0  0  0  0  0  0  0  0  0  0  0  0
    0.2887    3.0551    3.6118 H   0  0  0  0  0  0  0  0  0  0  0  0
   -0.4585    3.5948    2.0951 H   0  0  0  0  0  0  0  0  0  0  0  0
  1  2  1  0  0  0  0
  2  3  1  0  0  0  0
  2  4  1  0  0  0  0
  2  5  1  0  0  0  0
  5  6  2  0  0  0  0
  5  7  1  0  0  0  0
  7  8  1  0  0  0  0
  7  9  1  0  0  0  0
  9 10  1  0  0  0  0
  9 11  1  0  0  0  0
  9 27  1  0  0  0  0
 11 12  1  0  0  0  0
 11 13  1  0  0  0  0
 11 14  1  0  0  0  0
 14 15  1  0  0  0  0
 14 16  1  0  0  0  0
 14 17  1  0  0  0  0
 17 18  1  0  0  0  0
 17 19  1  0  0  0  0
 17 20  1  0  0  0  0
 20 21  1  0  0  0  0
 20 22  1  0  0  0  0
 20 23  1  0  0  0  0
 23 24  1  0  0  0  0
 23 25  1  0  0  0  0
 23 26  1  0  0  0  0
 27 28  2  0  0  0  0
 27 29  1  0  0  0  0
 29 30  1  0  0  0  0
 29 31  1  0  0  0  0
 31 32  1  0  0  0  0
 31 33  1  0  0  0  0
 31 34  1  0  0  0  0
M  CHG  1  23   1
M  END
$$$$

  -OEChem-02102214153D

 34 33  0     1  0  0  0  0  0999 V2000
   -3.6992   -4.0290    1.8806 H   0  0  0  0  0  0  0  0  0  0  0  0
   -3.7411   -3.0205    1.4596 C   0  0  0  0  0  0  0  0  0  0  0  0
   -4.2830   -2.3738    2.1543 H   0  0  0  0  0  0  0  0  0  0  0  0
   -4.2815   -3.0561    0.5107 H   0  0  0  0  0  0  0  0  0  0  0  0
   -2.3388   -2.4861    1.2400 C   0  0  0  0  0  0  0  0  0  0  0  0
   -1.3665   -3.2020    1.4311 O   0  0  0  0  0  0  0  0  0  0  0  0
   -2.1514   -1.2010    0.7766 N   0  0  0  0  0  0  0  0  0  0  0  0
   -2.9832   -0.6136    0.7013 H   0  0  0  0  0  0  0  0  0  0  0  0
   -0.8612   -0.4964    0.8265 C   0  0  1  0  0  0  0  0  0  0  0  0
   -0.1911   -0.9775    1.5468 H   0  0  0  0  0  0  0  0  0  0  0  0
   -0.2333   -0.5123   -0.5839 C   0  0  0  0  0  0  0  0  0  0  0  0
   -1.0095   -0.7517   -1.3191 H   0  0  0  0  0  0  0  0  0  0  0  0
    0.1504    0.4812   -0.8421 H   0  0  0  0  0  0  0  0  0  0  0  0
    0.9232   -1.5242   -0.6686 C   0  0  0  0  0  0  0  0  0  0  0  0
    1.8556   -1.0440   -0.3516 H   0  0  0  0  0  0  0  0  0  0  0  0
    0.7307   -2.3602    0.0133 H   0  0  0  0  0  0  0  0  0  0  0  0
    1.0563   -2.0904   -2.0861 C   0  0  0  0  0  0  0  0  0  0  0  0
    0.1028   -2.5397   -2.3857 H   0  0  0  0  0  0  0  0  0  0  0  0
    1.2865   -1.2791   -2.7853 H   0  0  0  0  0  0  0  0  0  0  0  0
    2.1558   -3.1488   -2.1197 C   0  0  0  0  0  0  0  0  0  0  0  0
    3.1150   -2.6855   -1.8460 H   0  0  0  0  0  0  0  0  0  0  0  0
    1.9387   -3.9169   -1.3620 H   0  0  0  0  0  0  0  0  0  0  0  0
    2.2129   -3.7411   -3.4735 N   0  3  0  0  0  0  0  0  0  0  0  0
    2.4068   -3.0145   -4.1652 H   0  0  0  0  0  0  0  0  0  0  0  0
    2.9502   -4.4480   -3.5175 H   0  0  0  0  0  0  0  0  0  0  0  0
    1.3181   -4.1814   -3.6972 H   0  0  0  0  0  0  0  0  0  0  0  0
   -1.0740    0.9456    1.3325 C   0  0  0  0  0  0  0  0  0  0  0  0
   -2.0207    1.5928    0.9045 O   0  0  0  0  0  0  0  0  0  0  0  0
   -0.2404    1.5015    2.2855 N   0  0  0  0  0  0  0  0  0  0  0  0
    0.4769    0.9092    2.6939 H   0  0  0  0  0  0  0  0  0  0  0  0
   -0.4635    2.8255    2.8584 C   0  0  0  0  0  0  0  0  0  0  0  0
   -1.4319    2.8654    3.3688 H   0  0  0  0  0  0  0  0  0  0  0  0
    0.3195    3.0618    3.5856 H   0  0  0  0  0  0  0  0  0  0  0  0
   -0.4479    3.5913    2.0755 H   0  0  0  0  0  0  0  0  0  0  0  0
  1  2  1  0  0  0  0
  2  3  1  0  0  0  0
  2  4  1  0  0  0  0
  2  5  1  0  0  0  0
  5  6  2  0  0  0  0
  5  7  1  0  0  0  0
  7  8  1  0  0  0  0
  7  9  1  0  0  0  0
  9 10  1  0  0  0  0
  9 11  1  0  0  0  0
  9 27  1  0  0  0  0
 11 12  1  0  0  0  0
 11 13  1  0  0  0  0
 11 14  1  0  0  0  0
 14 15  1  0  0  0  0
 14 16  1  0  0  0  0
 14 17  1  0  0  0  0
 17 18  1  0  0  0  0
 17 19  1  0  0  0  0
 17 20  1  0  0  0  0
 20 21  1  0  0  0  0
 20 22  1  0  0  0  0
 20 23  1  0  0  0  0
 23 24  1  0  0  0  0
 23 25  1  0  0  0  0
 23 26  1  0  0  0  0
 27 28  2  0  0  0  0
 27 29  1  0  0  0  0
 29 30  1  0  0  0  0
 29 31  1  0  0  0  0
 31 32  1  0  0  0  0
 31 33  1  0  0  0  0
 31 34  1  0  0  0  0
M  CHG  1  23   1
M  END
$$$$

  -OEChem-02102214153D

 34 33  0     1  0  0  0  0  0999 V2000
   -3.6915   -4.0453    1.8565 H   0  0  0  0  0  0  0  0  0  0  0  0
   -3.7345   -3.0336    1.4432 C   0  0  0  0  0  0  0  0  0  0  0  0
   -4.2941   -2.3967    2.1327 H   0  0  0  0  0  0  0  0  0  0  0  0
   -4.2569   -3.0661    0.4841 H   0  0  0  0  0  0  0  0  0  0  0  0
   -2.3332   -2.4857    1.2536 C   0  0  0  0  0  0  0  0  0  0  0  0
   -1.3581   -3.1876    1.4781 O   0  0  0  0  0  0  0  0  0  0  0  0
   -2.1491   -1.2005    0.7886 N   0  0  0  0  0  0  0  0  0  0  0  0
   -2.9833   -0.6194    0.6942 H   0  0  0  0  0  0  0  0  0  0  0  0
   -0.8604   -0.4937    0.8304 C   0  0  1  0  0  0  0  0  0  0  0  0
   -0.1822   -0.9771    1.5419 H   0  0  0  0  0  0  0  0  0  0  0  0
   -0.2442   -0.5055   -0.5847 C   0  0  0  0  0  0  0  0  0  0  0  0
   -1.0195   -0.7488   -1.3200 H   0  0  0  0  0  0  0  0  0  0  0  0
    0.1380    0.4893   -0.8397 H   0  0  0  0  0  0  0  0  0  0  0  0
    0.9097   -1.5155   -0.6701 C   0  0  0  0  0  0  0  0  0  0  0  0
    1.7773   -1.1290   -0.1241 H   0  0  0  0  0  0  0  0  0  0  0  0
    0.6033   -2.4533   -0.1925 H   0  0  0  0  0  0  0  0  0  0  0  0
    1.2789   -1.8042   -2.1288 C   0  0  0  0  0  0  0  0  0  0  0  0
    0.3911   -2.1616   -2.6626 H   0  0  0  0  0  0  0  0  0  0  0  0
    1.6178   -0.8802   -2.6103 H   0  0  0  0  0  0  0  0  0  0  0  0
    2.3766   -2.8638   -2.1849 C   0  0  0  0  0  0  0  0  0  0  0  0
    3.2686   -2.4898   -1.6615 H   0  0  0  0  0  0  0  0  0  0  0  0
    2.0381   -3.7613   -1.6458 H   0  0  0  0  0  0  0  0  0  0  0  0
    2.6760   -3.1758   -3.5992 N   0  3  0  0  0  0  0  0  0  0  0  0
    2.9869   -2.3327   -4.0854 H   0  0  0  0  0  0  0  0  0  0  0  0
    3.4126   -3.8824   -3.6548 H   0  0  0  0  0  0  0  0  0  0  0  0
    1.8378   -3.5345   -4.0609 H   0  0  0  0  0  0  0  0  0  0  0  0
   -1.0714    0.9479    1.3369 C   0  0  0  0  0  0  0  0  0  0  0  0
   -2.0121    1.6000    0.9033 O   0  0  0  0  0  0  0  0  0  0  0  0
   -0.2326    1.5048    2.2847 N   0  0  0  0  0  0  0  0  0  0  0  0
    0.4707    0.9054    2.7069 H   0  0  0  0  0  0  0  0  0  0  0  0
   -0.4550    2.8298    2.8554 C   0  0  0  0  0  0  0  0  0  0  0  0
   -1.4191    2.8677    3.3740 H   0  0  0  0  0  0  0  0  0  0  0  0
    0.3336    3.0723    3.5746 H   0  0  0  0  0  0  0  0  0  0  0  0
   -0.4498    3.5923    2.0692 H   0  0  0  0  0  0  0  0  0  0  0  0
  1  2  1  0  0  0  0
  2  3  1  0  0  0  0
  2  4  1  0  0  0  0
  2  5  1  0  0  0  0
  5  6  2  0  0  0  0
  5  7  1  0  0  0  0
  7  8  1  0  0  0  0
  7  9  1  0  0  0  0
  9 10  1  0  0  0  0
  9 11  1  0  0  0  0
  9 27  1  0  0  0  0
 11 12  1  0  0  0  0
 11 13  1  0  0  0  0
 11 14  1  0  0  0  0
 14 15  1  0  0  0  0
 14 16  1  0  0  0  0
 14 17  1  0  0  0  0
 17 18  1  0  0  0  0
 17 19  1  0  0  0  0
 17 20  1  0  0  0  0
 20 21  1  0  0  0  0
 20 22  1  0  0  0  0
 20 23  1  0  0  0  0
 23 24  1  0  0  0  0
 23 25  1  0  0  0  0
 23 26  1  0  0  0  0
 27 28  2  0  0  0  0
 27 29  1  0  0  0  0
 29 30  1  0  0  0  0
 29 31  1  0  0  0  0
 31 32  1  0  0  0  0
 31 33  1  0  0  0  0
 31 34  1  0  0  0  0
M  CHG  1  23   1
M  END
$$$$

  -OEChem-02102214153D

 34 33  0     1  0  0  0  0  0999 V2000
   -3.7172   -4.0380    1.8565 H   0  0  0  0  0  0  0  0  0  0  0  0
   -3.7459   -3.0279    1.4382 C   0  0  0  0  0  0  0  0  0  0  0  0
   -4.3155   -2.3851    2.1141 H   0  0  0  0  0  0  0  0  0  0  0  0
   -4.2493   -3.0615    0.4691 H   0  0  0  0  0  0  0  0  0  0  0  0
   -2.3378   -2.4890    1.2742 C   0  0  0  0  0  0  0  0  0  0  0  0
   -1.3725   -3.1916    1.5348 O   0  0  0  0  0  0  0  0  0  0  0  0
   -2.1373   -1.2099    0.7987 N   0  0  0  0  0  0  0  0  0  0  0  0
   -2.9667   -0.6264    0.6804 H   0  0  0  0  0  0  0  0  0  0  0  0
   -0.8457   -0.5084    0.8486 C   0  0  1  0  0  0  0  0  0  0  0  0
   -0.1676   -0.9888    1.5621 H   0  0  0  0  0  0  0  0  0  0  0  0
   -0.2251   -0.5120   -0.5618 C   0  0  0  0  0  0  0  0  0  0  0  0
   -1.0166   -0.4654   -1.3181 H   0  0  0  0  0  0  0  0  0  0  0  0
    0.3976    0.3809   -0.6856 H   0  0  0  0  0  0  0  0  0  0  0  0
    0.6539   -1.7525   -0.7735 C   0  0  0  0  0  0  0  0  0  0  0  0
    1.4471   -1.7747   -0.0179 H   0  0  0  0  0  0  0  0  0  0  0  0
    0.0427   -2.6523   -0.6435 H   0  0  0  0  0  0  0  0  0  0  0  0
    1.2707   -1.7568   -2.1755 C   0  0  0  0  0  0  0  0  0  0  0  0
    0.4703   -1.7063   -2.9221 H   0  0  0  0  0  0  0  0  0  0  0  0
    1.9088   -0.8748   -2.2990 H   0  0  0  0  0  0  0  0  0  0  0  0
    2.0878   -3.0316   -2.3728 C   0  0  0  0  0  0  0  0  0  0  0  0
    2.8910   -3.0668   -1.6222 H   0  0  0  0  0  0  0  0  0  0  0  0
    1.4418   -3.9043   -2.1944 H   0  0  0  0  0  0  0  0  0  0  0  0
    2.6373   -3.0476   -3.7458 N   0  3  0  0  0  0  0  0  0  0  0  0
    3.2344   -2.2316   -3.8929 H   0  0  0  0  0  0  0  0  0  0  0  0
    3.1903   -3.8948   -3.8926 H   0  0  0  0  0  0  0  0  0  0  0  0
    1.8750   -3.0276   -4.4261 H   0  0  0  0  0  0  0  0  0  0  0  0
   -1.0642    0.9381    1.3381 C   0  0  0  0  0  0  0  0  0  0  0  0
   -1.9967    1.5869    0.8819 O   0  0  0  0  0  0  0  0  0  0  0  0
   -0.2385    1.5048    2.2917 N   0  0  0  0  0  0  0  0  0  0  0  0
    0.4590    0.9098    2.7297 H   0  0  0  0  0  0  0  0  0  0  0  0
   -0.4668    2.8369    2.8434 C   0  0  0  0  0  0  0  0  0  0  0  0
   -1.4356    2.8809    3.3527 H   0  0  0  0  0  0  0  0  0  0  0  0
    0.3153    3.0884    3.5666 H   0  0  0  0  0  0  0  0  0  0  0  0
   -0.4543    3.5899    2.0479 H   0  0  0  0  0  0  0  0  0  0  0  0
  1  2  1  0  0  0  0
  2  3  1  0  0  0  0
  2  4  1  0  0  0  0
  2  5  1  0  0  0  0
  5  6  2  0  0  0  0
  5  7  1  0  0  0  0
  7  8  1  0  0  0  0
  7  9  1  0  0  0  0
  9 10  1  0  0  0  0
  9 11  1  0  0  0  0
  9 27  1  0  0  0  0
 11 12  1  0  0  0  0
 11 13  1  0  0  0  0
 11 14  1  0  0  0  0
 14 15  1  0  0  0  0
 14 16  1  0  0  0  0
 14 17  1  0  0  0  0
 17 18  1  0  0  0  0
 17 19  1  0  0  0  0
 17 20  1  0  0  0  0
 20 21  1  0  0  0  0
 20 22  1  0  0  0  0
 20 23  1  0  0  0  0
 23 24  1  0  0  0  0
 23 25  1  0  0  0  0
 23 26  1  0  0  0  0
 27 28  2  0  0  0  0
 27 29  1  0  0  0  0
 29 30  1  0  0  0  0
 29 31  1  0  0  0  0
 31 32  1  0  0  0  0
 31 33  1  0  0  0  0
 31 34  1  0  0  0  0
M  CHG  1  23   1
M  END
$$$$

  -OEChem-02102214153D

 34 33  0     1  0  0  0  0  0999 V2000
   -3.6775   -4.0476    1.8407 H   0  0  0  0  0  0  0  0  0  0  0  0
   -3.7186   -3.0357    1.4282 C   0  0  0  0  0  0  0  0  0  0  0  0
   -4.2896   -2.4018    2.1113 H   0  0  0  0  0  0  0  0  0  0  0  0
   -4.2285   -3.0688    0.4625 H   0  0  0  0  0  0  0  0  0  0  0  0
   -2.3168   -2.4827    1.2573 C   0  0  0  0  0  0  0  0  0  0  0  0
   -1.3419   -3.1775    1.5042 O   0  0  0  0  0  0  0  0  0  0  0  0
   -2.1301   -1.1993    0.7878 N   0  0  0  0  0  0  0  0  0  0  0  0
   -2.9644   -0.6220    0.6746 H   0  0  0  0  0  0  0  0  0  0  0  0
   -0.8436   -0.4899    0.8460 C   0  0  1  0  0  0  0  0  0  0  0  0
   -0.1669   -0.9667    1.5626 H   0  0  0  0  0  0  0  0  0  0  0  0
   -0.2265   -0.4964   -0.5662 C   0  0  0  0  0  0  0  0  0  0  0  0
   -1.0107   -0.4460   -1.3298 H   0  0  0  0  0  0  0  0  0  0  0  0
    0.3947    0.3991   -0.6791 H   0  0  0  0  0  0  0  0  0  0  0  0
    0.6577   -1.7352   -0.7773 C   0  0  0  0  0  0  0  0  0  0  0  0
    1.2909   -1.8933    0.1028 H   0  0  0  0  0  0  0  0  0  0  0  0
    0.0153   -2.6165   -0.8855 H   0  0  0  0  0  0  0  0  0  0  0  0
    1.5535   -1.5759   -2.0096 C   0  0  0  0  0  0  0  0  0  0  0  0
    0.9282   -1.3747   -2.8866 H   0  0  0  0  0  0  0  0  0  0  0  0
    2.2278   -0.7241   -1.8685 H   0  0  0  0  0  0  0  0  0  0  0  0
    2.3583   -2.8559   -2.2242 C   0  0  0  0  0  0  0  0  0  0  0  0
    2.9819   -3.0444   -1.3378 H   0  0  0  0  0  0  0  0  0  0  0  0
    1.6654   -3.7057   -2.3164 H   0  0  0  0  0  0  0  0  0  0  0  0
    3.1875   -2.7111   -3.4404 N   0  3  0  0  0  0  0  0  0  0  0  0
    3.8252   -1.9196   -3.3365 H   0  0  0  0  0  0  0  0  0  0  0  0
    3.7351   -3.5607   -3.5951 H   0  0  0  0  0  0  0  0  0  0  0  0
    2.5890   -2.5503   -4.2531 H   0  0  0  0  0  0  0  0  0  0  0  0
   -1.0693    0.9533    1.3422 C   0  0  0  0  0  0  0  0  0  0  0  0
   -2.0009    1.6023    0.8847 O   0  0  0  0  0  0  0  0  0  0  0  0
   -0.2481    1.5178    2.3009 N   0  0  0  0  0  0  0  0  0  0  0  0
    0.4425    0.9190    2.7447 H   0  0  0  0  0  0  0  0  0  0  0  0
   -0.4893    2.8424    2.8653 C   0  0  0  0  0  0  0  0  0  0  0  0
   -1.4610    2.8740    3.3699 H   0  0  0  0  0  0  0  0  0  0  0  0
    0.2869    3.0918    3.5953 H   0  0  0  0  0  0  0  0  0  0  0  0
   -0.4780    3.6038    2.0779 H   0  0  0  0  0  0  0  0  0  0  0  0
  1  2  1  0  0  0  0
  2  3  1  0  0  0  0
  2  4  1  0  0  0  0
  2  5  1  0  0  0  0
  5  6  2  0  0  0  0
  5  7  1  0  0  0  0
  7  8  1  0  0  0  0
  7  9  1  0  0  0  0
  9 10  1  0  0  0  0
  9 11  1  0  0  0  0
  9 27  1  0  0  0  0
 11 12  1  0  0  0  0
 11 13  1  0  0  0  0
 11 14  1  0  0  0  0
 14 15  1  0  0  0  0
 14 16  1  0  0  0  0
 14 17  1  0  0  0  0
 17 18  1  0  0  0  0
 17 19  1  0  0  0  0
 17 20  1  0  0  0  0
 20 21  1  0  0  0  0
 20 22  1  0  0  0  0
 20 23  1  0  0  0  0
 23 24  1  0  0  0  0
 23 25  1  0  0  0  0
 23 26  1  0  0  0  0
 27 28  2  0  0  0  0
 27 29  1  0  0  0  0
 29 30  1  0  0  0  0
 29 31  1  0  0  0  0
 31 32  1  0  0  0  0
 31 33  1  0  0  0  0
 31 34  1  0  0  0  0
M  CHG  1  23   1
M  END
$$$$

  -OEChem-02102214153D

 34 33  0     1  0  0  0  0  0999 V2000
   -3.6583   -4.0536    1.8427 H   0  0  0  0  0  0  0  0  0  0  0  0
   -3.7070   -3.0478    1.4162 C   0  0  0  0  0  0  0  0  0  0  0  0
   -4.2967   -2.4130    2.0822 H   0  0  0  0  0  0  0  0  0  0  0  0
   -4.2012   -3.1005    0.4432 H   0  0  0  0  0  0  0  0  0  0  0  0
   -2.3099   -2.4794    1.2590 C   0  0  0  0  0  0  0  0  0  0  0  0
   -1.3300   -3.1653    1.5114 O   0  0  0  0  0  0  0  0  0  0  0  0
   -2.1303   -1.1947    0.7900 N   0  0  0  0  0  0  0  0  0  0  0  0
   -2.9675   -0.6236    0.6675 H   0  0  0  0  0  0  0  0  0  0  0  0
   -0.8476   -0.4803    0.8541 C   0  0  1  0  0  0  0  0  0  0  0  0
   -0.1733   -0.9512    1.5766 H   0  0  0  0  0  0  0  0  0  0  0  0
   -0.2297   -0.4913   -0.5578 C   0  0  0  0  0  0  0  0  0  0  0  0
   -1.0093   -0.4377   -1.3257 H   0  0  0  0  0  0  0  0  0  0  0  0
    0.3866    0.4082   -0.6637 H   0  0  0  0  0  0  0  0  0  0  0  0
    0.6621   -1.7273   -0.7764 C   0  0  0  0  0  0  0  0  0  0  0  0
    1.1064   -2.0441    0.1739 H   0  0  0  0  0  0  0  0  0  0  0  0
    0.0386   -2.5545   -1.1346 H   0  0  0  0  0  0  0  0  0  0  0  0
    1.7979   -1.4375   -1.7628 C   0  0  0  0  0  0  0  0  0  0  0  0
    1.3731   -1.0834   -2.7088 H   0  0  0  0  0  0  0  0  0  0  0  0
    2.4435   -0.6487   -1.3615 H   0  0  0  0  0  0  0  0  0  0  0  0
    2.6061   -2.7118   -1.9959 C   0  0  0  0  0  0  0  0  0  0  0  0
    3.0237   -3.0548   -1.0378 H   0  0  0  0  0  0  0  0  0  0  0  0
    1.9332   -3.5044   -2.3560 H   0  0  0  0  0  0  0  0  0  0  0  0
    3.6761   -2.4358   -2.9788 N   0  3  0  0  0  0  0  0  0  0  0  0
    4.2851   -1.6918   -2.6333 H   0  0  0  0  0  0  0  0  0  0  0  0
    4.2355   -3.2775   -3.1342 H   0  0  0  0  0  0  0  0  0  0  0  0
    3.2652   -2.1424   -3.8672 H   0  0  0  0  0  0  0  0  0  0  0  0
   -1.0776    0.9626    1.3495 C   0  0  0  0  0  0  0  0  0  0  0  0
   -2.0034    1.6140    0.8841 O   0  0  0  0  0  0  0  0  0  0  0  0
   -0.2594    1.5264    2.3115 N   0  0  0  0  0  0  0  0  0  0  0  0
    0.4244    0.9248    2.7616 H   0  0  0  0  0  0  0  0  0  0  0  0
   -0.4937    2.8550    2.8695 C   0  0  0  0  0  0  0  0  0  0  0  0
   -1.4668    2.8951    3.3708 H   0  0  0  0  0  0  0  0  0  0  0  0
    0.2823    3.1022    3.6007 H   0  0  0  0  0  0  0  0  0  0  0  0
   -0.4750    3.6136    2.0795 H   0  0  0  0  0  0  0  0  0  0  0  0
  1  2  1  0  0  0  0
  2  3  1  0  0  0  0
  2  4  1  0  0  0  0
  2  5  1  0  0  0  0
  5  6  2  0  0  0  0
  5  7  1  0  0  0  0
  7  8  1  0  0  0  0
  7  9  1  0  0  0  0
  9 10  1  0  0  0  0
  9 11  1  0  0  0  0
  9 27  1  0  0  0  0
 11 12  1  0  0  0  0
 11 13  1  0  0  0  0
 11 14  1  0  0  0  0
 14 15  1  0  0  0  0
 14 16  1  0  0  0  0
 14 17  1  0  0  0  0
 17 18  1  0  0  0  0
 17 19  1  0  0  0  0
 17 20  1  0  0  0  0
 20 21  1  0  0  0  0
 20 22  1  0  0  0  0
 20 23  1  0  0  0  0
 23 24  1  0  0  0  0
 23 25  1  0  0  0  0
 23 26  1  0  0  0  0
 27 28  2  0  0  0  0
 27 29  1  0  0  0  0
 29 30  1  0  0  0  0
 29 31  1  0  0  0  0
 31 32  1  0  0  0  0
 31 33  1  0  0  0  0
 31 34  1  0  0  0  0
M  CHG  1  23   1
M  END
$$$$

  -OEChem-02102214153D

 34 33  0     1  0  0  0  0  0999 V2000
   -3.6571   -4.0581    1.8411 H   0  0  0  0  0  0  0  0  0  0  0  0
   -3.7023   -3.0534    1.4112 C   0  0  0  0  0  0  0  0  0  0  0  0
   -4.3074   -2.4197    2.0643 H   0  0  0  0  0  0  0  0  0  0  0  0
   -4.1782   -3.1110    0.4293 H   0  0  0  0  0  0  0  0  0  0  0  0
   -2.3057   -2.4774    1.2776 C   0  0  0  0  0  0  0  0  0  0  0  0
   -1.3268   -3.1538    1.5585 O   0  0  0  0  0  0  0  0  0  0  0  0
   -2.1261   -1.1944    0.8042 N   0  0  0  0  0  0  0  0  0  0  0  0
   -2.9639   -0.6298    0.6579 H   0  0  0  0  0  0  0  0  0  0  0  0
   -0.8452   -0.4768    0.8655 C   0  0  1  0  0  0  0  0  0  0  0  0
   -0.1673   -0.9419    1.5879 H   0  0  0  0  0  0  0  0  0  0  0  0
   -0.2297   -0.4857   -0.5485 C   0  0  0  0  0  0  0  0  0  0  0  0
   -1.0154   -0.4389   -1.3112 H   0  0  0  0  0  0  0  0  0  0  0  0
    0.3741    0.4214   -0.6624 H   0  0  0  0  0  0  0  0  0  0  0  0
    0.6685   -1.7182   -0.7793 C   0  0  0  0  0  0  0  0  0  0  0  0
    0.8954   -2.2087    0.1736 H   0  0  0  0  0  0  0  0  0  0  0  0
    0.1163   -2.4436   -1.3873 H   0  0  0  0  0  0  0  0  0  0  0  0
    1.9914   -1.3489   -1.4591 C   0  0  0  0  0  0  0  0  0  0  0  0
    1.7825   -0.8449   -2.4093 H   0  0  0  0  0  0  0  0  0  0  0  0
    2.5523   -0.6574   -0.8209 H   0  0  0  0  0  0  0  0  0  0  0  0
    2.8076   -2.6165   -1.7041 C   0  0  0  0  0  0  0  0  0  0  0  0
    3.0024   -3.1114   -0.7410 H   0  0  0  0  0  0  0  0  0  0  0  0
    2.2137   -3.3160   -2.3110 H   0  0  0  0  0  0  0  0  0  0  0  0
    4.0702   -2.2600   -2.3866 N   0  3  0  0  0  0  0  0  0  0  0  0
    4.6030   -1.6022   -1.8147 H   0  0  0  0  0  0  0  0  0  0  0  0
    4.6346   -3.0986   -2.5405 H   0  0  0  0  0  0  0  0  0  0  0  0
    3.8682   -1.8264   -3.2897 H   0  0  0  0  0  0  0  0  0  0  0  0
   -1.0797    0.9672    1.3552 C   0  0  0  0  0  0  0  0  0  0  0  0
   -2.0038    1.6164    0.8838 O   0  0  0  0  0  0  0  0  0  0  0  0
   -0.2634    1.5370    2.3153 N   0  0  0  0  0  0  0  0  0  0  0  0
    0.4108    0.9350    2.7787 H   0  0  0  0  0  0  0  0  0  0  0  0
   -0.5055    2.8662    2.8686 C   0  0  0  0  0  0  0  0  0  0  0  0
   -1.4802    2.9031    3.3669 H   0  0  0  0  0  0  0  0  0  0  0  0
    0.2672    3.1200    3.6010 H   0  0  0  0  0  0  0  0  0  0  0  0
   -0.4888    3.6218    2.0758 H   0  0  0  0  0  0  0  0  0  0  0  0
  1  2  1  0  0  0  0
  2  3  1  0  0  0  0
  2  4  1  0  0  0  0
  2  5  1  0  0  0  0
  5  6  2  0  0  0  0
  5  7  1  0  0  0  0
  7  8  1  0  0  0  0
  7  9  1  0  0  0  0
  9 10  1  0  0  0  0
  9 11  1  0  0  0  0
  9 27  1  0  0  0  0
 11 12  1  0  0  0  0
 11 13  1  0  0  0  0
 11 14  1  0  0  0  0
 14 15  1  0  0  0  0
 14 16  1  0  0  0  0
 14 17  1  0  0  0  0
 17 18  1  0  0  0  0
 17 19  1  0  0  0  0
 17 20  1  0  0  0  0
 20 21  1  0  0  0  0
 20 22  1  0  0  0  0
 20 23  1  0  0  0  0
 23 24  1  0  0  0  0
 23 25  1  0  0  0  0
 23 26  1  0  0  0  0
 27 28  2  0  0  0  0
 27 29  1  0  0  0  0
 29 30  1  0  0  0  0
 29 31  1  0  0  0  0
 31 32  1  0  0  0  0
 31 33  1  0  0  0  0
 31 34  1  0  0  0  0
M  CHG  1  23   1
M  END
$$$$

  -OEChem-02102214153D

 34 33  0     1  0  0  0  0  0999 V2000
   -3.6569   -4.0663    1.8377 H   0  0  0  0  0  0  0  0  0  0  0  0
   -3.6983   -3.0621    1.4063 C   0  0  0  0  0  0  0  0  0  0  0  0
   -4.3190   -2.4307    2.0468 H   0  0  0  0  0  0  0  0  0  0  0  0
   -4.1545   -3.1228    0.4153 H   0  0  0  0  0  0  0  0  0  0  0  0
   -2.3021   -2.4801    1.3004 C   0  0  0  0  0  0  0  0  0  0  0  0
   -1.3284   -3.1463    1.6204 O   0  0  0  0  0  0  0  0  0  0  0  0
   -2.1190   -1.1989    0.8231 N   0  0  0  0  0  0  0  0  0  0  0  0
   -2.9561   -0.6408    0.6505 H   0  0  0  0  0  0  0  0  0  0  0  0
   -0.8388   -0.4785    0.8759 C   0  0  1  0  0  0  0  0  0  0  0  0
   -0.1516   -0.9418    1.5913 H   0  0  0  0  0  0  0  0  0  0  0  0
   -0.2291   -0.4763   -0.5415 C   0  0  0  0  0  0  0  0  0  0  0  0
   -1.0291   -0.4450   -1.2899 H   0  0  0  0  0  0  0  0  0  0  0  0
    0.3581    0.4391   -0.6748 H   0  0  0  0  0  0  0  0  0  0  0  0
    0.6729   -1.7032   -0.7873 C   0  0  0  0  0  0  0  0  0  0  0  0
    0.6723   -2.3618    0.0878 H   0  0  0  0  0  0  0  0  0  0  0  0
    0.2505   -2.2803   -1.6175 H   0  0  0  0  0  0  0  0  0  0  0  0
    2.1161   -1.3100   -1.1198 C   0  0  0  0  0  0  0  0  0  0  0  0
    2.1258   -0.6792   -2.0158 H   0  0  0  0  0  0  0  0  0  0  0  0
    2.5383   -0.7330   -0.2898 H   0  0  0  0  0  0  0  0  0  0  0  0
    2.9413   -2.5738   -1.3544 C   0  0  0  0  0  0  0  0  0  0  0  0
    2.9084   -3.1978   -0.4487 H   0  0  0  0  0  0  0  0  0  0  0  0
    2.4819   -3.1587   -2.1651 H   0  0  0  0  0  0  0  0  0  0  0  0
    4.3308   -2.1973   -1.6929 N   0  3  0  0  0  0  0  0  0  0  0  0
    4.7394   -1.6500   -0.9332 H   0  0  0  0  0  0  0  0  0  0  0  0
    4.8961   -3.0370   -1.8376 H   0  0  0  0  0  0  0  0  0  0  0  0
    4.3427   -1.6387   -2.5484 H   0  0  0  0  0  0  0  0  0  0  0  0
   -1.0802    0.9657    1.3621 C   0  0  0  0  0  0  0  0  0  0  0  0
   -2.0028    1.6120    0.8838 O   0  0  0  0  0  0  0  0  0  0  0  0
   -0.2641    1.5432    2.3179 N   0  0  0  0  0  0  0  0  0  0  0  0
    0.4012    0.9414    2.7941 H   0  0  0  0  0  0  0  0  0  0  0  0
   -0.5100    2.8760    2.8610 C   0  0  0  0  0  0  0  0  0  0  0  0
   -1.4830    2.9133    3.3626 H   0  0  0  0  0  0  0  0  0  0  0  0
    0.2642    3.1394    3.5882 H   0  0  0  0  0  0  0  0  0  0  0  0
   -0.4988    3.6248    2.0615 H   0  0  0  0  0  0  0  0  0  0  0  0
  1  2  1  0  0  0  0
  2  3  1  0  0  0  0
  2  4  1  0  0  0  0
  2  5  1  0  0  0  0
  5  6  2  0  0  0  0
  5  7  1  0  0  0  0
  7  8  1  0  0  0  0
  7  9  1  0  0  0  0
  9 10  1  0  0  0  0
  9 11  1  0  0  0  0
  9 27  1  0  0  0  0
 11 12  1  0  0  0  0
 11 13  1  0  0  0  0
 11 14  1  0  0  0  0
 14 15  1  0  0  0  0
 14 16  1  0  0  0  0
 14 17  1  0  0  0  0
 17 18  1  0  0  0  0
 17 19  1  0  0  0  0
 17 20  1  0  0  0  0
 20 21  1  0  0  0  0
 20 22  1  0  0  0  0
 20 23  1  0  0  0  0
 23 24  1  0  0  0  0
 23 25  1  0  0  0  0
 23 26  1  0  0  0  0
 27 28  2  0  0  0  0
 27 29  1  0  0  0  0
 29 30  1  0  0  0  0
 29 31  1  0  0  0  0
 31 32  1  0  0  0  0
 31 33  1  0  0  0  0
 31 34  1  0  0  0  0
M  CHG  1  23   1
M  END
$$$$

  -OEChem-02102214153D

 34 33  0     1  0  0  0  0  0999 V2000
   -3.6512   -4.0831    1.8300 H   0  0  0  0  0  0  0  0  0  0  0  0
   -3.6909   -3.0795    1.3971 C   0  0  0  0  0  0  0  0  0  0  0  0
   -4.3325   -2.4530    2.0217 H   0  0  0  0  0  0  0  0  0  0  0  0
   -4.1226   -3.1445    0.3954 H   0  0  0  0  0  0  0  0  0  0  0  0
   -2.2978   -2.4848    1.3240 C   0  0  0  0  0  0  0  0  0  0  0  0
   -1.3274   -3.1373    1.6810 O   0  0  0  0  0  0  0  0  0  0  0  0
   -2.1150   -1.2053    0.8416 N   0  0  0  0  0  0  0  0  0  0  0  0
   -2.9520   -0.6565    0.6408 H   0  0  0  0  0  0  0  0  0  0  0  0
   -0.8365   -0.4808    0.8835 C   0  0  1  0  0  0  0  0  0  0  0  0
   -0.1408   -0.9431    1.5910 H   0  0  0  0  0  0  0  0  0  0  0  0
   -0.2313   -0.4692   -0.5361 C   0  0  0  0  0  0  0  0  0  0  0  0
   -1.0432   -0.4565   -1.2722 H   0  0  0  0  0  0  0  0  0  0  0  0
    0.3419    0.4519   -0.6897 H   0  0  0  0  0  0  0  0  0  0  0  0
    0.6742   -1.6894   -0.7887 C   0  0  0  0  0  0  0  0  0  0  0  0
    0.4635   -2.4803   -0.0617 H   0  0  0  0  0  0  0  0  0  0  0  0
    0.4331   -2.0944   -1.7779 H   0  0  0  0  0  0  0  0  0  0  0  0
    2.1625   -1.3269   -0.7555 C   0  0  0  0  0  0  0  0  0  0  0  0
    2.3787   -0.5906   -1.5377 H   0  0  0  0  0  0  0  0  0  0  0  0
    2.4078   -0.8792    0.2139 H   0  0  0  0  0  0  0  0  0  0  0  0
    2.9919   -2.5909   -0.9735 C   0  0  0  0  0  0  0  0  0  0  0  0
    2.7475   -3.3201   -0.1865 H   0  0  0  0  0  0  0  0  0  0  0  0
    2.7092   -3.0469   -1.9338 H   0  0  0  0  0  0  0  0  0  0  0  0
    4.4296   -2.2453   -0.9516 N   0  3  0  0  0  0  0  0  0  0  0  0
    4.6751   -1.8301   -0.0511 H   0  0  0  0  0  0  0  0  0  0  0  0
    4.9940   -3.0861   -1.0935 H   0  0  0  0  0  0  0  0  0  0  0  0
    4.6393   -1.5761   -1.6948 H   0  0  0  0  0  0  0  0  0  0  0  0
   -1.0790    0.9644    1.3653 C   0  0  0  0  0  0  0  0  0  0  0  0
   -2.0013    1.6096    0.8854 O   0  0  0  0  0  0  0  0  0  0  0  0
   -0.2578    1.5467    2.3138 N   0  0  0  0  0  0  0  0  0  0  0  0
    0.4014    0.9447    2.7976 H   0  0  0  0  0  0  0  0  0  0  0  0
   -0.4970    2.8852    2.8455 C   0  0  0  0  0  0  0  0  0  0  0  0
   -1.4662    2.9294    3.3541 H   0  0  0  0  0  0  0  0  0  0  0  0
    0.2834    3.1550    3.5639 H   0  0  0  0  0  0  0  0  0  0  0  0
   -0.4907    3.6259    2.0384 H   0  0  0  0  0  0  0  0  0  0  0  0
  1  2  1  0  0  0  0
  2  3  1  0  0  0  0
  2  4  1  0  0  0  0
  2  5  1  0  0  0  0
  5  6  2  0  0  0  0
  5  7  1  0  0  0  0
  7  8  1  0  0  0  0
  7  9  1  0  0  0  0
  9 10  1  0  0  0  0
  9 11  1  0  0  0  0
  9 27  1  0  0  0  0
 11 12  1  0  0  0  0
 11 13  1  0  0  0  0
 11 14  1  0  0  0  0
 14 15  1  0  0  0  0
 14 16  1  0  0  0  0
 14 17  1  0  0  0  0
 17 18  1  0  0  0  0
 17 19  1  0  0  0  0
 17 20  1  0  0  0  0
 20 21  1  0  0  0  0
 20 22  1  0  0  0  0
 20 23  1  0  0  0  0
 23 24  1  0  0  0  0
 23 25  1  0  0  0  0
 23 26  1  0  0  0  0
 27 28  2  0  0  0  0
 27 29  1  0  0  0  0
 29 30  1  0  0  0  0
 29 31  1  0  0  0  0
 31 32  1  0  0  0  0
 31 33  1  0  0  0  0
 31 34  1  0  0  0  0
M  CHG  1  23   1
M  END
$$$$

  -OEChem-02102214153D

 34 33  0     1  0  0  0  0  0999 V2000
   -3.6177   -4.0949    1.8356 H   0  0  0  0  0  0  0  0  0  0  0  0
   -3.6647   -3.0912    1.4038 C   0  0  0  0  0  0  0  0  0  0  0  0
   -4.3131   -2.4707    2.0274 H   0  0  0  0  0  0  0  0  0  0  0  0
   -4.0933   -3.1591    0.4008 H   0  0  0  0  0  0  0  0  0  0  0  0
   -2.2765   -2.4851    1.3348 C   0  0  0  0  0  0  0  0  0  0  0  0
   -1.3009   -3.1282    1.6970 O   0  0  0  0  0  0  0  0  0  0  0  0
   -2.1027   -1.2060    0.8474 N   0  0  0  0  0  0  0  0  0  0  0  0
   -2.9426   -0.6648    0.6384 H   0  0  0  0  0  0  0  0  0  0  0  0
   -0.8280   -0.4751    0.8871 C   0  0  1  0  0  0  0  0  0  0  0  0
   -0.1302   -0.9339    1.5941 H   0  0  0  0  0  0  0  0  0  0  0  0
   -0.2237   -0.4569   -0.5328 C   0  0  0  0  0  0  0  0  0  0  0  0
   -1.0376   -0.4493   -1.2668 H   0  0  0  0  0  0  0  0  0  0  0  0
    0.3486    0.4642   -0.6897 H   0  0  0  0  0  0  0  0  0  0  0  0
    0.6858   -1.6705   -0.7866 C   0  0  0  0  0  0  0  0  0  0  0  0
    0.3010   -2.5462   -0.2543 H   0  0  0  0  0  0  0  0  0  0  0  0
    0.6490   -1.9050   -1.8563 H   0  0  0  0  0  0  0  0  0  0  0  0
    2.1438   -1.4040   -0.3975 C   0  0  0  0  0  0  0  0  0  0  0  0
    2.5460   -0.5889   -1.0092 H   0  0  0  0  0  0  0  0  0  0  0  0
    2.1930   -1.1003    0.6537 H   0  0  0  0  0  0  0  0  0  0  0  0
    2.9559   -2.6799   -0.6101 C   0  0  0  0  0  0  0  0  0  0  0  0
    2.5154   -3.4894   -0.0086 H   0  0  0  0  0  0  0  0  0  0  0  0
    2.8789   -2.9844   -1.6643 H   0  0  0  0  0  0  0  0  0  0  0  0
    4.3639   -2.4394   -0.2273 N   0  3  0  0  0  0  0  0  0  0  0  0
    4.4180   -2.1818    0.7598 H   0  0  0  0  0  0  0  0  0  0  0  0
    4.9169   -3.2859   -0.3787 H   0  0  0  0  0  0  0  0  0  0  0  0
    4.7553   -1.6825   -0.7909 H   0  0  0  0  0  0  0  0  0  0  0  0
   -1.0807    0.9705    1.3645 C   0  0  0  0  0  0  0  0  0  0  0  0
   -2.0077    1.6068    0.8821 O   0  0  0  0  0  0  0  0  0  0  0  0
   -0.2659    1.5642    2.3117 N   0  0  0  0  0  0  0  0  0  0  0  0
    0.3925    0.9691    2.8045 H   0  0  0  0  0  0  0  0  0  0  0  0
   -0.5200    2.9032    2.8364 C   0  0  0  0  0  0  0  0  0  0  0  0
   -1.4904    2.9394    3.3431 H   0  0  0  0  0  0  0  0  0  0  0  0
    0.2564    3.1843    3.5547 H   0  0  0  0  0  0  0  0  0  0  0  0
   -0.5205    3.6405    2.0261 H   0  0  0  0  0  0  0  0  0  0  0  0
  1  2  1  0  0  0  0
  2  3  1  0  0  0  0
  2  4  1  0  0  0  0
  2  5  1  0  0  0  0
  5  6  2  0  0  0  0
  5  7  1  0  0  0  0
  7  8  1  0  0  0  0
  7  9  1  0  0  0  0
  9 10  1  0  0  0  0
  9 11  1  0  0  0  0
  9 27  1  0  0  0  0
 11 12  1  0  0  0  0
 11 13  1  0  0  0  0
 11 14  1  0  0  0  0
 14 15  1  0  0  0  0
 14 16  1  0  0  0  0
 14 17  1  0  0  0  0
 17 18  1  0  0  0  0
 17 19  1  0  0  0  0
 17 20  1  0  0  0  0
 20 21  1  0  0  0  0
 20 22  1  0  0  0  0
 20 23  1  0  0  0  0
 23 24  1  0  0  0  0
 23 25  1  0  0  0  0
 23 26  1  0  0  0  0
 27 28  2  0  0  0  0
 27 29  1  0  0  0  0
 29 30  1  0  0  0  0
 29 31  1  0  0  0  0
 31 32  1  0  0  0  0
 31 33  1  0  0  0  0
 31 34  1  0  0  0  0
M  CHG  1  23   1
M  END
$$$$

  -OEChem-02102214153D

 34 33  0     1  0  0  0  0  0999 V2000
   -3.5778   -4.0927    1.8550 H   0  0  0  0  0  0  0  0  0  0  0  0
   -3.6364   -3.0891    1.4246 C   0  0  0  0  0  0  0  0  0  0  0  0
   -4.2857   -2.4749    2.0533 H   0  0  0  0  0  0  0  0  0  0  0  0
   -4.0718   -3.1598    0.4247 H   0  0  0  0  0  0  0  0  0  0  0  0
   -2.2539   -2.4705    1.3467 C   0  0  0  0  0  0  0  0  0  0  0  0
   -1.2693   -3.1012    1.7095 O   0  0  0  0  0  0  0  0  0  0  0  0
   -2.0921   -1.1948    0.8467 N   0  0  0  0  0  0  0  0  0  0  0  0
   -2.9357   -0.6593    0.6368 H   0  0  0  0  0  0  0  0  0  0  0  0
   -0.8241   -0.4547    0.8974 C   0  0  1  0  0  0  0  0  0  0  0  0
   -0.1401   -0.8979    1.6250 H   0  0  0  0  0  0  0  0  0  0  0  0
   -0.2044   -0.4528   -0.5167 C   0  0  0  0  0  0  0  0  0  0  0  0
   -1.0072   -0.4476   -1.2628 H   0  0  0  0  0  0  0  0  0  0  0  0
    0.3737    0.4654   -0.6681 H   0  0  0  0  0  0  0  0  0  0  0  0
    0.7175   -1.6593   -0.7612 C   0  0  0  0  0  0  0  0  0  0  0  0
    0.2027   -2.5732   -0.4452 H   0  0  0  0  0  0  0  0  0  0  0  0
    0.8886   -1.7422   -1.8402 H   0  0  0  0  0  0  0  0  0  0  0  0
    2.0768   -1.5522   -0.0576 C   0  0  0  0  0  0  0  0  0  0  0  0
    2.6229   -0.6832   -0.4409 H   0  0  0  0  0  0  0  0  0  0  0  0
    1.9338   -1.4184    1.0189 H   0  0  0  0  0  0  0  0  0  0  0  0
    2.8652   -2.8356   -0.3123 C   0  0  0  0  0  0  0  0  0  0  0  0
    2.2654   -3.6947    0.0248 H   0  0  0  0  0  0  0  0  0  0  0  0
    3.0208   -2.9555   -1.3946 H   0  0  0  0  0  0  0  0  0  0  0  0
    4.1539   -2.7770    0.4103 N   0  3  0  0  0  0  0  0  0  0  0  0
    3.9851   -2.7062    1.4156 H   0  0  0  0  0  0  0  0  0  0  0  0
    4.6972   -3.6233    0.2256 H   0  0  0  0  0  0  0  0  0  0  0  0
    4.6912   -1.9640    0.1038 H   0  0  0  0  0  0  0  0  0  0  0  0
   -1.0991    0.9927    1.3573 C   0  0  0  0  0  0  0  0  0  0  0  0
   -2.0361    1.6087    0.8678 O   0  0  0  0  0  0  0  0  0  0  0  0
   -0.3059    1.6045    2.3111 N   0  0  0  0  0  0  0  0  0  0  0  0
    0.3650    1.0267    2.8073 H   0  0  0  0  0  0  0  0  0  0  0  0
   -0.5883    2.9414    2.8268 C   0  0  0  0  0  0  0  0  0  0  0  0
   -1.5656    2.9648    3.3210 H   0  0  0  0  0  0  0  0  0  0  0  0
    0.1739    3.2374    3.5541 H   0  0  0  0  0  0  0  0  0  0  0  0
   -0.5900    3.6751    2.0133 H   0  0  0  0  0  0  0  0  0  0  0  0
  1  2  1  0  0  0  0
  2  3  1  0  0  0  0
  2  4  1  0  0  0  0
  2  5  1  0  0  0  0
  5  6  2  0  0  0  0
  5  7  1  0  0  0  0
  7  8  1  0  0  0  0
  7  9  1  0  0  0  0
  9 10  1  0  0  0  0
  9 11  1  0  0  0  0
  9 27  1  0  0  0  0
 11 12  1  0  0  0  0
 11 13  1  0  0  0  0
 11 14  1  0  0  0  0
 14 15  1  0  0  0  0
 14 16  1  0  0  0  0
 14 17  1  0  0  0  0
 17 18  1  0  0  0  0
 17 19  1  0  0  0  0
 17 20  1  0  0  0  0
 20 21  1  0  0  0  0
 20 22  1  0  0  0  0
 20 23  1  0  0  0  0
 23 24  1  0  0  0  0
 23 25  1  0  0  0  0
 23 26  1  0  0  0  0
 27 28  2  0  0  0  0
 27 29  1  0  0  0  0
 29 30  1  0  0  0  0
 29 31  1  0  0  0  0
 31 32  1  0  0  0  0
 31 33  1  0  0  0  0
 31 34  1  0  0  0  0
M  CHG  1  23   1
M  END
$$$$

  -OEChem-02102214153D

 34 33  0     1  0  0  0  0  0999 V2000
   -3.5809   -4.0538    1.9201 H   0  0  0  0  0  0  0  0  0  0  0  0
   -3.6412   -3.0566    1.4754 C   0  0  0  0  0  0  0  0  0  0  0  0
   -4.2790   -2.4297    2.1038 H   0  0  0  0  0  0  0  0  0  0  0  0
   -4.0911   -3.1399    0.4829 H   0  0  0  0  0  0  0  0  0  0  0  0
   -2.2572   -2.4456    1.3693 C   0  0  0  0  0  0  0  0  0  0  0  0
   -1.2688   -3.0760    1.7265 O   0  0  0  0  0  0  0  0  0  0  0  0
   -2.0953   -1.1799    0.8443 N   0  0  0  0  0  0  0  0  0  0  0  0
   -2.9387   -0.6429    0.6354 H   0  0  0  0  0  0  0  0  0  0  0  0
   -0.8317   -0.4360    0.9189 C   0  0  1  0  0  0  0  0  0  0  0  0
   -0.1790   -0.8503    1.6877 H   0  0  0  0  0  0  0  0  0  0  0  0
   -0.1736   -0.4698   -0.4770 C   0  0  0  0  0  0  0  0  0  0  0  0
   -0.9514   -0.4611   -1.2492 H   0  0  0  0  0  0  0  0  0  0  0  0
    0.4166    0.4430   -0.6137 H   0  0  0  0  0  0  0  0  0  0  0  0
    0.7627   -1.6726   -0.7021 C   0  0  0  0  0  0  0  0  0  0  0  0
    0.1636   -2.5874   -0.6288 H   0  0  0  0  0  0  0  0  0  0  0  0
    1.1404   -1.6135   -1.7288 H   0  0  0  0  0  0  0  0  0  0  0  0
    1.9555   -1.7787    0.2605 C   0  0  0  0  0  0  0  0  0  0  0  0
    2.5670   -0.8719    0.1996 H   0  0  0  0  0  0  0  0  0  0  0  0
    1.6038   -1.8899    1.2896 H   0  0  0  0  0  0  0  0  0  0  0  0
    2.7795   -3.0092   -0.1129 C   0  0  0  0  0  0  0  0  0  0  0  0
    2.1078   -3.8780   -0.1842 H   0  0  0  0  0  0  0  0  0  0  0  0
    3.2239   -2.8614   -1.1081 H   0  0  0  0  0  0  0  0  0  0  0  0
    3.8174   -3.2365    0.9153 N   0  3  0  0  0  0  0  0  0  0  0  0
    3.3742   -3.4120    1.8198 H   0  0  0  0  0  0  0  0  0  0  0  0
    4.3874   -4.0473    0.6647 H   0  0  0  0  0  0  0  0  0  0  0  0
    4.4210   -2.4163    0.9927 H   0  0  0  0  0  0  0  0  0  0  0  0
   -1.1280    1.0198    1.3395 C   0  0  0  0  0  0  0  0  0  0  0  0
   -2.0700    1.6093    0.8272 O   0  0  0  0  0  0  0  0  0  0  0  0
   -0.3701    1.6586    2.3044 N   0  0  0  0  0  0  0  0  0  0  0  0
    0.3242    1.1119    2.8033 H   0  0  0  0  0  0  0  0  0  0  0  0
   -0.6797    3.0017    2.7870 C   0  0  0  0  0  0  0  0  0  0  0  0
   -1.6716    3.0236    3.2515 H   0  0  0  0  0  0  0  0  0  0  0  0
    0.0574    3.3189    3.5311 H   0  0  0  0  0  0  0  0  0  0  0  0
   -0.6641    3.7206    1.9604 H   0  0  0  0  0  0  0  0  0  0  0  0
  1  2  1  0  0  0  0
  2  3  1  0  0  0  0
  2  4  1  0  0  0  0
  2  5  1  0  0  0  0
  5  6  2  0  0  0  0
  5  7  1  0  0  0  0
  7  8  1  0  0  0  0
  7  9  1  0  0  0  0
  9 10  1  0  0  0  0
  9 11  1  0  0  0  0
  9 27  1  0  0  0  0
 11 12  1  0  0  0  0
 11 13  1  0  0  0  0
 11 14  1  0  0  0  0
 14 15  1  0  0  0  0
 14 16  1  0  0  0  0
 14 17  1  0  0  0  0
 17 18  1  0  0  0  0
 17 19  1  0  0  0  0
 17 20  1  0  0  0  0
 20 21  1  0  0  0  0
 20 22  1  0  0  0  0
 20 23  1  0  0  0  0
 23 24  1  0  0  0  0
 23 25  1  0  0  0  0
 23 26  1  0  0  0  0
 27 28  2  0  0  0  0
 27 29  1  0  0  0  0
 29 30  1  0  0  0  0
 29 31  1  0  0  0  0
 31 32  1  0  0  0  0
 31 33  1  0  0  0  0
 31 34  1  0  0  0  0
M  CHG  1  23   1
M  END
$$$$

  -OEChem-02102214153D

 34 33  0     1  0  0  0  0  0999 V2000
   -3.6110   -4.0187    1.9774 H   0  0  0  0  0  0  0  0  0  0  0  0
   -3.6568   -3.0287    1.5154 C   0  0  0  0  0  0  0  0  0  0  0  0
   -4.2996   -2.3871    2.1235 H   0  0  0  0  0  0  0  0  0  0  0  0
   -4.0927   -3.1249    0.5180 H   0  0  0  0  0  0  0  0  0  0  0  0
   -2.2672   -2.4290    1.4189 C   0  0  0  0  0  0  0  0  0  0  0  0
   -1.2888   -3.0601    1.8026 O   0  0  0  0  0  0  0  0  0  0  0  0
   -2.0902   -1.1761    0.8691 N   0  0  0  0  0  0  0  0  0  0  0  0
   -2.9283   -0.6397    0.6375 H   0  0  0  0  0  0  0  0  0  0  0  0
   -0.8283   -0.4301    0.9521 C   0  0  1  0  0  0  0  0  0  0  0  0
   -0.1902   -0.8136    1.7477 H   0  0  0  0  0  0  0  0  0  0  0  0
   -0.1479   -0.4895   -0.4336 C   0  0  0  0  0  0  0  0  0  0  0  0
   -0.9091   -0.4707   -1.2218 H   0  0  0  0  0  0  0  0  0  0  0  0
    0.4513    0.4199   -0.5548 H   0  0  0  0  0  0  0  0  0  0  0  0
    0.8013   -1.6862   -0.6604 C   0  0  0  0  0  0  0  0  0  0  0  0
    0.1750   -2.5685   -0.8363 H   0  0  0  0  0  0  0  0  0  0  0  0
    1.3657   -1.4994   -1.5808 H   0  0  0  0  0  0  0  0  0  0  0  0
    1.7816   -2.0188    0.4756 C   0  0  0  0  0  0  0  0  0  0  0  0
    2.4090   -1.1497    0.7008 H   0  0  0  0  0  0  0  0  0  0  0  0
    1.2277   -2.2914    1.3774 H   0  0  0  0  0  0  0  0  0  0  0  0
    2.6421   -3.2116    0.0660 C   0  0  0  0  0  0  0  0  0  0  0  0
    1.9949   -3.9810   -0.3811 H   0  0  0  0  0  0  0  0  0  0  0  0
    3.3592   -2.9002   -0.7077 H   0  0  0  0  0  0  0  0  0  0  0  0
    3.3244   -3.7435    1.2649 N   0  3  0  0  0  0  0  0  0  0  0  0
    2.6271   -4.0160    1.9626 H   0  0  0  0  0  0  0  0  0  0  0  0
    3.8827   -4.5633    1.0181 H   0  0  0  0  0  0  0  0  0  0  0  0
    3.9360   -3.0314    1.6666 H   0  0  0  0  0  0  0  0  0  0  0  0
   -1.1441    1.0335    1.3320 C   0  0  0  0  0  0  0  0  0  0  0  0
   -2.0887    1.5979    0.7963 O   0  0  0  0  0  0  0  0  0  0  0  0
   -0.4137    1.7022    2.2979 N   0  0  0  0  0  0  0  0  0  0  0  0
    0.3018    1.1865    2.7998 H   0  0  0  0  0  0  0  0  0  0  0  0
   -0.7413    3.0553    2.7386 C   0  0  0  0  0  0  0  0  0  0  0  0
   -1.7479    3.0860    3.1699 H   0  0  0  0  0  0  0  0  0  0  0  0
   -0.0297    3.3917    3.4989 H   0  0  0  0  0  0  0  0  0  0  0  0
   -0.7002    3.7546    1.8963 H   0  0  0  0  0  0  0  0  0  0  0  0
  1  2  1  0  0  0  0
  2  3  1  0  0  0  0
  2  4  1  0  0  0  0
  2  5  1  0  0  0  0
  5  6  2  0  0  0  0
  5  7  1  0  0  0  0
  7  8  1  0  0  0  0
  7  9  1  0  0  0  0
  9 10  1  0  0  0  0
  9 11  1  0  0  0  0
  9 27  1  0  0  0  0
 11 12  1  0  0  0  0
 11 13  1  0  0  0  0
 11 14  1  0  0  0  0
 14 15  1  0  0  0  0
 14 16  1  0  0  0  0
 14 17  1  0  0  0  0
 17 18  1  0  0  0  0
 17 19  1  0  0  0  0
 17 20  1  0  0  0  0
 20 21  1  0  0  0  0
 20 22  1  0  0  0  0
 20 23  1  0  0  0  0
 23 24  1  0  0  0  0
 23 25  1  0  0  0  0
 23 26  1  0  0  0  0
 27 28  2  0  0  0  0
 27 29  1  0  0  0  0
 29 30  1  0  0  0  0
 29 31  1  0  0  0  0
 31 32  1  0  0  0  0
 31 33  1  0  0  0  0
 31 34  1  0  0  0  0
M  CHG  1  23   1
M  END
$$$$

  -OEChem-02102214153D

 34 33  0     1  0  0  0  0  0999 V2000
   -3.0310   -4.1767    2.4936 H   0  0  0  0  0  0  0  0  0  0  0  0
   -3.1917   -3.2223    1.9847 C   0  0  0  0  0  0  0  0  0  0  0  0
   -3.7865   -2.5756    2.6352 H   0  0  0  0  0  0  0  0  0  0  0  0
   -3.7486   -3.4036    1.0618 H   0  0  0  0  0  0  0  0  0  0  0  0
   -1.8643   -2.5592    1.6711 C   0  0  0  0  0  0  0  0  0  0  0  0
   -0.8081   -3.1441    1.9001 O   0  0  0  0  0  0  0  0  0  0  0  0
   -1.8386   -1.3398    1.0304 N   0  0  0  0  0  0  0  0  0  0  0  0
   -2.7457   -0.8938    0.8716 H   0  0  0  0  0  0  0  0  0  0  0  0
   -0.6860   -0.4249    1.0195 C   0  0  1  0  0  0  0  0  0  0  0  0
   -0.0065   -0.6387    1.8413 H   0  0  0  0  0  0  0  0  0  0  0  0
   -0.0122   -0.5247   -0.3685 C   0  0  0  0  0  0  0  0  0  0  0  0
   -0.7788   -0.6570   -1.1407 H   0  0  0  0  0  0  0  0  0  0  0  0
    0.4560    0.4465   -0.5647 H   0  0  0  0  0  0  0  0  0  0  0  0
    1.1048   -1.5823   -0.5654 C   0  0  0  0  0  0  0  0  0  0  0  0
    0.5874   -2.4807   -0.9154 H   0  0  0  0  0  0  0  0  0  0  0  0
    1.7542   -1.2567   -1.3860 H   0  0  0  0  0  0  0  0  0  0  0  0
    1.9900   -1.9816    0.6420 C   0  0  0  0  0  0  0  0  0  0  0  0
    2.8175   -1.2672    0.7111 H   0  0  0  0  0  0  0  0  0  0  0  0
    1.4664   -1.9497    1.5945 H   0  0  0  0  0  0  0  0  0  0  0  0
    2.5488   -3.3962    0.4934 C   0  0  0  0  0  0  0  0  0  0  0  0
    2.9956   -3.5212   -0.5035 H   0  0  0  0  0  0  0  0  0  0  0  0
    3.3532   -3.5366    1.2301 H   0  0  0  0  0  0  0  0  0  0  0  0
    1.4499   -4.3601    0.7324 N   0  3  0  0  0  0  0  0  0  0  0  0
    0.7118   -3.9133    1.3032 H   0  0  0  0  0  0  0  0  0  0  0  0
    1.0328   -4.6503   -0.1511 H   0  0  0  0  0  0  0  0  0  0  0  0
    1.7931   -5.1826    1.2286 H   0  0  0  0  0  0  0  0  0  0  0  0
   -1.1917    1.0100    1.2900 C   0  0  0  0  0  0  0  0  0  0  0  0
   -2.2438    1.3704    0.7790 O   0  0  0  0  0  0  0  0  0  0  0  0
   -0.5444    1.8495    2.1782 N   0  0  0  0  0  0  0  0  0  0  0  0
    0.3066    1.5194    2.6230 H   0  0  0  0  0  0  0  0  0  0  0  0
   -1.0319    3.1865    2.5052 C   0  0  0  0  0  0  0  0  0  0  0  0
   -2.0352    3.1346    2.9419 H   0  0  0  0  0  0  0  0  0  0  0  0
   -0.3666    3.6681    3.2287 H   0  0  0  0  0  0  0  0  0  0  0  0
   -1.0732    3.8109    1.6061 H   0  0  0  0  0  0  0  0  0  0  0  0
  1  2  1  0  0  0  0
  2  3  1  0  0  0  0
  2  4  1  0  0  0  0
  2  5  1  0  0  0  0
  5  6  2  0  0  0  0
  5  7  1  0  0  0  0
  7  8  1  0  0  0  0
  7  9  1  0  0  0  0
  9 10  1  0  0  0  0
  9 11  1  0  0  0  0
  9 27  1  0  0  0  0
 11 12  1  0  0  0  0
 11 13  1  0  0  0  0
 11 14  1  0  0  0  0
 14 15  1  0  0  0  0
 14 16  1  0  0  0  0
 14 17  1  0  0  0  0
 17 18  1  0  0  0  0
 17 19  1  0  0  0  0
 17 20  1  0  0  0  0
 20 21  1  0  0  0  0
 20 22  1  0  0  0  0
 20 23  1  0  0  0  0
 23 24  1  0  0  0  0
 23 25  1  0  0  0  0
 23 26  1  0  0  0  0
 27 28  2  0  0  0  0
 27 29  1  0  0  0  0
 29 30  1  0  0  0  0
 29 31  1  0  0  0  0
 31 32  1  0  0  0  0
 31 33  1  0  0  0  0
 31 34  1  0  0  0  0
M  CHG  1  23   1
M  END
$$$$

  -OEChem-02102214153D

 34 33  0     1  0  0  0  0  0999 V2000
   -3.9644   -3.8836    1.9917 H   0  0  0  0  0  0  0  0  0  0  0  0
   -3.8759   -2.9162    1.4895 C   0  0  0  0  0  0  0  0  0  0  0  0
   -4.5631   -2.2108    1.9639 H   0  0  0  0  0  0  0  0  0  0  0  0
   -4.1586   -3.0365    0.4407 H   0  0  0  0  0  0  0  0  0  0  0  0
   -2.4538   -2.3985    1.5894 C   0  0  0  0  0  0  0  0  0  0  0  0
   -1.6197   -3.0275    2.2245 O   0  0  0  0  0  0  0  0  0  0  0  0
   -2.1288   -1.1945    0.9996 N   0  0  0  0  0  0  0  0  0  0  0  0
   -2.9054   -0.6631    0.6015 H   0  0  0  0  0  0  0  0  0  0  0  0
   -0.8409   -0.4819    1.0741 C   0  0  1  0  0  0  0  0  0  0  0  0
   -0.2227   -0.8559    1.8936 H   0  0  0  0  0  0  0  0  0  0  0  0
   -0.1119   -0.5666   -0.2980 C   0  0  0  0  0  0  0  0  0  0  0  0
   -0.8579   -0.5175   -1.0995 H   0  0  0  0  0  0  0  0  0  0  0  0
    0.4958    0.3407   -0.3938 H   0  0  0  0  0  0  0  0  0  0  0  0
    0.8539   -1.7446   -0.5852 C   0  0  0  0  0  0  0  0  0  0  0  0
    0.3399   -2.4248   -1.2739 H   0  0  0  0  0  0  0  0  0  0  0  0
    1.7315   -1.3553   -1.1134 H   0  0  0  0  0  0  0  0  0  0  0  0
    1.3110   -2.5649    0.6252 C   0  0  0  0  0  0  0  0  0  0  0  0
    1.8410   -1.9202    1.3344 H   0  0  0  0  0  0  0  0  0  0  0  0
    0.4383   -2.9768    1.1184 H   0  0  0  0  0  0  0  0  0  0  0  0
    2.2030   -3.7286    0.2089 C   0  0  0  0  0  0  0  0  0  0  0  0
    1.7377   -4.2582   -0.6355 H   0  0  0  0  0  0  0  0  0  0  0  0
    3.1754   -3.3493   -0.1380 H   0  0  0  0  0  0  0  0  0  0  0  0
    2.3440   -4.6234    1.3783 N   0  3  0  0  0  0  0  0  0  0  0  0
    1.4158   -4.8808    1.7268 H   0  0  0  0  0  0  0  0  0  0  0  0
    2.8491   -5.4727    1.1182 H   0  0  0  0  0  0  0  0  0  0  0  0
    2.8523   -4.1473    2.1251 H   0  0  0  0  0  0  0  0  0  0  0  0
   -1.1427    1.0087    1.3518 C   0  0  0  0  0  0  0  0  0  0  0  0
   -2.0498    1.5579    0.7398 O   0  0  0  0  0  0  0  0  0  0  0  0
   -0.4306    1.7226    2.2984 N   0  0  0  0  0  0  0  0  0  0  0  0
    0.2534    1.2242    2.8590 H   0  0  0  0  0  0  0  0  0  0  0  0
   -0.7391    3.1083    2.6402 C   0  0  0  0  0  0  0  0  0  0  0  0
   -1.7555    3.1881    3.0405 H   0  0  0  0  0  0  0  0  0  0  0  0
   -0.0402    3.4792    3.3964 H   0  0  0  0  0  0  0  0  0  0  0  0
   -0.6601    3.7497    1.7558 H   0  0  0  0  0  0  0  0  0  0  0  0
  1  2  1  0  0  0  0
  2  3  1  0  0  0  0
  2  4  1  0  0  0  0
  2  5  1  0  0  0  0
  5  6  2  0  0  0  0
  5  7  1  0  0  0  0
  7  8  1  0  0  0  0
  7  9  1  0  0  0  0
  9 10  1  0  0  0  0
  9 11  1  0  0  0  0
  9 27  1  0  0  0  0
 11 12  1  0  0  0  0
 11 13  1  0  0  0  0
 11 14  1  0  0  0  0
 14 15  1  0  0  0  0
 14 16  1  0  0  0  0
 14 17  1  0  0  0  0
 17 18  1  0  0  0  0
 17 19  1  0  0  0  0
 17 20  1  0  0  0  0
 20 21  1  0  0  0  0
 20 22  1  0  0  0  0
 20 23  1  0  0  0  0
 23 24  1  0  0  0  0
 23 25  1  0  0  0  0
 23 26  1  0  0  0  0
 27 28  2  0  0  0  0
 27 29  1  0  0  0  0
 29 30  1  0  0  0  0
 29 31  1  0  0  0  0
 31 32  1  0  0  0  0
 31 33  1  0  0  0  0
 31 34  1  0  0  0  0
M  CHG  1  23   1
M  END
$$$$

  -OEChem-02102214153D

 34 33  0     1  0  0  0  0  0999 V2000
   -4.0818   -3.8062    2.0275 H   0  0  0  0  0  0  0  0  0  0  0  0
   -3.9734   -2.8441    1.5190 C   0  0  0  0  0  0  0  0  0  0  0  0
   -4.6376   -2.1189    1.9963 H   0  0  0  0  0  0  0  0  0  0  0  0
   -4.2692   -2.9623    0.4737 H   0  0  0  0  0  0  0  0  0  0  0  0
   -2.5375   -2.3627    1.6034 C   0  0  0  0  0  0  0  0  0  0  0  0
   -1.7151   -3.0037    2.2446 O   0  0  0  0  0  0  0  0  0  0  0  0
   -2.1815   -1.1735    1.0009 N   0  0  0  0  0  0  0  0  0  0  0  0
   -2.9400   -0.6142    0.6058 H   0  0  0  0  0  0  0  0  0  0  0  0
   -0.8677   -0.5130    1.0812 C   0  0  1  0  0  0  0  0  0  0  0  0
   -0.2713   -0.9008    1.9097 H   0  0  0  0  0  0  0  0  0  0  0  0
   -0.1120   -0.5959   -0.2784 C   0  0  0  0  0  0  0  0  0  0  0  0
   -0.8538   -0.5271   -1.0822 H   0  0  0  0  0  0  0  0  0  0  0  0
    0.5135    0.3001   -0.3676 H   0  0  0  0  0  0  0  0  0  0  0  0
    0.8227   -1.7980   -0.5794 C   0  0  0  0  0  0  0  0  0  0  0  0
    0.4686   -2.2819   -1.4966 H   0  0  0  0  0  0  0  0  0  0  0  0
    1.8222   -1.4020   -0.7921 H   0  0  0  0  0  0  0  0  0  0  0  0
    0.9440   -2.8614    0.5140 C   0  0  0  0  0  0  0  0  0  0  0  0
    1.2265   -2.4020    1.4659 H   0  0  0  0  0  0  0  0  0  0  0  0
   -0.0289   -3.3391    0.6154 H   0  0  0  0  0  0  0  0  0  0  0  0
    1.9538   -3.9448    0.1604 C   0  0  0  0  0  0  0  0  0  0  0  0
    1.7077   -4.3657   -0.8255 H   0  0  0  0  0  0  0  0  0  0  0  0
    2.9619   -3.5107    0.0905 H   0  0  0  0  0  0  0  0  0  0  0  0
    1.8707   -4.9741    1.2197 N   0  3  0  0  0  0  0  0  0  0  0  0
    0.8941   -5.2496    1.3548 H   0  0  0  0  0  0  0  0  0  0  0  0
    2.4182   -5.7972    0.9625 H   0  0  0  0  0  0  0  0  0  0  0  0
    2.2247   -4.5980    2.1011 H   0  0  0  0  0  0  0  0  0  0  0  0
   -1.1285    0.9876    1.3507 C   0  0  0  0  0  0  0  0  0  0  0  0
   -2.0128    1.5619    0.7278 O   0  0  0  0  0  0  0  0  0  0  0  0
   -0.4040    1.6843    2.3007 N   0  0  0  0  0  0  0  0  0  0  0  0
    0.2595    1.1677    2.8698 H   0  0  0  0  0  0  0  0  0  0  0  0
   -0.6688    3.0820    2.6302 C   0  0  0  0  0  0  0  0  0  0  0  0
   -1.6783    3.1960    3.0396 H   0  0  0  0  0  0  0  0  0  0  0  0
    0.0483    3.4397    3.3756 H   0  0  0  0  0  0  0  0  0  0  0  0
   -0.5792    3.7116    1.7382 H   0  0  0  0  0  0  0  0  0  0  0  0
  1  2  1  0  0  0  0
  2  3  1  0  0  0  0
  2  4  1  0  0  0  0
  2  5  1  0  0  0  0
  5  6  2  0  0  0  0
  5  7  1  0  0  0  0
  7  8  1  0  0  0  0
  7  9  1  0  0  0  0
  9 10  1  0  0  0  0
  9 11  1  0  0  0  0
  9 27  1  0  0  0  0
 11 12  1  0  0  0  0
 11 13  1  0  0  0  0
 11 14  1  0  0  0  0
 14 15  1  0  0  0  0
 14 16  1  0  0  0  0
 14 17  1  0  0  0  0
 17 18  1  0  0  0  0
 17 19  1  0  0  0  0
 17 20  1  0  0  0  0
 20 21  1  0  0  0  0
 20 22  1  0  0  0  0
 20 23  1  0  0  0  0
 23 24  1  0  0  0  0
 23 25  1  0  0  0  0
 23 26  1  0  0  0  0
 27 28  2  0  0  0  0
 27 29  1  0  0  0  0
 29 30  1  0  0  0  0
 29 31  1  0  0  0  0
 31 32  1  0  0  0  0
 31 33  1  0  0  0  0
 31 34  1  0  0  0  0
M  CHG  1  23   1
M  END
$$$$

  -OEChem-02102214153D

 34 33  0     1  0  0  0  0  0999 V2000
   -4.1267   -3.7817    2.0573 H   0  0  0  0  0  0  0  0  0  0  0  0
   -4.0055   -2.8171    1.5563 C   0  0  0  0  0  0  0  0  0  0  0  0
   -4.6251   -2.0761    2.0683 H   0  0  0  0  0  0  0  0  0  0  0  0
   -4.3466   -2.9106    0.5223 H   0  0  0  0  0  0  0  0  0  0  0  0
   -2.5522   -2.3842    1.5885 C   0  0  0  0  0  0  0  0  0  0  0  0
   -1.7218   -3.0768    2.1637 O   0  0  0  0  0  0  0  0  0  0  0  0
   -2.1895   -1.1919    0.9956 N   0  0  0  0  0  0  0  0  0  0  0  0
   -2.9528   -0.6088    0.6456 H   0  0  0  0  0  0  0  0  0  0  0  0
   -0.8691   -0.5399    1.0625 C   0  0  1  0  0  0  0  0  0  0  0  0
   -0.2662   -0.9369    1.8825 H   0  0  0  0  0  0  0  0  0  0  0  0
   -0.1113   -0.6094   -0.2974 C   0  0  0  0  0  0  0  0  0  0  0  0
   -0.8636   -0.5556   -1.0924 H   0  0  0  0  0  0  0  0  0  0  0  0
    0.5052    0.2910   -0.4012 H   0  0  0  0  0  0  0  0  0  0  0  0
    0.8188   -1.8133   -0.5997 C   0  0  0  0  0  0  0  0  0  0  0  0
    0.6697   -2.1157   -1.6424 H   0  0  0  0  0  0  0  0  0  0  0  0
    1.8542   -1.4659   -0.5102 H   0  0  0  0  0  0  0  0  0  0  0  0
    0.6501   -3.0282    0.3112 C   0  0  0  0  0  0  0  0  0  0  0  0
    0.7811   -2.7360    1.3567 H   0  0  0  0  0  0  0  0  0  0  0  0
   -0.3627   -3.4103    0.1635 H   0  0  0  0  0  0  0  0  0  0  0  0
    1.6283   -4.1491   -0.0040 C   0  0  0  0  0  0  0  0  0  0  0  0
    1.5040   -4.4643   -1.0502 H   0  0  0  0  0  0  0  0  0  0  0  0
    2.6612   -3.7903    0.1128 H   0  0  0  0  0  0  0  0  0  0  0  0
    1.3213   -5.2487    0.9364 N   0  3  0  0  0  0  0  0  0  0  0  0
    0.3207   -5.4597    0.9035 H   0  0  0  0  0  0  0  0  0  0  0  0
    1.8505   -6.0877    0.6935 H   0  0  0  0  0  0  0  0  0  0  0  0
    1.5567   -4.9665    1.8900 H   0  0  0  0  0  0  0  0  0  0  0  0
   -1.1166    0.9587    1.3504 C   0  0  0  0  0  0  0  0  0  0  0  0
   -2.0184    1.5395    0.7592 O   0  0  0  0  0  0  0  0  0  0  0  0
   -0.3724    1.6398    2.2962 N   0  0  0  0  0  0  0  0  0  0  0  0
    0.3211    1.1209    2.8263 H   0  0  0  0  0  0  0  0  0  0  0  0
   -0.6172    3.0368    2.6424 C   0  0  0  0  0  0  0  0  0  0  0  0
   -1.6160    3.1559    3.0759 H   0  0  0  0  0  0  0  0  0  0  0  0
    0.1204    3.3828    3.3733 H   0  0  0  0  0  0  0  0  0  0  0  0
   -0.5433    3.6721    1.7531 H   0  0  0  0  0  0  0  0  0  0  0  0
  1  2  1  0  0  0  0
  2  3  1  0  0  0  0
  2  4  1  0  0  0  0
  2  5  1  0  0  0  0
  5  6  2  0  0  0  0
  5  7  1  0  0  0  0
  7  8  1  0  0  0  0
  7  9  1  0  0  0  0
  9 10  1  0  0  0  0
  9 11  1  0  0  0  0
  9 27  1  0  0  0  0
 11 12  1  0  0  0  0
 11 13  1  0  0  0  0
 11 14  1  0  0  0  0
 14 15  1  0  0  0  0
 14 16  1  0  0  0  0
 14 17  1  0  0  0  0
 17 18  1  0  0  0  0
 17 19  1  0  0  0  0
 17 20  1  0  0  0  0
 20 21  1  0  0  0  0
 20 22  1  0  0  0  0
 20 23  1  0  0  0  0
 23 24  1  0  0  0  0
 23 25  1  0  0  0  0
 23 26  1  0  0  0  0
 27 28  2  0  0  0  0
 27 29  1  0  0  0  0
 29 30  1  0  0  0  0
 29 31  1  0  0  0  0
 31 32  1  0  0  0  0
 31 33  1  0  0  0  0
 31 34  1  0  0  0  0
M  CHG  1  23   1
M  END
$$$$

  -OEChem-02102214153D

 34 33  0     1  0  0  0  0  0999 V2000
   -4.1429   -3.7873    2.0600 H   0  0  0  0  0  0  0  0  0  0  0  0
   -4.0073   -2.8196    1.5691 C   0  0  0  0  0  0  0  0  0  0  0  0
   -4.6045   -2.0721    2.0981 H   0  0  0  0  0  0  0  0  0  0  0  0
   -4.3637   -2.8933    0.5388 H   0  0  0  0  0  0  0  0  0  0  0  0
   -2.5447   -2.4184    1.5874 C   0  0  0  0  0  0  0  0  0  0  0  0
   -1.7245   -3.1516    2.1233 O   0  0  0  0  0  0  0  0  0  0  0  0
   -2.1708   -1.2223    1.0077 N   0  0  0  0  0  0  0  0  0  0  0  0
   -2.9379   -0.6302    0.6816 H   0  0  0  0  0  0  0  0  0  0  0  0
   -0.8526   -0.5571    1.0534 C   0  0  1  0  0  0  0  0  0  0  0  0
   -0.2313   -0.9646    1.8562 H   0  0  0  0  0  0  0  0  0  0  0  0
   -0.1093   -0.6250   -0.3155 C   0  0  0  0  0  0  0  0  0  0  0  0
   -0.8722   -0.5935   -1.1014 H   0  0  0  0  0  0  0  0  0  0  0  0
    0.4954    0.2812   -0.4379 H   0  0  0  0  0  0  0  0  0  0  0  0
    0.8274   -1.8237   -0.6049 C   0  0  0  0  0  0  0  0  0  0  0  0
    0.8709   -1.9762   -1.6891 H   0  0  0  0  0  0  0  0  0  0  0  0
    1.8370   -1.5574   -0.2730 H   0  0  0  0  0  0  0  0  0  0  0  0
    0.4297   -3.1244    0.0823 C   0  0  0  0  0  0  0  0  0  0  0  0
    0.5066   -2.9787    1.1626 H   0  0  0  0  0  0  0  0  0  0  0  0
   -0.6054   -3.3567   -0.1867 H   0  0  0  0  0  0  0  0  0  0  0  0
    1.3116   -4.3049   -0.2910 C   0  0  0  0  0  0  0  0  0  0  0  0
    1.2688   -4.4805   -1.3757 H   0  0  0  0  0  0  0  0  0  0  0  0
    2.3569   -4.0822   -0.0322 H   0  0  0  0  0  0  0  0  0  0  0  0
    0.7948   -5.4606    0.4742 N   0  3  0  0  0  0  0  0  0  0  0  0
   -0.1155   -5.7421    0.1059 H   0  0  0  0  0  0  0  0  0  0  0  0
    1.4405   -6.2496    0.4148 H   0  0  0  0  0  0  0  0  0  0  0  0
    0.6739   -5.1958    1.4559 H   0  0  0  0  0  0  0  0  0  0  0  0
   -1.1029    0.9382    1.3546 C   0  0  0  0  0  0  0  0  0  0  0  0
   -2.0227    1.5140    0.7868 O   0  0  0  0  0  0  0  0  0  0  0  0
   -0.3447    1.6187    2.2893 N   0  0  0  0  0  0  0  0  0  0  0  0
    0.3596    1.0995    2.8051 H   0  0  0  0  0  0  0  0  0  0  0  0
   -0.5924    3.0112    2.6512 C   0  0  0  0  0  0  0  0  0  0  0  0
   -1.5863    3.1214    3.0981 H   0  0  0  0  0  0  0  0  0  0  0  0
    0.1521    3.3539    3.3767 H   0  0  0  0  0  0  0  0  0  0  0  0
   -0.5321    3.6550    1.7669 H   0  0  0  0  0  0  0  0  0  0  0  0
  1  2  1  0  0  0  0
  2  3  1  0  0  0  0
  2  4  1  0  0  0  0
  2  5  1  0  0  0  0
  5  6  2  0  0  0  0
  5  7  1  0  0  0  0
  7  8  1  0  0  0  0
  7  9  1  0  0  0  0
  9 10  1  0  0  0  0
  9 11  1  0  0  0  0
  9 27  1  0  0  0  0
 11 12  1  0  0  0  0
 11 13  1  0  0  0  0
 11 14  1  0  0  0  0
 14 15  1  0  0  0  0
 14 16  1  0  0  0  0
 14 17  1  0  0  0  0
 17 18  1  0  0  0  0
 17 19  1  0  0  0  0
 17 20  1  0  0  0  0
 20 21  1  0  0  0  0
 20 22  1  0  0  0  0
 20 23  1  0  0  0  0
 23 24  1  0  0  0  0
 23 25  1  0  0  0  0
 23 26  1  0  0  0  0
 27 28  2  0  0  0  0
 27 29  1  0  0  0  0
 29 30  1  0  0  0  0
 29 31  1  0  0  0  0
 31 32  1  0  0  0  0
 31 33  1  0  0  0  0
 31 34  1  0  0  0  0
M  CHG  1  23   1
M  END
$$$$

  -OEChem-02102214153D

 34 33  0     1  0  0  0  0  0999 V2000
   -4.1855   -3.7701    2.0490 H   0  0  0  0  0  0  0  0  0  0  0  0
   -4.0337   -2.8030    1.5614 C   0  0  0  0  0  0  0  0  0  0  0  0
   -4.6171   -2.0481    2.0952 H   0  0  0  0  0  0  0  0  0  0  0  0
   -4.3936   -2.8663    0.5315 H   0  0  0  0  0  0  0  0  0  0  0  0
   -2.5641   -2.4269    1.5792 C   0  0  0  0  0  0  0  0  0  0  0  0
   -1.7587   -3.1767    2.1097 O   0  0  0  0  0  0  0  0  0  0  0  0
   -2.1722   -1.2355    1.0034 N   0  0  0  0  0  0  0  0  0  0  0  0
   -2.9344   -0.6355    0.6804 H   0  0  0  0  0  0  0  0  0  0  0  0
   -0.8531   -0.5709    1.0554 C   0  0  1  0  0  0  0  0  0  0  0  0
   -0.2382   -0.9879    1.8593 H   0  0  0  0  0  0  0  0  0  0  0  0
   -0.0997   -0.6532   -0.3049 C   0  0  0  0  0  0  0  0  0  0  0  0
   -0.8500   -0.6240   -1.1028 H   0  0  0  0  0  0  0  0  0  0  0  0
    0.5140    0.2471   -0.4238 H   0  0  0  0  0  0  0  0  0  0  0  0
    0.8343   -1.8567   -0.5579 C   0  0  0  0  0  0  0  0  0  0  0  0
    1.0849   -1.8683   -1.6246 H   0  0  0  0  0  0  0  0  0  0  0  0
    1.7670   -1.7005   -0.0047 H   0  0  0  0  0  0  0  0  0  0  0  0
    0.2533   -3.2066   -0.1591 C   0  0  0  0  0  0  0  0  0  0  0  0
    0.2840   -3.2577    0.9299 H   0  0  0  0  0  0  0  0  0  0  0  0
   -0.7839   -3.2785   -0.5031 H   0  0  0  0  0  0  0  0  0  0  0  0
    1.0529   -4.3836   -0.6971 C   0  0  0  0  0  0  0  0  0  0  0  0
    1.0214   -4.3896   -1.7963 H   0  0  0  0  0  0  0  0  0  0  0  0
    2.1057   -4.2786   -0.3971 H   0  0  0  0  0  0  0  0  0  0  0  0
    0.4476   -5.6048   -0.1223 N   0  3  0  0  0  0  0  0  0  0  0  0
   -0.4573   -5.7848   -0.5600 H   0  0  0  0  0  0  0  0  0  0  0  0
    1.0580   -6.4104   -0.2696 H   0  0  0  0  0  0  0  0  0  0  0  0
    0.3000   -5.4738    0.8827 H   0  0  0  0  0  0  0  0  0  0  0  0
   -1.0968    0.9265    1.3495 C   0  0  0  0  0  0  0  0  0  0  0  0
   -2.0094    1.5041    0.7719 O   0  0  0  0  0  0  0  0  0  0  0  0
   -0.3406    1.6072    2.2857 N   0  0  0  0  0  0  0  0  0  0  0  0
    0.3562    1.0854    2.8094 H   0  0  0  0  0  0  0  0  0  0  0  0
   -0.5874    3.0010    2.6439 C   0  0  0  0  0  0  0  0  0  0  0  0
   -1.5816    3.1132    3.0896 H   0  0  0  0  0  0  0  0  0  0  0  0
    0.1570    3.3448    3.3689 H   0  0  0  0  0  0  0  0  0  0  0  0
   -0.5258    3.6432    1.7586 H   0  0  0  0  0  0  0  0  0  0  0  0
  1  2  1  0  0  0  0
  2  3  1  0  0  0  0
  2  4  1  0  0  0  0
  2  5  1  0  0  0  0
  5  6  2  0  0  0  0
  5  7  1  0  0  0  0
  7  8  1  0  0  0  0
  7  9  1  0  0  0  0
  9 10  1  0  0  0  0
  9 11  1  0  0  0  0
  9 27  1  0  0  0  0
 11 12  1  0  0  0  0
 11 13  1  0  0  0  0
 11 14  1  0  0  0  0
 14 15  1  0  0  0  0
 14 16  1  0  0  0  0
 14 17  1  0  0  0  0
 17 18  1  0  0  0  0
 17 19  1  0  0  0  0
 17 20  1  0  0  0  0
 20 21  1  0  0  0  0
 20 22  1  0  0  0  0
 20 23  1  0  0  0  0
 23 24  1  0  0  0  0
 23 25  1  0  0  0  0
 23 26  1  0  0  0  0
 27 28  2  0  0  0  0
 27 29  1  0  0  0  0
 29 30  1  0  0  0  0
 29 31  1  0  0  0  0
 31 32  1  0  0  0  0
 31 33  1  0  0  0  0
 31 34  1  0  0  0  0
M  CHG  1  23   1
M  END
$$$$

  -OEChem-02102214153D

 34 33  0     1  0  0  0  0  0999 V2000
   -4.1998   -3.7540    2.0674 H   0  0  0  0  0  0  0  0  0  0  0  0
   -4.0550   -2.7929    1.5664 C   0  0  0  0  0  0  0  0  0  0  0  0
   -4.6470   -2.0353    2.0864 H   0  0  0  0  0  0  0  0  0  0  0  0
   -4.4088   -2.8740    0.5360 H   0  0  0  0  0  0  0  0  0  0  0  0
   -2.5890   -2.4044    1.5858 C   0  0  0  0  0  0  0  0  0  0  0  0
   -1.7794   -3.1248    2.1474 O   0  0  0  0  0  0  0  0  0  0  0  0
   -2.1965   -1.2223    0.9947 N   0  0  0  0  0  0  0  0  0  0  0  0
   -2.9512   -0.6152    0.6681 H   0  0  0  0  0  0  0  0  0  0  0  0
   -0.8677   -0.5844    1.0573 C   0  0  1  0  0  0  0  0  0  0  0  0
   -0.2670   -1.0091    1.8682 H   0  0  0  0  0  0  0  0  0  0  0  0
   -0.1045   -0.6842   -0.2922 C   0  0  0  0  0  0  0  0  0  0  0  0
   -0.8339   -0.6251   -1.1079 H   0  0  0  0  0  0  0  0  0  0  0  0
    0.5426    0.1954   -0.3890 H   0  0  0  0  0  0  0  0  0  0  0  0
    0.8006   -1.9115   -0.5165 C   0  0  0  0  0  0  0  0  0  0  0  0
    1.2665   -1.7970   -1.5017 H   0  0  0  0  0  0  0  0  0  0  0  0
    1.6048   -1.9038    0.2274 H   0  0  0  0  0  0  0  0  0  0  0  0
    0.0825   -3.2586   -0.4616 C   0  0  0  0  0  0  0  0  0  0  0  0
   -0.0668   -3.5169    0.5846 H   0  0  0  0  0  0  0  0  0  0  0  0
   -0.8923   -3.1867   -0.9563 H   0  0  0  0  0  0  0  0  0  0  0  0
    0.9156   -4.3622   -1.1016 C   0  0  0  0  0  0  0  0  0  0  0  0
    1.0164   -4.1726   -2.1802 H   0  0  0  0  0  0  0  0  0  0  0  0
    1.9273   -4.3493   -0.6704 H   0  0  0  0  0  0  0  0  0  0  0  0
    0.2403   -5.6497   -0.8326 N   0  3  0  0  0  0  0  0  0  0  0  0
   -0.6562   -5.6822   -1.3208 H   0  0  0  0  0  0  0  0  0  0  0  0
    0.8216   -6.4288   -1.1476 H   0  0  0  0  0  0  0  0  0  0  0  0
    0.0697   -5.7448    0.1722 H   0  0  0  0  0  0  0  0  0  0  0  0
   -1.0860    0.9191    1.3387 C   0  0  0  0  0  0  0  0  0  0  0  0
   -1.9791    1.5121    0.7459 O   0  0  0  0  0  0  0  0  0  0  0  0
   -0.3266    1.5892    2.2795 N   0  0  0  0  0  0  0  0  0  0  0  0
    0.3497    1.0544    2.8170 H   0  0  0  0  0  0  0  0  0  0  0  0
   -0.5528    2.9874    2.6318 C   0  0  0  0  0  0  0  0  0  0  0  0
   -1.5520    3.1180    3.0609 H   0  0  0  0  0  0  0  0  0  0  0  0
    0.1861    3.3181    3.3684 H   0  0  0  0  0  0  0  0  0  0  0  0
   -0.4648    3.6262    1.7464 H   0  0  0  0  0  0  0  0  0  0  0  0
  1  2  1  0  0  0  0
  2  3  1  0  0  0  0
  2  4  1  0  0  0  0
  2  5  1  0  0  0  0
  5  6  2  0  0  0  0
  5  7  1  0  0  0  0
  7  8  1  0  0  0  0
  7  9  1  0  0  0  0
  9 10  1  0  0  0  0
  9 11  1  0  0  0  0
  9 27  1  0  0  0  0
 11 12  1  0  0  0  0
 11 13  1  0  0  0  0
 11 14  1  0  0  0  0
 14 15  1  0  0  0  0
 14 16  1  0  0  0  0
 14 17  1  0  0  0  0
 17 18  1  0  0  0  0
 17 19  1  0  0  0  0
 17 20  1  0  0  0  0
 20 21  1  0  0  0  0
 20 22  1  0  0  0  0
 20 23  1  0  0  0  0
 23 24  1  0  0  0  0
 23 25  1  0  0  0  0
 23 26  1  0  0  0  0
 27 28  2  0  0  0  0
 27 29  1  0  0  0  0
 29 30  1  0  0  0  0
 29 31  1  0  0  0  0
 31 32  1  0  0  0  0
 31 33  1  0  0  0  0
 31 34  1  0  0  0  0
M  CHG  1  23   1
M  END
$$$$

  -OEChem-02102214153D

 34 33  0     1  0  0  0  0  0999 V2000
   -4.1795   -4.0067    1.4006 H   0  0  0  0  0  0  0  0  0  0  0  0
   -4.0674   -2.9564    1.1173 C   0  0  0  0  0  0  0  0  0  0  0  0
   -4.5714   -2.3368    1.8639 H   0  0  0  0  0  0  0  0  0  0  0  0
   -4.5453   -2.7997    0.1469 H   0  0  0  0  0  0  0  0  0  0  0  0
   -2.6001   -2.5821    1.0412 C   0  0  0  0  0  0  0  0  0  0  0  0
   -1.7314   -3.4164    1.2812 O   0  0  0  0  0  0  0  0  0  0  0  0
   -2.2338   -1.3050    0.6744 N   0  0  0  0  0  0  0  0  0  0  0  0
   -2.9904   -0.6235    0.5718 H   0  0  0  0  0  0  0  0  0  0  0  0
   -0.8793   -0.7373    0.7811 C   0  0  1  0  0  0  0  0  0  0  0  0
   -0.2608   -1.3289    1.4620 H   0  0  0  0  0  0  0  0  0  0  0  0
   -0.1653   -0.5787   -0.5886 C   0  0  0  0  0  0  0  0  0  0  0  0
   -0.9043   -0.3197   -1.3553 H   0  0  0  0  0  0  0  0  0  0  0  0
    0.5268    0.2688   -0.5212 H   0  0  0  0  0  0  0  0  0  0  0  0
    0.6673   -1.7893   -1.0571 C   0  0  0  0  0  0  0  0  0  0  0  0
    1.3407   -1.4667   -1.8595 H   0  0  0  0  0  0  0  0  0  0  0  0
    1.2975   -2.1100   -0.2225 H   0  0  0  0  0  0  0  0  0  0  0  0
   -0.1781   -2.9669   -1.5790 C   0  0  0  0  0  0  0  0  0  0  0  0
   -1.1765   -2.9647   -1.1465 H   0  0  0  0  0  0  0  0  0  0  0  0
   -0.3200   -2.8252   -2.6563 H   0  0  0  0  0  0  0  0  0  0  0  0
    0.4794   -4.3301   -1.3509 C   0  0  0  0  0  0  0  0  0  0  0  0
   -0.0765   -5.0833   -1.9280 H   0  0  0  0  0  0  0  0  0  0  0  0
    1.5060   -4.3160   -1.7444 H   0  0  0  0  0  0  0  0  0  0  0  0
    0.4543   -4.6653    0.0898 N   0  3  0  0  0  0  0  0  0  0  0  0
    0.4990   -5.6755    0.2246 H   0  0  0  0  0  0  0  0  0  0  0  0
    1.2370   -4.2275    0.5719 H   0  0  0  0  0  0  0  0  0  0  0  0
   -0.4208   -4.3155    0.5134 H   0  0  0  0  0  0  0  0  0  0  0  0
   -1.0248    0.6788    1.3859 C   0  0  0  0  0  0  0  0  0  0  0  0
   -1.9479    1.3914    1.0134 O   0  0  0  0  0  0  0  0  0  0  0  0
   -0.1897    1.1193    2.3964 N   0  0  0  0  0  0  0  0  0  0  0  0
    0.5321    0.4909    2.7354 H   0  0  0  0  0  0  0  0  0  0  0  0
   -0.3483    2.4171    3.0465 C   0  0  0  0  0  0  0  0  0  0  0  0
   -1.3104    2.4703    3.5671 H   0  0  0  0  0  0  0  0  0  0  0  0
    0.4497    2.5764    3.7784 H   0  0  0  0  0  0  0  0  0  0  0  0
   -0.3036    3.2255    2.3087 H   0  0  0  0  0  0  0  0  0  0  0  0
  1  2  1  0  0  0  0
  2  3  1  0  0  0  0
  2  4  1  0  0  0  0
  2  5  1  0  0  0  0
  5  6  2  0  0  0  0
  5  7  1  0  0  0  0
  7  8  1  0  0  0  0
  7  9  1  0  0  0  0
  9 10  1  0  0  0  0
  9 11  1  0  0  0  0
  9 27  1  0  0  0  0
 11 12  1  0  0  0  0
 11 13  1  0  0  0  0
 11 14  1  0  0  0  0
 14 15  1  0  0  0  0
 14 16  1  0  0  0  0
 14 17  1  0  0  0  0
 17 18  1  0  0  0  0
 17 19  1  0  0  0  0
 17 20  1  0  0  0  0
 20 21  1  0  0  0  0
 20 22  1  0  0  0  0
 20 23  1  0  0  0  0
 23 24  1  0  0  0  0
 23 25  1  0  0  0  0
 23 26  1  0  0  0  0
 27 28  2  0  0  0  0
 27 29  1  0  0  0  0
 29 30  1  0  0  0  0
 29 31  1  0  0  0  0
 31 32  1  0  0  0  0
 31 33  1  0  0  0  0
 31 34  1  0  0  0  0
M  CHG  1  23   1
M  END
$$$$

  -OEChem-02102214153D

 34 33  0     1  0  0  0  0  0999 V2000
   -4.0663   -4.0421    1.2369 H   0  0  0  0  0  0  0  0  0  0  0  0
   -3.9820   -2.9822    0.9817 C   0  0  0  0  0  0  0  0  0  0  0  0
   -4.4828   -2.3952    1.7564 H   0  0  0  0  0  0  0  0  0  0  0  0
   -4.4840   -2.8078    0.0265 H   0  0  0  0  0  0  0  0  0  0  0  0
   -2.5246   -2.5744    0.8860 C   0  0  0  0  0  0  0  0  0  0  0  0
   -1.6340   -3.4072    1.0338 O   0  0  0  0  0  0  0  0  0  0  0  0
   -2.1936   -1.2783    0.5568 N   0  0  0  0  0  0  0  0  0  0  0  0
   -2.9677   -0.6118    0.4955 H   0  0  0  0  0  0  0  0  0  0  0  0
   -0.8601   -0.6775    0.7219 C   0  0  1  0  0  0  0  0  0  0  0  0
   -0.2547   -1.2659    1.4183 H   0  0  0  0  0  0  0  0  0  0  0  0
   -0.1334   -0.5337   -0.6368 C   0  0  0  0  0  0  0  0  0  0  0  0
   -0.8504   -0.2943   -1.4302 H   0  0  0  0  0  0  0  0  0  0  0  0
    0.5541    0.3172   -0.5686 H   0  0  0  0  0  0  0  0  0  0  0  0
    0.7105   -1.7665   -1.0112 C   0  0  0  0  0  0  0  0  0  0  0  0
    1.5598   -1.4450   -1.6249 H   0  0  0  0  0  0  0  0  0  0  0  0
    1.1237   -2.2103   -0.1008 H   0  0  0  0  0  0  0  0  0  0  0  0
   -0.1049   -2.7961   -1.8160 C   0  0  0  0  0  0  0  0  0  0  0  0
   -1.1392   -2.8322   -1.4678 H   0  0  0  0  0  0  0  0  0  0  0  0
   -0.1417   -2.4672   -2.8605 H   0  0  0  0  0  0  0  0  0  0  0  0
    0.4947   -4.2026   -1.7583 C   0  0  0  0  0  0  0  0  0  0  0  0
   -0.0439   -4.8392   -2.4752 H   0  0  0  0  0  0  0  0  0  0  0  0
    1.5451   -4.1704   -2.0818 H   0  0  0  0  0  0  0  0  0  0  0  0
    0.3659   -4.7440   -0.3864 N   0  3  0  0  0  0  0  0  0  0  0  0
    0.2360   -5.7554   -0.4088 H   0  0  0  0  0  0  0  0  0  0  0  0
    1.1955   -4.5255    0.1628 H   0  0  0  0  0  0  0  0  0  0  0  0
   -0.4500   -4.3177    0.0829 H   0  0  0  0  0  0  0  0  0  0  0  0
   -1.0383    0.7238    1.3489 C   0  0  0  0  0  0  0  0  0  0  0  0
   -1.9698    1.4237    0.9740 O   0  0  0  0  0  0  0  0  0  0  0  0
   -0.2381    1.1569    2.3903 N   0  0  0  0  0  0  0  0  0  0  0  0
    0.4997    0.5428    2.7218 H   0  0  0  0  0  0  0  0  0  0  0  0
   -0.4298    2.4430    3.0547 C   0  0  0  0  0  0  0  0  0  0  0  0
   -1.4094    2.4803    3.5433 H   0  0  0  0  0  0  0  0  0  0  0  0
    0.3415    2.5974    3.8157 H   0  0  0  0  0  0  0  0  0  0  0  0
   -0.3673    3.2631    2.3310 H   0  0  0  0  0  0  0  0  0  0  0  0
  1  2  1  0  0  0  0
  2  3  1  0  0  0  0
  2  4  1  0  0  0  0
  2  5  1  0  0  0  0
  5  6  2  0  0  0  0
  5  7  1  0  0  0  0
  7  8  1  0  0  0  0
  7  9  1  0  0  0  0
  9 10  1  0  0  0  0
  9 11  1  0  0  0  0
  9 27  1  0  0  0  0
 11 12  1  0  0  0  0
 11 13  1  0  0  0  0
 11 14  1  0  0  0  0
 14 15  1  0  0  0  0
 14 16  1  0  0  0  0
 14 17  1  0  0  0  0
 17 18  1  0  0  0  0
 17 19  1  0  0  0  0
 17 20  1  0  0  0  0
 20 21  1  0  0  0  0
 20 22  1  0  0  0  0
 20 23  1  0  0  0  0
 23 24  1  0  0  0  0
 23 25  1  0  0  0  0
 23 26  1  0  0  0  0
 27 28  2  0  0  0  0
 27 29  1  0  0  0  0
 29 30  1  0  0  0  0
 29 31  1  0  0  0  0
 31 32  1  0  0  0  0
 31 33  1  0  0  0  0
 31 34  1  0  0  0  0
M  CHG  1  23   1
M  END
$$$$

  -OEChem-02102214153D

 34 33  0     1  0  0  0  0  0999 V2000
   -3.8611   -4.1175    1.1558 H   0  0  0  0  0  0  0  0  0  0  0  0
   -3.8333   -3.0478    0.9315 C   0  0  0  0  0  0  0  0  0  0  0  0
   -4.3176   -2.5065    1.7487 H   0  0  0  0  0  0  0  0  0  0  0  0
   -4.3893   -2.8653    0.0085 H   0  0  0  0  0  0  0  0  0  0  0  0
   -2.4007   -2.5761    0.7775 C   0  0  0  0  0  0  0  0  0  0  0  0
   -1.4719   -3.3793    0.8148 O   0  0  0  0  0  0  0  0  0  0  0  0
   -2.1379   -1.2586    0.4768 N   0  0  0  0  0  0  0  0  0  0  0  0
   -2.9416   -0.6253    0.4740 H   0  0  0  0  0  0  0  0  0  0  0  0
   -0.8344   -0.6071    0.6767 C   0  0  1  0  0  0  0  0  0  0  0  0
   -0.2200   -1.1795    1.3784 H   0  0  0  0  0  0  0  0  0  0  0  0
   -0.1215   -0.4686   -0.6839 C   0  0  0  0  0  0  0  0  0  0  0  0
   -0.8455   -0.2670   -1.4817 H   0  0  0  0  0  0  0  0  0  0  0  0
    0.5422    0.4022   -0.6372 H   0  0  0  0  0  0  0  0  0  0  0  0
    0.7507   -1.6989   -1.0028 C   0  0  0  0  0  0  0  0  0  0  0  0
    1.7172   -1.3603   -1.3929 H   0  0  0  0  0  0  0  0  0  0  0  0
    0.9591   -2.2666   -0.0911 H   0  0  0  0  0  0  0  0  0  0  0  0
    0.0818   -2.5887   -2.0646 C   0  0  0  0  0  0  0  0  0  0  0  0
   -0.9939   -2.6728   -1.8754 H   0  0  0  0  0  0  0  0  0  0  0  0
    0.2004   -2.1156   -3.0457 H   0  0  0  0  0  0  0  0  0  0  0  0
    0.7038   -3.9847   -2.0969 C   0  0  0  0  0  0  0  0  0  0  0  0
    0.4192   -4.4821   -3.0353 H   0  0  0  0  0  0  0  0  0  0  0  0
    1.7994   -3.8930   -2.0999 H   0  0  0  0  0  0  0  0  0  0  0  0
    0.2255   -4.7611   -0.9300 N   0  3  0  0  0  0  0  0  0  0  0  0
   -0.4268   -5.4858   -1.2289 H   0  0  0  0  0  0  0  0  0  0  0  0
    1.0069   -5.1962   -0.4405 H   0  0  0  0  0  0  0  0  0  0  0  0
   -0.2711   -4.1397   -0.2705 H   0  0  0  0  0  0  0  0  0  0  0  0
   -1.0601    0.7749    1.3285 C   0  0  0  0  0  0  0  0  0  0  0  0
   -2.0125    1.4497    0.9606 O   0  0  0  0  0  0  0  0  0  0  0  0
   -0.2849    1.2112    2.3872 N   0  0  0  0  0  0  0  0  0  0  0  0
    0.4737    0.6169    2.7083 H   0  0  0  0  0  0  0  0  0  0  0  0
   -0.5162    2.4818    3.0688 C   0  0  0  0  0  0  0  0  0  0  0  0
   -1.5057    2.4920    3.5386 H   0  0  0  0  0  0  0  0  0  0  0  0
    0.2368    2.6385    3.8474 H   0  0  0  0  0  0  0  0  0  0  0  0
   -0.4562    3.3148    2.3599 H   0  0  0  0  0  0  0  0  0  0  0  0
  1  2  1  0  0  0  0
  2  3  1  0  0  0  0
  2  4  1  0  0  0  0
  2  5  1  0  0  0  0
  5  6  2  0  0  0  0
  5  7  1  0  0  0  0
  7  8  1  0  0  0  0
  7  9  1  0  0  0  0
  9 10  1  0  0  0  0
  9 11  1  0  0  0  0
  9 27  1  0  0  0  0
 11 12  1  0  0  0  0
 11 13  1  0  0  0  0
 11 14  1  0  0  0  0
 14 15  1  0  0  0  0
 14 16  1  0  0  0  0
 14 17  1  0  0  0  0
 17 18  1  0  0  0  0
 17 19  1  0  0  0  0
 17 20  1  0  0  0  0
 20 21  1  0  0  0  0
 20 22  1  0  0  0  0
 20 23  1  0  0  0  0
 23 24  1  0  0  0  0
 23 25  1  0  0  0  0
 23 26  1  0  0  0  0
 27 28  2  0  0  0  0
 27 29  1  0  0  0  0
 29 30  1  0  0  0  0
 29 31  1  0  0  0  0
 31 32  1  0  0  0  0
 31 33  1  0  0  0  0
 31 34  1  0  0  0  0
M  CHG  1  23   1
M  END
$$$$

  -OEChem-02102214153D

 34 33  0     1  0  0  0  0  0999 V2000
   -3.6736   -4.0657    1.7854 H   0  0  0  0  0  0  0  0  0  0  0  0
   -3.7076   -3.0255    1.4491 C   0  0  0  0  0  0  0  0  0  0  0  0
   -4.1788   -2.4212    2.2285 H   0  0  0  0  0  0  0  0  0  0  0  0
   -4.3112   -2.9673    0.5402 H   0  0  0  0  0  0  0  0  0  0  0  0
   -2.3055   -2.5156    1.1772 C   0  0  0  0  0  0  0  0  0  0  0  0
   -1.3476   -3.2706    1.2641 O   0  0  0  0  0  0  0  0  0  0  0  0
   -2.1164   -1.2237    0.7355 N   0  0  0  0  0  0  0  0  0  0  0  0
   -2.9475   -0.6297    0.7152 H   0  0  0  0  0  0  0  0  0  0  0  0
   -0.8349   -0.5032    0.8068 C   0  0  1  0  0  0  0  0  0  0  0  0
   -0.1660   -0.9814    1.5298 H   0  0  0  0  0  0  0  0  0  0  0  0
   -0.1967   -0.5020   -0.5959 C   0  0  0  0  0  0  0  0  0  0  0  0
   -0.9763   -0.4373   -1.3632 H   0  0  0  0  0  0  0  0  0  0  0  0
    0.4234    0.3953   -0.7023 H   0  0  0  0  0  0  0  0  0  0  0  0
    0.7099   -1.7330   -0.8043 C   0  0  0  0  0  0  0  0  0  0  0  0
    1.7322   -1.3941   -1.0059 H   0  0  0  0  0  0  0  0  0  0  0  0
    0.7512   -2.3439    0.1027 H   0  0  0  0  0  0  0  0  0  0  0  0
    0.2210   -2.5892   -1.9761 C   0  0  0  0  0  0  0  0  0  0  0  0
   -0.8511   -2.7800   -1.8528 H   0  0  0  0  0  0  0  0  0  0  0  0
    0.3683   -2.0519   -2.9192 H   0  0  0  0  0  0  0  0  0  0  0  0
    0.9726   -3.9170   -1.9846 C   0  0  0  0  0  0  0  0  0  0  0  0
    2.0410   -3.7306   -2.1660 H   0  0  0  0  0  0  0  0  0  0  0  0
    0.8864   -4.3805   -0.9898 H   0  0  0  0  0  0  0  0  0  0  0  0
    0.3917   -4.7927   -3.0239 N   0  3  0  0  0  0  0  0  0  0  0  0
    0.4574   -4.3423   -3.9381 H   0  0  0  0  0  0  0  0  0  0  0  0
    0.8924   -5.6831   -3.0528 H   0  0  0  0  0  0  0  0  0  0  0  0
   -0.5916   -4.9726   -2.8113 H   0  0  0  0  0  0  0  0  0  0  0  0
   -1.0748    0.9291    1.3275 C   0  0  0  0  0  0  0  0  0  0  0  0
   -2.0525    1.5478    0.9276 O   0  0  0  0  0  0  0  0  0  0  0  0
   -0.2613    1.4882    2.2955 N   0  0  0  0  0  0  0  0  0  0  0  0
    0.5005    0.9262    2.6647 H   0  0  0  0  0  0  0  0  0  0  0  0
   -0.5080    2.8039    2.8776 C   0  0  0  0  0  0  0  0  0  0  0  0
   -1.4798    2.8240    3.3827 H   0  0  0  0  0  0  0  0  0  0  0  0
    0.2674    3.0468    3.6109 H   0  0  0  0  0  0  0  0  0  0  0  0
   -0.5006    3.5763    2.1009 H   0  0  0  0  0  0  0  0  0  0  0  0
  1  2  1  0  0  0  0
  2  3  1  0  0  0  0
  2  4  1  0  0  0  0
  2  5  1  0  0  0  0
  5  6  2  0  0  0  0
  5  7  1  0  0  0  0
  7  8  1  0  0  0  0
  7  9  1  0  0  0  0
  9 10  1  0  0  0  0
  9 11  1  0  0  0  0
  9 27  1  0  0  0  0
 11 12  1  0  0  0  0
 11 13  1  0  0  0  0
 11 14  1  0  0  0  0
 14 15  1  0  0  0  0
 14 16  1  0  0  0  0
 14 17  1  0  0  0  0
 17 18  1  0  0  0  0
 17 19  1  0  0  0  0
 17 20  1  0  0  0  0
 20 21  1  0  0  0  0
 20 22  1  0  0  0  0
 20 23  1  0  0  0  0
 23 24  1  0  0  0  0
 23 25  1  0  0  0  0
 23 26  1  0  0  0  0
 27 28  2  0  0  0  0
 27 29  1  0  0  0  0
 29 30  1  0  0  0  0
 29 31  1  0  0  0  0
 31 32  1  0  0  0  0
 31 33  1  0  0  0  0
 31 34  1  0  0  0  0
M  CHG  1  23   1
M  END
$$$$

  -OEChem-02102214153D

 34 33  0     1  0  0  0  0  0999 V2000
   -3.7699   -4.0081    1.8956 H   0  0  0  0  0  0  0  0  0  0  0  0
   -3.7779   -2.9986    1.4746 C   0  0  0  0  0  0  0  0  0  0  0  0
   -4.3111   -2.3375    2.1626 H   0  0  0  0  0  0  0  0  0  0  0  0
   -4.3067   -3.0187    0.5187 H   0  0  0  0  0  0  0  0  0  0  0  0
   -2.3586   -2.5019    1.2746 C   0  0  0  0  0  0  0  0  0  0  0  0
   -1.4113   -3.2425    1.4898 O   0  0  0  0  0  0  0  0  0  0  0  0
   -2.1369   -1.2268    0.7987 N   0  0  0  0  0  0  0  0  0  0  0  0
   -2.9592   -0.6279    0.7082 H   0  0  0  0  0  0  0  0  0  0  0  0
   -0.8430   -0.5265    0.8514 C   0  0  1  0  0  0  0  0  0  0  0  0
   -0.1727   -1.0023    1.5752 H   0  0  0  0  0  0  0  0  0  0  0  0
   -0.2076   -0.5383   -0.5536 C   0  0  0  0  0  0  0  0  0  0  0  0
   -1.0037   -0.4851   -1.3048 H   0  0  0  0  0  0  0  0  0  0  0  0
    0.4114    0.3561   -0.6863 H   0  0  0  0  0  0  0  0  0  0  0  0
    0.6829   -1.7769   -0.7721 C   0  0  0  0  0  0  0  0  0  0  0  0
    1.7351   -1.4843   -0.6847 H   0  0  0  0  0  0  0  0  0  0  0  0
    0.4919   -2.5244    0.0029 H   0  0  0  0  0  0  0  0  0  0  0  0
    0.4245   -2.4169   -2.1392 C   0  0  0  0  0  0  0  0  0  0  0  0
   -0.6417   -2.6554   -2.2276 H   0  0  0  0  0  0  0  0  0  0  0  0
    0.6853   -1.7095   -2.9343 H   0  0  0  0  0  0  0  0  0  0  0  0
    1.2492   -3.6946   -2.2689 C   0  0  0  0  0  0  0  0  0  0  0  0
    2.3185   -3.4450   -2.2057 H   0  0  0  0  0  0  0  0  0  0  0  0
    1.0198   -4.3559   -1.4195 H   0  0  0  0  0  0  0  0  0  0  0  0
    0.9250   -4.3510   -3.5535 N   0  3  0  0  0  0  0  0  0  0  0  0
    1.1356   -3.7222   -4.3306 H   0  0  0  0  0  0  0  0  0  0  0  0
    1.4741   -5.2068   -3.6588 H   0  0  0  0  0  0  0  0  0  0  0  0
   -0.0683   -4.5895   -3.5792 H   0  0  0  0  0  0  0  0  0  0  0  0
   -1.0656    0.9222    1.3326 C   0  0  0  0  0  0  0  0  0  0  0  0
   -2.0155    1.5548    0.8891 O   0  0  0  0  0  0  0  0  0  0  0  0
   -0.2466    1.4956    2.2875 N   0  0  0  0  0  0  0  0  0  0  0  0
    0.4816    0.9193    2.7001 H   0  0  0  0  0  0  0  0  0  0  0  0
   -0.4758    2.8311    2.8304 C   0  0  0  0  0  0  0  0  0  0  0  0
   -1.4489    2.8803    3.3308 H   0  0  0  0  0  0  0  0  0  0  0  0
    0.3004    3.0836    3.5595 H   0  0  0  0  0  0  0  0  0  0  0  0
   -0.4539    3.5797    2.0310 H   0  0  0  0  0  0  0  0  0  0  0  0
  1  2  1  0  0  0  0
  2  3  1  0  0  0  0
  2  4  1  0  0  0  0
  2  5  1  0  0  0  0
  5  6  2  0  0  0  0
  5  7  1  0  0  0  0
  7  8  1  0  0  0  0
  7  9  1  0  0  0  0
  9 10  1  0  0  0  0
  9 11  1  0  0  0  0
  9 27  1  0  0  0  0
 11 12  1  0  0  0  0
 11 13  1  0  0  0  0
 11 14  1  0  0  0  0
 14 15  1  0  0  0  0
 14 16  1  0  0  0  0
 14 17  1  0  0  0  0
 17 18  1  0  0  0  0
 17 19  1  0  0  0  0
 17 20  1  0  0  0  0
 20 21  1  0  0  0  0
 20 22  1  0  0  0  0
 20 23  1  0  0  0  0
 23 24  1  0  0  0  0
 23 25  1  0  0  0  0
 23 26  1  0  0  0  0
 27 28  2  0  0  0  0
 27 29  1  0  0  0  0
 29 30  1  0  0  0  0
 29 31  1  0  0  0  0
 31 32  1  0  0  0  0
 31 33  1  0  0  0  0
 31 34  1  0  0  0  0
M  CHG  1  23   1
M  END
$$$$

  -OEChem-02102214153D

 34 33  0     1  0  0  0  0  0999 V2000
   -3.7845   -4.0111    1.9004 H   0  0  0  0  0  0  0  0  0  0  0  0
   -3.7901   -3.0079    1.4649 C   0  0  0  0  0  0  0  0  0  0  0  0
   -4.3519   -2.3427    2.1256 H   0  0  0  0  0  0  0  0  0  0  0  0
   -4.2870   -3.0476    0.4927 H   0  0  0  0  0  0  0  0  0  0  0  0
   -2.3701   -2.5001    1.3032 C   0  0  0  0  0  0  0  0  0  0  0  0
   -1.4239   -3.2231    1.5746 O   0  0  0  0  0  0  0  0  0  0  0  0
   -2.1445   -1.2290    0.8178 N   0  0  0  0  0  0  0  0  0  0  0  0
   -2.9662   -0.6351    0.6957 H   0  0  0  0  0  0  0  0  0  0  0  0
   -0.8476   -0.5337    0.8636 C   0  0  1  0  0  0  0  0  0  0  0  0
   -0.1740   -1.0113    1.5836 H   0  0  0  0  0  0  0  0  0  0  0  0
   -0.2140   -0.5427   -0.5428 C   0  0  0  0  0  0  0  0  0  0  0  0
   -1.0159   -0.4987   -1.2880 H   0  0  0  0  0  0  0  0  0  0  0  0
    0.4028    0.3519   -0.6838 H   0  0  0  0  0  0  0  0  0  0  0  0
    0.6708   -1.7815   -0.7648 C   0  0  0  0  0  0  0  0  0  0  0  0
    1.6852   -1.5727   -0.4078 H   0  0  0  0  0  0  0  0  0  0  0  0
    0.2849   -2.6226   -0.1818 H   0  0  0  0  0  0  0  0  0  0  0  0
    0.6900   -2.1930   -2.2402 C   0  0  0  0  0  0  0  0  0  0  0  0
   -0.3359   -2.3780   -2.5774 H   0  0  0  0  0  0  0  0  0  0  0  0
    1.1064   -1.3785   -2.8433 H   0  0  0  0  0  0  0  0  0  0  0  0
    1.5251   -3.4601   -2.4083 C   0  0  0  0  0  0  0  0  0  0  0  0
    2.5584   -3.2592   -2.0895 H   0  0  0  0  0  0  0  0  0  0  0  0
    1.1285   -4.2424   -1.7436 H   0  0  0  0  0  0  0  0  0  0  0  0
    1.4736   -3.8887   -3.8226 N   0  3  0  0  0  0  0  0  0  0  0  0
    1.8353   -3.1477   -4.4260 H   0  0  0  0  0  0  0  0  0  0  0  0
    2.0377   -4.7310   -3.9552 H   0  0  0  0  0  0  0  0  0  0  0  0
    0.5080   -4.0914   -4.0889 H   0  0  0  0  0  0  0  0  0  0  0  0
   -1.0639    0.9190    1.3359 C   0  0  0  0  0  0  0  0  0  0  0  0
   -1.9989    1.5608    0.8742 O   0  0  0  0  0  0  0  0  0  0  0  0
   -0.2407    1.4944    2.2859 N   0  0  0  0  0  0  0  0  0  0  0  0
    0.4689    0.9093    2.7177 H   0  0  0  0  0  0  0  0  0  0  0  0
   -0.4556    2.8387    2.8128 C   0  0  0  0  0  0  0  0  0  0  0  0
   -1.4234    2.9017    3.3218 H   0  0  0  0  0  0  0  0  0  0  0  0
    0.3296    3.0954    3.5306 H   0  0  0  0  0  0  0  0  0  0  0  0
   -0.4357    3.5766    2.0036 H   0  0  0  0  0  0  0  0  0  0  0  0
  1  2  1  0  0  0  0
  2  3  1  0  0  0  0
  2  4  1  0  0  0  0
  2  5  1  0  0  0  0
  5  6  2  0  0  0  0
  5  7  1  0  0  0  0
  7  8  1  0  0  0  0
  7  9  1  0  0  0  0
  9 10  1  0  0  0  0
  9 11  1  0  0  0  0
  9 27  1  0  0  0  0
 11 12  1  0  0  0  0
 11 13  1  0  0  0  0
 11 14  1  0  0  0  0
 14 15  1  0  0  0  0
 14 16  1  0  0  0  0
 14 17  1  0  0  0  0
 17 18  1  0  0  0  0
 17 19  1  0  0  0  0
 17 20  1  0  0  0  0
 20 21  1  0  0  0  0
 20 22  1  0  0  0  0
 20 23  1  0  0  0  0
 23 24  1  0  0  0  0
 23 25  1  0  0  0  0
 23 26  1  0  0  0  0
 27 28  2  0  0  0  0
 27 29  1  0  0  0  0
 29 30  1  0  0  0  0
 29 31  1  0  0  0  0
 31 32  1  0  0  0  0
 31 33  1  0  0  0  0
 31 34  1  0  0  0  0
M  CHG  1  23   1
M  END
$$$$

  -OEChem-02102214153D

 34 33  0     1  0  0  0  0  0999 V2000
   -3.7601   -4.0238    1.8798 H   0  0  0  0  0  0  0  0  0  0  0  0
   -3.7742   -3.0166    1.4540 C   0  0  0  0  0  0  0  0  0  0  0  0
   -4.3424   -2.3628    2.1204 H   0  0  0  0  0  0  0  0  0  0  0  0
   -4.2705   -3.0519    0.4813 H   0  0  0  0  0  0  0  0  0  0  0  0
   -2.3588   -2.4941    1.2977 C   0  0  0  0  0  0  0  0  0  0  0  0
   -1.4050   -3.2046    1.5773 O   0  0  0  0  0  0  0  0  0  0  0  0
   -2.1420   -1.2210    0.8129 N   0  0  0  0  0  0  0  0  0  0  0  0
   -2.9658   -0.6312    0.6863 H   0  0  0  0  0  0  0  0  0  0  0  0
   -0.8458   -0.5258    0.8571 C   0  0  1  0  0  0  0  0  0  0  0  0
   -0.1690   -1.0053    1.5724 H   0  0  0  0  0  0  0  0  0  0  0  0
   -0.2189   -0.5309   -0.5515 C   0  0  0  0  0  0  0  0  0  0  0  0
   -1.0176   -0.4867   -1.3004 H   0  0  0  0  0  0  0  0  0  0  0  0
    0.4020    0.3619   -0.6866 H   0  0  0  0  0  0  0  0  0  0  0  0
    0.6598   -1.7719   -0.7687 C   0  0  0  0  0  0  0  0  0  0  0  0
    1.5838   -1.6733   -0.1884 H   0  0  0  0  0  0  0  0  0  0  0  0
    0.1320   -2.6595   -0.4065 H   0  0  0  0  0  0  0  0  0  0  0  0
    0.9768   -1.9679   -2.2542 C   0  0  0  0  0  0  0  0  0  0  0  0
    0.0403   -2.0491   -2.8174 H   0  0  0  0  0  0  0  0  0  0  0  0
    1.5262   -1.0973   -2.6291 H   0  0  0  0  0  0  0  0  0  0  0  0
    1.8055   -3.2367   -2.4391 C   0  0  0  0  0  0  0  0  0  0  0  0
    2.7478   -3.1380   -1.8803 H   0  0  0  0  0  0  0  0  0  0  0  0
    1.2606   -4.0886   -2.0053 H   0  0  0  0  0  0  0  0  0  0  0  0
    2.0567   -3.4456   -3.8814 N   0  3  0  0  0  0  0  0  0  0  0  0
    2.5615   -2.6459   -4.2681 H   0  0  0  0  0  0  0  0  0  0  0  0
    2.6148   -4.2905   -4.0216 H   0  0  0  0  0  0  0  0  0  0  0  0
    1.1692   -3.5488   -4.3773 H   0  0  0  0  0  0  0  0  0  0  0  0
   -1.0617    0.9254    1.3341 C   0  0  0  0  0  0  0  0  0  0  0  0
   -1.9946    1.5706    0.8731 O   0  0  0  0  0  0  0  0  0  0  0  0
   -0.2360    1.4979    2.2840 N   0  0  0  0  0  0  0  0  0  0  0  0
    0.4656    0.9072    2.7213 H   0  0  0  0  0  0  0  0  0  0  0  0
   -0.4572    2.8365    2.8228 C   0  0  0  0  0  0  0  0  0  0  0  0
   -1.4250    2.8909    3.3328 H   0  0  0  0  0  0  0  0  0  0  0  0
    0.3272    3.0908    3.5426 H   0  0  0  0  0  0  0  0  0  0  0  0
   -0.4416    3.5814    2.0200 H   0  0  0  0  0  0  0  0  0  0  0  0
  1  2  1  0  0  0  0
  2  3  1  0  0  0  0
  2  4  1  0  0  0  0
  2  5  1  0  0  0  0
  5  6  2  0  0  0  0
  5  7  1  0  0  0  0
  7  8  1  0  0  0  0
  7  9  1  0  0  0  0
  9 10  1  0  0  0  0
  9 11  1  0  0  0  0
  9 27  1  0  0  0  0
 11 12  1  0  0  0  0
 11 13  1  0  0  0  0
 11 14  1  0  0  0  0
 14 15  1  0  0  0  0
 14 16  1  0  0  0  0
 14 17  1  0  0  0  0
 17 18  1  0  0  0  0
 17 19  1  0  0  0  0
 17 20  1  0  0  0  0
 20 21  1  0  0  0  0
 20 22  1  0  0  0  0
 20 23  1  0  0  0  0
 23 24  1  0  0  0  0
 23 25  1  0  0  0  0
 23 26  1  0  0  0  0
 27 28  2  0  0  0  0
 27 29  1  0  0  0  0
 29 30  1  0  0  0  0
 29 31  1  0  0  0  0
 31 32  1  0  0  0  0
 31 33  1  0  0  0  0
 31 34  1  0  0  0  0
M  CHG  1  23   1
M  END
$$$$

  -OEChem-02102214153D

 34 33  0     1  0  0  0  0  0999 V2000
   -3.7624   -4.0202    1.9051 H   0  0  0  0  0  0  0  0  0  0  0  0
   -3.7831   -3.0182    1.4674 C   0  0  0  0  0  0  0  0  0  0  0  0
   -4.3437   -2.3567    2.1326 H   0  0  0  0  0  0  0  0  0  0  0  0
   -4.2904   -3.0652    0.5009 H   0  0  0  0  0  0  0  0  0  0  0  0
   -2.3704   -2.4967    1.2886 C   0  0  0  0  0  0  0  0  0  0  0  0
   -1.4116   -3.2119    1.5388 O   0  0  0  0  0  0  0  0  0  0  0  0
   -2.1598   -1.2219    0.8052 N   0  0  0  0  0  0  0  0  0  0  0  0
   -2.9847   -0.6302    0.6956 H   0  0  0  0  0  0  0  0  0  0  0  0
   -0.8632   -0.5273    0.8512 C   0  0  1  0  0  0  0  0  0  0  0  0
   -0.1909   -1.0134    1.5666 H   0  0  0  0  0  0  0  0  0  0  0  0
   -0.2236   -0.5335   -0.5494 C   0  0  0  0  0  0  0  0  0  0  0  0
   -0.9707   -0.2300   -1.2912 H   0  0  0  0  0  0  0  0  0  0  0  0
    0.5873    0.2024   -0.5767 H   0  0  0  0  0  0  0  0  0  0  0  0
    0.3470   -1.9145   -0.9040 C   0  0  0  0  0  0  0  0  0  0  0  0
    1.0916   -2.2062   -0.1547 H   0  0  0  0  0  0  0  0  0  0  0  0
   -0.4574   -2.6571   -0.8814 H   0  0  0  0  0  0  0  0  0  0  0  0
    0.9803   -1.9081   -2.2981 C   0  0  0  0  0  0  0  0  0  0  0  0
    0.2297   -1.6036   -3.0361 H   0  0  0  0  0  0  0  0  0  0  0  0
    1.8003   -1.1820   -2.3261 H   0  0  0  0  0  0  0  0  0  0  0  0
    1.5014   -3.3054   -2.6257 C   0  0  0  0  0  0  0  0  0  0  0  0
    2.2589   -3.5919   -1.8813 H   0  0  0  0  0  0  0  0  0  0  0  0
    0.6757   -4.0272   -2.5386 H   0  0  0  0  0  0  0  0  0  0  0  0
    2.0670   -3.3048   -3.9920 N   0  3  0  0  0  0  0  0  0  0  0  0
    2.8267   -2.6247   -4.0552 H   0  0  0  0  0  0  0  0  0  0  0  0
    2.4312   -4.2321   -4.2214 H   0  0  0  0  0  0  0  0  0  0  0  0
    1.3427   -3.0565   -4.6686 H   0  0  0  0  0  0  0  0  0  0  0  0
   -1.0659    0.9246    1.3306 C   0  0  0  0  0  0  0  0  0  0  0  0
   -1.9962    1.5772    0.8751 O   0  0  0  0  0  0  0  0  0  0  0  0
   -0.2329    1.4886    2.2791 N   0  0  0  0  0  0  0  0  0  0  0  0
    0.4690    0.8930    2.7095 H   0  0  0  0  0  0  0  0  0  0  0  0
   -0.4385    2.8294    2.8184 C   0  0  0  0  0  0  0  0  0  0  0  0
   -1.4032    2.8929    3.3332 H   0  0  0  0  0  0  0  0  0  0  0  0
    0.3517    3.0761    3.5342 H   0  0  0  0  0  0  0  0  0  0  0  0
   -0.4192    3.5742    2.0156 H   0  0  0  0  0  0  0  0  0  0  0  0
  1  2  1  0  0  0  0
  2  3  1  0  0  0  0
  2  4  1  0  0  0  0
  2  5  1  0  0  0  0
  5  6  2  0  0  0  0
  5  7  1  0  0  0  0
  7  8  1  0  0  0  0
  7  9  1  0  0  0  0
  9 10  1  0  0  0  0
  9 11  1  0  0  0  0
  9 27  1  0  0  0  0
 11 12  1  0  0  0  0
 11 13  1  0  0  0  0
 11 14  1  0  0  0  0
 14 15  1  0  0  0  0
 14 16  1  0  0  0  0
 14 17  1  0  0  0  0
 17 18  1  0  0  0  0
 17 19  1  0  0  0  0
 17 20  1  0  0  0  0
 20 21  1  0  0  0  0
 20 22  1  0  0  0  0
 20 23  1  0  0  0  0
 23 24  1  0  0  0  0
 23 25  1  0  0  0  0
 23 26  1  0  0  0  0
 27 28  2  0  0  0  0
 27 29  1  0  0  0  0
 29 30  1  0  0  0  0
 29 31  1  0  0  0  0
 31 32  1  0  0  0  0
 31 33  1  0  0  0  0
 31 34  1  0  0  0  0
M  CHG  1  23   1
M  END
$$$$

  -OEChem-02102214153D

 34 33  0     1  0  0  0  0  0999 V2000
   -3.7186   -4.0382    1.8668 H   0  0  0  0  0  0  0  0  0  0  0  0
   -3.7496   -3.0316    1.4402 C   0  0  0  0  0  0  0  0  0  0  0  0
   -4.3157   -2.3834    2.1137 H   0  0  0  0  0  0  0  0  0  0  0  0
   -4.2592   -3.0736    0.4747 H   0  0  0  0  0  0  0  0  0  0  0  0
   -2.3425   -2.4932    1.2636 C   0  0  0  0  0  0  0  0  0  0  0  0
   -1.3751   -3.2014    1.5012 O   0  0  0  0  0  0  0  0  0  0  0  0
   -2.1447   -1.2116    0.7927 N   0  0  0  0  0  0  0  0  0  0  0  0
   -2.9753   -0.6274    0.6872 H   0  0  0  0  0  0  0  0  0  0  0  0
   -0.8547   -0.5065    0.8462 C   0  0  1  0  0  0  0  0  0  0  0  0
   -0.1787   -0.9913    1.5585 H   0  0  0  0  0  0  0  0  0  0  0  0
   -0.2248   -0.5079   -0.5582 C   0  0  0  0  0  0  0  0  0  0  0  0
   -0.9655   -0.2009   -1.3052 H   0  0  0  0  0  0  0  0  0  0  0  0
    0.5854    0.2290   -0.5748 H   0  0  0  0  0  0  0  0  0  0  0  0
    0.3490   -1.8894   -0.9097 C   0  0  0  0  0  0  0  0  0  0  0  0
    0.9049   -2.2836   -0.0514 H   0  0  0  0  0  0  0  0  0  0  0  0
   -0.4767   -2.5798   -1.1148 H   0  0  0  0  0  0  0  0  0  0  0  0
    1.2852   -1.8166   -2.1190 C   0  0  0  0  0  0  0  0  0  0  0  0
    0.7398   -1.4034   -2.9749 H   0  0  0  0  0  0  0  0  0  0  0  0
    2.1261   -1.1508   -1.8955 H   0  0  0  0  0  0  0  0  0  0  0  0
    1.7960   -3.2174   -2.4472 C   0  0  0  0  0  0  0  0  0  0  0  0
    2.3360   -3.6175   -1.5763 H   0  0  0  0  0  0  0  0  0  0  0  0
    0.9373   -3.8814   -2.6258 H   0  0  0  0  0  0  0  0  0  0  0  0
    2.6726   -3.1499   -3.6363 N   0  3  0  0  0  0  0  0  0  0  0  0
    3.4624   -2.5282   -3.4531 H   0  0  0  0  0  0  0  0  0  0  0  0
    3.0285   -4.0812   -3.8624 H   0  0  0  0  0  0  0  0  0  0  0  0
    2.1475   -2.7923   -4.4367 H   0  0  0  0  0  0  0  0  0  0  0  0
   -1.0669    0.9394    1.3392 C   0  0  0  0  0  0  0  0  0  0  0  0
   -2.0000    1.5909    0.8882 O   0  0  0  0  0  0  0  0  0  0  0  0
   -0.2380    1.5007    2.2931 N   0  0  0  0  0  0  0  0  0  0  0  0
    0.4623    0.9039    2.7240 H   0  0  0  0  0  0  0  0  0  0  0  0
   -0.4559    2.8341    2.8457 C   0  0  0  0  0  0  0  0  0  0  0  0
   -1.4240    2.8857    3.3554 H   0  0  0  0  0  0  0  0  0  0  0  0
    0.3287    3.0798    3.5683 H   0  0  0  0  0  0  0  0  0  0  0  0
   -0.4383    3.5870    2.0505 H   0  0  0  0  0  0  0  0  0  0  0  0
  1  2  1  0  0  0  0
  2  3  1  0  0  0  0
  2  4  1  0  0  0  0
  2  5  1  0  0  0  0
  5  6  2  0  0  0  0
  5  7  1  0  0  0  0
  7  8  1  0  0  0  0
  7  9  1  0  0  0  0
  9 10  1  0  0  0  0
  9 11  1  0  0  0  0
  9 27  1  0  0  0  0
 11 12  1  0  0  0  0
 11 13  1  0  0  0  0
 11 14  1  0  0  0  0
 14 15  1  0  0  0  0
 14 16  1  0  0  0  0
 14 17  1  0  0  0  0
 17 18  1  0  0  0  0
 17 19  1  0  0  0  0
 17 20  1  0  0  0  0
 20 21  1  0  0  0  0
 20 22  1  0  0  0  0
 20 23  1  0  0  0  0
 23 24  1  0  0  0  0
 23 25  1  0  0  0  0
 23 26  1  0  0  0  0
 27 28  2  0  0  0  0
 27 29  1  0  0  0  0
 29 30  1  0  0  0  0
 29 31  1  0  0  0  0
 31 32  1  0  0  0  0
 31 33  1  0  0  0  0
 31 34  1  0  0  0  0
M  CHG  1  23   1
M  END
$$$$

  -OEChem-02102214153D

 34 33  0     1  0  0  0  0  0999 V2000
   -3.7033   -4.0444    1.8530 H   0  0  0  0  0  0  0  0  0  0  0  0
   -3.7355   -3.0398    1.4222 C   0  0  0  0  0  0  0  0  0  0  0  0
   -4.3191   -2.3939    2.0828 H   0  0  0  0  0  0  0  0  0  0  0  0
   -4.2260   -3.0891    0.4472 H   0  0  0  0  0  0  0  0  0  0  0  0
   -2.3300   -2.4913    1.2691 C   0  0  0  0  0  0  0  0  0  0  0  0
   -1.3620   -3.1911    1.5283 O   0  0  0  0  0  0  0  0  0  0  0  0
   -2.1344   -1.2096    0.7981 N   0  0  0  0  0  0  0  0  0  0  0  0
   -2.9673   -0.6330    0.6713 H   0  0  0  0  0  0  0  0  0  0  0  0
   -0.8487   -0.4975    0.8559 C   0  0  1  0  0  0  0  0  0  0  0  0
   -0.1714   -0.9773    1.5702 H   0  0  0  0  0  0  0  0  0  0  0  0
   -0.2235   -0.5002   -0.5508 C   0  0  0  0  0  0  0  0  0  0  0  0
   -0.9633   -0.1935   -1.2988 H   0  0  0  0  0  0  0  0  0  0  0  0
    0.5806    0.2434   -0.5641 H   0  0  0  0  0  0  0  0  0  0  0  0
    0.3580   -1.8795   -0.9090 C   0  0  0  0  0  0  0  0  0  0  0  0
    0.7000   -2.3834    0.0018 H   0  0  0  0  0  0  0  0  0  0  0  0
   -0.4331   -2.4980   -1.3477 H   0  0  0  0  0  0  0  0  0  0  0  0
    1.5498   -1.7648   -1.8641 C   0  0  0  0  0  0  0  0  0  0  0  0
    1.2353   -1.2442   -2.7756 H   0  0  0  0  0  0  0  0  0  0  0  0
    2.3454   -1.1780   -1.3918 H   0  0  0  0  0  0  0  0  0  0  0  0
    2.0601   -3.1632   -2.2049 C   0  0  0  0  0  0  0  0  0  0  0  0
    2.3603   -3.6733   -1.2776 H   0  0  0  0  0  0  0  0  0  0  0  0
    1.2388   -3.7498   -2.6426 H   0  0  0  0  0  0  0  0  0  0  0  0
    3.1962   -3.0529   -3.1454 N   0  3  0  0  0  0  0  0  0  0  0  0
    3.9461   -2.5015   -2.7242 H   0  0  0  0  0  0  0  0  0  0  0  0
    3.5553   -3.9829   -3.3718 H   0  0  0  0  0  0  0  0  0  0  0  0
    2.8922   -2.5960   -4.0073 H   0  0  0  0  0  0  0  0  0  0  0  0
   -1.0682    0.9483    1.3460 C   0  0  0  0  0  0  0  0  0  0  0  0
   -1.9990    1.5981    0.8882 O   0  0  0  0  0  0  0  0  0  0  0  0
   -0.2438    1.5128    2.3021 N   0  0  0  0  0  0  0  0  0  0  0  0
    0.4486    0.9148    2.7437 H   0  0  0  0  0  0  0  0  0  0  0  0
   -0.4686    2.8457    2.8532 C   0  0  0  0  0  0  0  0  0  0  0  0
   -1.4392    2.8944    3.3587 H   0  0  0  0  0  0  0  0  0  0  0  0
    0.3116    3.0928    3.5798 H   0  0  0  0  0  0  0  0  0  0  0  0
   -0.4488    3.5993    2.0584 H   0  0  0  0  0  0  0  0  0  0  0  0
  1  2  1  0  0  0  0
  2  3  1  0  0  0  0
  2  4  1  0  0  0  0
  2  5  1  0  0  0  0
  5  6  2  0  0  0  0
  5  7  1  0  0  0  0
  7  8  1  0  0  0  0
  7  9  1  0  0  0  0
  9 10  1  0  0  0  0
  9 11  1  0  0  0  0
  9 27  1  0  0  0  0
 11 12  1  0  0  0  0
 11 13  1  0  0  0  0
 11 14  1  0  0  0  0
 14 15  1  0  0  0  0
 14 16  1  0  0  0  0
 14 17  1  0  0  0  0
 17 18  1  0  0  0  0
 17 19  1  0  0  0  0
 17 20  1  0  0  0  0
 20 21  1  0  0  0  0
 20 22  1  0  0  0  0
 20 23  1  0  0  0  0
 23 24  1  0  0  0  0
 23 25  1  0  0  0  0
 23 26  1  0  0  0  0
 27 28  2  0  0  0  0
 27 29  1  0  0  0  0
 29 30  1  0  0  0  0
 29 31  1  0  0  0  0
 31 32  1  0  0  0  0
 31 33  1  0  0  0  0
 31 34  1  0  0  0  0
M  CHG  1  23   1
M  END
$$$$

  -OEChem-02102214153D

 34 33  0     1  0  0  0  0  0999 V2000
   -3.7227   -4.0493    1.8458 H   0  0  0  0  0  0  0  0  0  0  0  0
   -3.7426   -3.0460    1.4107 C   0  0  0  0  0  0  0  0  0  0  0  0
   -4.3498   -2.3994    2.0492 H   0  0  0  0  0  0  0  0  0  0  0  0
   -4.1998   -3.1003    0.4198 H   0  0  0  0  0  0  0  0  0  0  0  0
   -2.3344   -2.4936    1.3029 C   0  0  0  0  0  0  0  0  0  0  0  0
   -1.3764   -3.1827    1.6200 O   0  0  0  0  0  0  0  0  0  0  0  0
   -2.1277   -1.2163    0.8239 N   0  0  0  0  0  0  0  0  0  0  0  0
   -2.9576   -0.6459    0.6561 H   0  0  0  0  0  0  0  0  0  0  0  0
   -0.8418   -0.5039    0.8776 C   0  0  1  0  0  0  0  0  0  0  0  0
   -0.1602   -0.9795    1.5908 H   0  0  0  0  0  0  0  0  0  0  0  0
   -0.2191   -0.5011   -0.5319 C   0  0  0  0  0  0  0  0  0  0  0  0
   -0.9653   -0.1946   -1.2735 H   0  0  0  0  0  0  0  0  0  0  0  0
    0.5763    0.2520   -0.5485 H   0  0  0  0  0  0  0  0  0  0  0  0
    0.3689   -1.8743   -0.9128 C   0  0  0  0  0  0  0  0  0  0  0  0
    0.4696   -2.4980   -0.0187 H   0  0  0  0  0  0  0  0  0  0  0  0
   -0.3272   -2.3845   -1.5880 H   0  0  0  0  0  0  0  0  0  0  0  0
    1.7530   -1.7516   -1.5583 C   0  0  0  0  0  0  0  0  0  0  0  0
    1.6788   -1.1365   -2.4620 H   0  0  0  0  0  0  0  0  0  0  0  0
    2.4404   -1.2576   -0.8628 H   0  0  0  0  0  0  0  0  0  0  0  0
    2.2731   -3.1447   -1.9075 C   0  0  0  0  0  0  0  0  0  0  0  0
    2.3210   -3.7510   -0.9904 H   0  0  0  0  0  0  0  0  0  0  0  0
    1.5576   -3.6378   -2.5821 H   0  0  0  0  0  0  0  0  0  0  0  0
    3.6051   -3.0269   -2.5390 N   0  3  0  0  0  0  0  0  0  0  0  0
    4.2539   -2.5620   -1.9013 H   0  0  0  0  0  0  0  0  0  0  0  0
    3.9696   -3.9552   -2.7640 H   0  0  0  0  0  0  0  0  0  0  0  0
    3.5362   -2.4802   -3.3996 H   0  0  0  0  0  0  0  0  0  0  0  0
   -1.0673    0.9450    1.3561 C   0  0  0  0  0  0  0  0  0  0  0  0
   -1.9911    1.5929    0.8816 O   0  0  0  0  0  0  0  0  0  0  0  0
   -0.2471    1.5192    2.3099 N   0  0  0  0  0  0  0  0  0  0  0  0
    0.4322    0.9214    2.7716 H   0  0  0  0  0  0  0  0  0  0  0  0
   -0.4725    2.8597    2.8426 C   0  0  0  0  0  0  0  0  0  0  0  0
   -1.4430    2.9144    3.3478 H   0  0  0  0  0  0  0  0  0  0  0  0
    0.3083    3.1183    3.5648 H   0  0  0  0  0  0  0  0  0  0  0  0
   -0.4541    3.6020    2.0372 H   0  0  0  0  0  0  0  0  0  0  0  0
  1  2  1  0  0  0  0
  2  3  1  0  0  0  0
  2  4  1  0  0  0  0
  2  5  1  0  0  0  0
  5  6  2  0  0  0  0
  5  7  1  0  0  0  0
  7  8  1  0  0  0  0
  7  9  1  0  0  0  0
  9 10  1  0  0  0  0
  9 11  1  0  0  0  0
  9 27  1  0  0  0  0
 11 12  1  0  0  0  0
 11 13  1  0  0  0  0
 11 14  1  0  0  0  0
 14 15  1  0  0  0  0
 14 16  1  0  0  0  0
 14 17  1  0  0  0  0
 17 18  1  0  0  0  0
 17 19  1  0  0  0  0
 17 20  1  0  0  0  0
 20 21  1  0  0  0  0
 20 22  1  0  0  0  0
 20 23  1  0  0  0  0
 23 24  1  0  0  0  0
 23 25  1  0  0  0  0
 23 26  1  0  0  0  0
 27 28  2  0  0  0  0
 27 29  1  0  0  0  0
 29 30  1  0  0  0  0
 29 31  1  0  0  0  0
 31 32  1  0  0  0  0
 31 33  1  0  0  0  0
 31 34  1  0  0  0  0
M  CHG  1  23   1
M  END
$$$$

  -OEChem-02102214153D

 34 33  0     1  0  0  0  0  0999 V2000
   -3.7369   -4.0536    1.8440 H   0  0  0  0  0  0  0  0  0  0  0  0
   -3.7479   -3.0497    1.4102 C   0  0  0  0  0  0  0  0  0  0  0  0
   -4.3722   -2.4050    2.0340 H   0  0  0  0  0  0  0  0  0  0  0  0
   -4.1807   -3.1036    0.4083 H   0  0  0  0  0  0  0  0  0  0  0  0
   -2.3382   -2.4946    1.3384 C   0  0  0  0  0  0  0  0  0  0  0  0
   -1.3896   -3.1719    1.7061 O   0  0  0  0  0  0  0  0  0  0  0  0
   -2.1220   -1.2228    0.8488 N   0  0  0  0  0  0  0  0  0  0  0  0
   -2.9482   -0.6578    0.6481 H   0  0  0  0  0  0  0  0  0  0  0  0
   -0.8343   -0.5121    0.8937 C   0  0  1  0  0  0  0  0  0  0  0  0
   -0.1489   -0.9855    1.6043 H   0  0  0  0  0  0  0  0  0  0  0  0
   -0.2115   -0.4996   -0.5173 C   0  0  0  0  0  0  0  0  0  0  0  0
   -0.9747   -0.2017   -1.2454 H   0  0  0  0  0  0  0  0  0  0  0  0
    0.5714    0.2661   -0.5496 H   0  0  0  0  0  0  0  0  0  0  0  0
    0.3822   -1.8635   -0.9233 C   0  0  0  0  0  0  0  0  0  0  0  0
    0.2258   -2.5978   -0.1288 H   0  0  0  0  0  0  0  0  0  0  0  0
   -0.1510   -2.2280   -1.8083 H   0  0  0  0  0  0  0  0  0  0  0  0
    1.8827   -1.7785   -1.2217 C   0  0  0  0  0  0  0  0  0  0  0  0
    2.0515   -1.0904   -2.0577 H   0  0  0  0  0  0  0  0  0  0  0  0
    2.4078   -1.3874   -0.3432 H   0  0  0  0  0  0  0  0  0  0  0  0
    2.4073   -3.1708   -1.5670 C   0  0  0  0  0  0  0  0  0  0  0  0
    2.1999   -3.8509   -0.7272 H   0  0  0  0  0  0  0  0  0  0  0  0
    1.8577   -3.5578   -2.4377 H   0  0  0  0  0  0  0  0  0  0  0  0
    3.8581   -3.0944   -1.8434 N   0  3  0  0  0  0  0  0  0  0  0  0
    4.3510   -2.7356   -1.0235 H   0  0  0  0  0  0  0  0  0  0  0  0
    4.2213   -4.0235   -2.0677 H   0  0  0  0  0  0  0  0  0  0  0  0
    4.0309   -2.4710   -2.6343 H   0  0  0  0  0  0  0  0  0  0  0  0
   -1.0639    0.9405    1.3600 C   0  0  0  0  0  0  0  0  0  0  0  0
   -1.9884    1.5830    0.8795 O   0  0  0  0  0  0  0  0  0  0  0  0
   -0.2454    1.5257    2.3088 N   0  0  0  0  0  0  0  0  0  0  0  0
    0.4299    0.9320    2.7813 H   0  0  0  0  0  0  0  0  0  0  0  0
   -0.4814    2.8676    2.8329 C   0  0  0  0  0  0  0  0  0  0  0  0
   -1.4522    2.9178    3.3378 H   0  0  0  0  0  0  0  0  0  0  0  0
    0.2972    3.1371    3.5532 H   0  0  0  0  0  0  0  0  0  0  0  0
   -0.4695    3.6046    2.0226 H   0  0  0  0  0  0  0  0  0  0  0  0
  1  2  1  0  0  0  0
  2  3  1  0  0  0  0
  2  4  1  0  0  0  0
  2  5  1  0  0  0  0
  5  6  2  0  0  0  0
  5  7  1  0  0  0  0
  7  8  1  0  0  0  0
  7  9  1  0  0  0  0
  9 10  1  0  0  0  0
  9 11  1  0  0  0  0
  9 27  1  0  0  0  0
 11 12  1  0  0  0  0
 11 13  1  0  0  0  0
 11 14  1  0  0  0  0
 14 15  1  0  0  0  0
 14 16  1  0  0  0  0
 14 17  1  0  0  0  0
 17 18  1  0  0  0  0
 17 19  1  0  0  0  0
 17 20  1  0  0  0  0
 20 21  1  0  0  0  0
 20 22  1  0  0  0  0
 20 23  1  0  0  0  0
 23 24  1  0  0  0  0
 23 25  1  0  0  0  0
 23 26  1  0  0  0  0
 27 28  2  0  0  0  0
 27 29  1  0  0  0  0
 29 30  1  0  0  0  0
 29 31  1  0  0  0  0
 31 32  1  0  0  0  0
 31 33  1  0  0  0  0
 31 34  1  0  0  0  0
M  CHG  1  23   1
M  END
$$$$

  -OEChem-02102214153D

 34 33  0     1  0  0  0  0  0999 V2000
   -3.7069   -4.0690    1.8569 H   0  0  0  0  0  0  0  0  0  0  0  0
   -3.7266   -3.0672    1.4184 C   0  0  0  0  0  0  0  0  0  0  0  0
   -4.3571   -2.4254    2.0389 H   0  0  0  0  0  0  0  0  0  0  0  0
   -4.1582   -3.1294    0.4166 H   0  0  0  0  0  0  0  0  0  0  0  0
   -2.3222   -2.4989    1.3445 C   0  0  0  0  0  0  0  0  0  0  0  0
   -1.3667   -3.1652    1.7171 O   0  0  0  0  0  0  0  0  0  0  0  0
   -2.1168   -1.2257    0.8528 N   0  0  0  0  0  0  0  0  0  0  0  0
   -2.9465   -0.6668    0.6483 H   0  0  0  0  0  0  0  0  0  0  0  0
   -0.8315   -0.5099    0.8918 C   0  0  1  0  0  0  0  0  0  0  0  0
   -0.1411   -0.9803    1.5995 H   0  0  0  0  0  0  0  0  0  0  0  0
   -0.2050   -0.4827   -0.5181 C   0  0  0  0  0  0  0  0  0  0  0  0
   -0.9820   -0.1993   -1.2373 H   0  0  0  0  0  0  0  0  0  0  0  0
    0.5661    0.2941   -0.5643 H   0  0  0  0  0  0  0  0  0  0  0  0
    0.3966   -1.8385   -0.9341 C   0  0  0  0  0  0  0  0  0  0  0  0
   -0.0020   -2.6448   -0.3142 H   0  0  0  0  0  0  0  0  0  0  0  0
    0.0895   -2.0484   -1.9647 H   0  0  0  0  0  0  0  0  0  0  0  0
    1.9268   -1.8401   -0.8681 C   0  0  0  0  0  0  0  0  0  0  0  0
    2.3283   -1.1086   -1.5780 H   0  0  0  0  0  0  0  0  0  0  0  0
    2.2464   -1.5527    0.1395 H   0  0  0  0  0  0  0  0  0  0  0  0
    2.4387   -3.2412   -1.1963 C   0  0  0  0  0  0  0  0  0  0  0  0
    1.9880   -3.9591   -0.4943 H   0  0  0  0  0  0  0  0  0  0  0  0
    2.1019   -3.5221   -2.2052 H   0  0  0  0  0  0  0  0  0  0  0  0
    3.9141   -3.2624   -1.1014 N   0  3  0  0  0  0  0  0  0  0  0  0
    4.2055   -3.0091   -0.1555 H   0  0  0  0  0  0  0  0  0  0  0  0
    4.2649   -4.1985   -1.3162 H   0  0  0  0  0  0  0  0  0  0  0  0
    4.3171   -2.5968   -1.7635 H   0  0  0  0  0  0  0  0  0  0  0  0
   -1.0692    0.9411    1.3603 C   0  0  0  0  0  0  0  0  0  0  0  0
   -1.9987    1.5787    0.8831 O   0  0  0  0  0  0  0  0  0  0  0  0
   -0.2506    1.5307    2.3064 N   0  0  0  0  0  0  0  0  0  0  0  0
    0.4287    0.9408    2.7774 H   0  0  0  0  0  0  0  0  0  0  0  0
   -0.4893    2.8731    2.8285 C   0  0  0  0  0  0  0  0  0  0  0  0
   -1.4599    2.9219    3.3341 H   0  0  0  0  0  0  0  0  0  0  0  0
    0.2894    3.1459    3.5476 H   0  0  0  0  0  0  0  0  0  0  0  0
   -0.4797    3.6086    2.0167 H   0  0  0  0  0  0  0  0  0  0  0  0
  1  2  1  0  0  0  0
  2  3  1  0  0  0  0
  2  4  1  0  0  0  0
  2  5  1  0  0  0  0
  5  6  2  0  0  0  0
  5  7  1  0  0  0  0
  7  8  1  0  0  0  0
  7  9  1  0  0  0  0
  9 10  1  0  0  0  0
  9 11  1  0  0  0  0
  9 27  1  0  0  0  0
 11 12  1  0  0  0  0
 11 13  1  0  0  0  0
 11 14  1  0  0  0  0
 14 15  1  0  0  0  0
 14 16  1  0  0  0  0
 14 17  1  0  0  0  0
 17 18  1  0  0  0  0
 17 19  1  0  0  0  0
 17 20  1  0  0  0  0
 20 21  1  0  0  0  0
 20 22  1  0  0  0  0
 20 23  1  0  0  0  0
 23 24  1  0  0  0  0
 23 25  1  0  0  0  0
 23 26  1  0  0  0  0
 27 28  2  0  0  0  0
 27 29  1  0  0  0  0
 29 30  1  0  0  0  0
 29 31  1  0  0  0  0
 31 32  1  0  0  0  0
 31 33  1  0  0  0  0
 31 34  1  0  0  0  0
M  CHG  1  23   1
M  END
$$$$

  -OEChem-02102214153D

 34 33  0     1  0  0  0  0  0999 V2000
   -3.6408   -4.0901    1.8620 H   0  0  0  0  0  0  0  0  0  0  0  0
   -3.6788   -3.0858    1.4308 C   0  0  0  0  0  0  0  0  0  0  0  0
   -4.3082   -2.4557    2.0643 H   0  0  0  0  0  0  0  0  0  0  0  0
   -4.1239   -3.1464    0.4346 H   0  0  0  0  0  0  0  0  0  0  0  0
   -2.2828   -2.5003    1.3400 C   0  0  0  0  0  0  0  0  0  0  0  0
   -1.3105   -3.1587    1.6860 O   0  0  0  0  0  0  0  0  0  0  0  0
   -2.0995   -1.2238    0.8485 N   0  0  0  0  0  0  0  0  0  0  0  0
   -2.9372   -0.6704    0.6618 H   0  0  0  0  0  0  0  0  0  0  0  0
   -0.8205   -0.4981    0.8835 C   0  0  1  0  0  0  0  0  0  0  0  0
   -0.1262   -0.9623    1.5905 H   0  0  0  0  0  0  0  0  0  0  0  0
   -0.1956   -0.4632   -0.5269 C   0  0  0  0  0  0  0  0  0  0  0  0
   -0.9780   -0.1890   -1.2438 H   0  0  0  0  0  0  0  0  0  0  0  0
    0.5717    0.3170   -0.5791 H   0  0  0  0  0  0  0  0  0  0  0  0
    0.4140   -1.8142   -0.9411 C   0  0  0  0  0  0  0  0  0  0  0  0
   -0.1717   -2.6402   -0.5296 H   0  0  0  0  0  0  0  0  0  0  0  0
    0.3509   -1.8953   -2.0320 H   0  0  0  0  0  0  0  0  0  0  0  0
    1.8853   -1.9415   -0.5336 C   0  0  0  0  0  0  0  0  0  0  0  0
    2.4874   -1.2053   -1.0775 H   0  0  0  0  0  0  0  0  0  0  0  0
    1.9833   -1.7406    0.5385 H   0  0  0  0  0  0  0  0  0  0  0  0
    2.3658   -3.3589   -0.8380 C   0  0  0  0  0  0  0  0  0  0  0  0
    1.7006   -4.0763   -0.3334 H   0  0  0  0  0  0  0  0  0  0  0  0
    2.2817   -3.5457   -1.9187 H   0  0  0  0  0  0  0  0  0  0  0  0
    3.7606   -3.5172   -0.3735 N   0  3  0  0  0  0  0  0  0  0  0  0
    3.8081   -3.3731    0.6371 H   0  0  0  0  0  0  0  0  0  0  0  0
    4.0963   -4.4587   -0.5888 H   0  0  0  0  0  0  0  0  0  0  0  0
    4.3641   -2.8353   -0.8363 H   0  0  0  0  0  0  0  0  0  0  0  0
   -1.0724    0.9490    1.3573 C   0  0  0  0  0  0  0  0  0  0  0  0
   -2.0210    1.5714    0.8984 O   0  0  0  0  0  0  0  0  0  0  0  0
   -0.2582    1.5470    2.3018 N   0  0  0  0  0  0  0  0  0  0  0  0
    0.4430    0.9715    2.7575 H   0  0  0  0  0  0  0  0  0  0  0  0
   -0.5155    2.8836    2.8300 C   0  0  0  0  0  0  0  0  0  0  0  0
   -1.4870    2.9172    3.3350 H   0  0  0  0  0  0  0  0  0  0  0  0
    0.2586    3.1636    3.5511 H   0  0  0  0  0  0  0  0  0  0  0  0
   -0.5155    3.6226    2.0213 H   0  0  0  0  0  0  0  0  0  0  0  0
  1  2  1  0  0  0  0
  2  3  1  0  0  0  0
  2  4  1  0  0  0  0
  2  5  1  0  0  0  0
  5  6  2  0  0  0  0
  5  7  1  0  0  0  0
  7  8  1  0  0  0  0
  7  9  1  0  0  0  0
  9 10  1  0  0  0  0
  9 11  1  0  0  0  0
  9 27  1  0  0  0  0
 11 12  1  0  0  0  0
 11 13  1  0  0  0  0
 11 14  1  0  0  0  0
 14 15  1  0  0  0  0
 14 16  1  0  0  0  0
 14 17  1  0  0  0  0
 17 18  1  0  0  0  0
 17 19  1  0  0  0  0
 17 20  1  0  0  0  0
 20 21  1  0  0  0  0
 20 22  1  0  0  0  0
 20 23  1  0  0  0  0
 23 24  1  0  0  0  0
 23 25  1  0  0  0  0
 23 26  1  0  0  0  0
 27 28  2  0  0  0  0
 27 29  1  0  0  0  0
 29 30  1  0  0  0  0
 29 31  1  0  0  0  0
 31 32  1  0  0  0  0
 31 33  1  0  0  0  0
 31 34  1  0  0  0  0
M  CHG  1  23   1
M  END
$$$$

  -OEChem-02102214153D

 34 33  0     1  0  0  0  0  0999 V2000
   -3.5213   -4.1190    1.8903 H   0  0  0  0  0  0  0  0  0  0  0  0
   -3.5938   -3.1118    1.4708 C   0  0  0  0  0  0  0  0  0  0  0  0
   -4.1989   -2.4954    2.1406 H   0  0  0  0  0  0  0  0  0  0  0  0
   -4.0877   -3.1698    0.4976 H   0  0  0  0  0  0  0  0  0  0  0  0
   -2.2119   -2.5070    1.3171 C   0  0  0  0  0  0  0  0  0  0  0  0
   -1.2133   -3.1578    1.6042 O   0  0  0  0  0  0  0  0  0  0  0  0
   -2.0684   -1.2244    0.8278 N   0  0  0  0  0  0  0  0  0  0  0  0
   -2.9202   -0.6794    0.6827 H   0  0  0  0  0  0  0  0  0  0  0  0
   -0.8046   -0.4755    0.8724 C   0  0  1  0  0  0  0  0  0  0  0  0
   -0.1154   -0.9201    1.5943 H   0  0  0  0  0  0  0  0  0  0  0  0
   -0.1727   -0.4353   -0.5347 C   0  0  0  0  0  0  0  0  0  0  0  0
   -0.9480   -0.1662   -1.2612 H   0  0  0  0  0  0  0  0  0  0  0  0
    0.5928    0.3472   -0.5754 H   0  0  0  0  0  0  0  0  0  0  0  0
    0.4604   -1.7778   -0.9417 C   0  0  0  0  0  0  0  0  0  0  0  0
   -0.2523   -2.5867   -0.7547 H   0  0  0  0  0  0  0  0  0  0  0  0
    0.6369   -1.7561   -2.0228 H   0  0  0  0  0  0  0  0  0  0  0  0
    1.7931   -2.0686   -0.2406 C   0  0  0  0  0  0  0  0  0  0  0  0
    2.5594   -1.3647   -0.5827 H   0  0  0  0  0  0  0  0  0  0  0  0
    1.6768   -1.9486    0.8403 H   0  0  0  0  0  0  0  0  0  0  0  0
    2.2031   -3.5081   -0.5431 C   0  0  0  0  0  0  0  0  0  0  0  0
    1.3520   -4.1717   -0.3256 H   0  0  0  0  0  0  0  0  0  0  0  0
    2.4256   -3.6058   -1.6158 H   0  0  0  0  0  0  0  0  0  0  0  0
    3.3700   -3.8703    0.2884 N   0  3  0  0  0  0  0  0  0  0  0  0
    3.1115   -3.8339    1.2768 H   0  0  0  0  0  0  0  0  0  0  0  0
    3.6802   -4.8180    0.0634 H   0  0  0  0  0  0  0  0  0  0  0  0
    4.1377   -3.2187    0.1192 H   0  0  0  0  0  0  0  0  0  0  0  0
   -1.0886    0.9644    1.3513 C   0  0  0  0  0  0  0  0  0  0  0  0
   -2.0633    1.5581    0.9092 O   0  0  0  0  0  0  0  0  0  0  0  0
   -0.2935    1.5777    2.3027 N   0  0  0  0  0  0  0  0  0  0  0  0
    0.4506    1.0341    2.7281 H   0  0  0  0  0  0  0  0  0  0  0  0
   -0.5768    2.9099    2.8295 C   0  0  0  0  0  0  0  0  0  0  0  0
   -1.5481    2.9245    3.3360 H   0  0  0  0  0  0  0  0  0  0  0  0
    0.1925    3.2069    3.5490 H   0  0  0  0  0  0  0  0  0  0  0  0
   -0.5926    3.6474    2.0195 H   0  0  0  0  0  0  0  0  0  0  0  0
  1  2  1  0  0  0  0
  2  3  1  0  0  0  0
  2  4  1  0  0  0  0
  2  5  1  0  0  0  0
  5  6  2  0  0  0  0
  5  7  1  0  0  0  0
  7  8  1  0  0  0  0
  7  9  1  0  0  0  0
  9 10  1  0  0  0  0
  9 11  1  0  0  0  0
  9 27  1  0  0  0  0
 11 12  1  0  0  0  0
 11 13  1  0  0  0  0
 11 14  1  0  0  0  0
 14 15  1  0  0  0  0
 14 16  1  0  0  0  0
 14 17  1  0  0  0  0
 17 18  1  0  0  0  0
 17 19  1  0  0  0  0
 17 20  1  0  0  0  0
 20 21  1  0  0  0  0
 20 22  1  0  0  0  0
 20 23  1  0  0  0  0
 23 24  1  0  0  0  0
 23 25  1  0  0  0  0
 23 26  1  0  0  0  0
 27 28  2  0  0  0  0
 27 29  1  0  0  0  0
 29 30  1  0  0  0  0
 29 31  1  0  0  0  0
 31 32  1  0  0  0  0
 31 33  1  0  0  0  0
 31 34  1  0  0  0  0
M  CHG  1  23   1
M  END
$$$$

  -OEChem-02102214153D

 34 33  0     1  0  0  0  0  0999 V2000
   -2.9396   -4.3065    2.2909 H   0  0  0  0  0  0  0  0  0  0  0  0
   -3.1305   -3.3179    1.8640 C   0  0  0  0  0  0  0  0  0  0  0  0
   -3.6787   -2.7203    2.5972 H   0  0  0  0  0  0  0  0  0  0  0  0
   -3.7476   -3.4324    0.9691 H   0  0  0  0  0  0  0  0  0  0  0  0
   -1.8250   -2.6320    1.5116 C   0  0  0  0  0  0  0  0  0  0  0  0
   -0.7566   -3.2267    1.6322 O   0  0  0  0  0  0  0  0  0  0  0  0
   -1.8351   -1.3646    0.9725 N   0  0  0  0  0  0  0  0  0  0  0  0
   -2.7450   -0.8997    0.9204 H   0  0  0  0  0  0  0  0  0  0  0  0
   -0.6684   -0.4697    0.9103 C   0  0  1  0  0  0  0  0  0  0  0  0
    0.0940   -0.7878    1.6221 H   0  0  0  0  0  0  0  0  0  0  0  0
   -0.1255   -0.4499   -0.5344 C   0  0  0  0  0  0  0  0  0  0  0  0
   -0.9606   -0.2967   -1.2274 H   0  0  0  0  0  0  0  0  0  0  0  0
    0.5444    0.4098   -0.6461 H   0  0  0  0  0  0  0  0  0  0  0  0
    0.6522   -1.7158   -0.9488 C   0  0  0  0  0  0  0  0  0  0  0  0
   -0.0416   -2.5608   -0.9048 H   0  0  0  0  0  0  0  0  0  0  0  0
    0.9560   -1.6094   -1.9962 H   0  0  0  0  0  0  0  0  0  0  0  0
    1.9051   -2.0245   -0.1015 C   0  0  0  0  0  0  0  0  0  0  0  0
    2.7038   -1.3395   -0.4070 H   0  0  0  0  0  0  0  0  0  0  0  0
    1.7389   -1.8659    0.9656 H   0  0  0  0  0  0  0  0  0  0  0  0
    2.3653   -3.4660   -0.3185 C   0  0  0  0  0  0  0  0  0  0  0  0
    2.2835   -3.7149   -1.3864 H   0  0  0  0  0  0  0  0  0  0  0  0
    3.4274   -3.5528   -0.0466 H   0  0  0  0  0  0  0  0  0  0  0  0
    1.5386   -4.3657    0.5173 N   0  3  0  0  0  0  0  0  0  0  0  0
    0.6544   -3.8970    0.7741 H   0  0  0  0  0  0  0  0  0  0  0  0
    1.3188   -5.2255    0.0151 H   0  0  0  0  0  0  0  0  0  0  0  0
    2.0285   -4.5987    1.3810 H   0  0  0  0  0  0  0  0  0  0  0  0
   -1.0931    0.9494    1.3471 C   0  0  0  0  0  0  0  0  0  0  0  0
   -2.1832    1.3741    0.9882 O   0  0  0  0  0  0  0  0  0  0  0  0
   -0.3255    1.6974    2.2212 N   0  0  0  0  0  0  0  0  0  0  0  0
    0.5537    1.3085    2.5477 H   0  0  0  0  0  0  0  0  0  0  0  0
   -0.7357    3.0099    2.7127 C   0  0  0  0  0  0  0  0  0  0  0  0
   -1.6660    2.9320    3.2858 H   0  0  0  0  0  0  0  0  0  0  0  0
    0.0362    3.4313    3.3644 H   0  0  0  0  0  0  0  0  0  0  0  0
   -0.8954    3.7010    1.8778 H   0  0  0  0  0  0  0  0  0  0  0  0
  1  2  1  0  0  0  0
  2  3  1  0  0  0  0
  2  4  1  0  0  0  0
  2  5  1  0  0  0  0
  5  6  2  0  0  0  0
  5  7  1  0  0  0  0
  7  8  1  0  0  0  0
  7  9  1  0  0  0  0
  9 10  1  0  0  0  0
  9 11  1  0  0  0  0
  9 27  1  0  0  0  0
 11 12  1  0  0  0  0
 11 13  1  0  0  0  0
 11 14  1  0  0  0  0
 14 15  1  0  0  0  0
 14 16  1  0  0  0  0
 14 17  1  0  0  0  0
 17 18  1  0  0  0  0
 17 19  1  0  0  0  0
 17 20  1  0  0  0  0
 20 21  1  0  0  0  0
 20 22  1  0  0  0  0
 20 23  1  0  0  0  0
 23 24  1  0  0  0  0
 23 25  1  0  0  0  0
 23 26  1  0  0  0  0
 27 28  2  0  0  0  0
 27 29  1  0  0  0  0
 29 30  1  0  0  0  0
 29 31  1  0  0  0  0
 31 32  1  0  0  0  0
 31 33  1  0  0  0  0
 31 34  1  0  0  0  0
M  CHG  1  23   1
M  END
$$$$

  -OEChem-02102214153D

 34 33  0     1  0  0  0  0  0999 V2000
   -3.0999   -4.2190    2.4510 H   0  0  0  0  0  0  0  0  0  0  0  0
   -3.2351   -3.2412    1.9805 C   0  0  0  0  0  0  0  0  0  0  0  0
   -3.7877   -2.5961    2.6686 H   0  0  0  0  0  0  0  0  0  0  0  0
   -3.8212   -3.3671    1.0666 H   0  0  0  0  0  0  0  0  0  0  0  0
   -1.8912   -2.6180    1.6562 C   0  0  0  0  0  0  0  0  0  0  0  0
   -0.8577   -3.2510    1.8464 O   0  0  0  0  0  0  0  0  0  0  0  0
   -1.8423   -1.3836    1.0473 N   0  0  0  0  0  0  0  0  0  0  0  0
   -2.7438   -0.9155    0.9236 H   0  0  0  0  0  0  0  0  0  0  0  0
   -0.6769   -0.4832    0.9885 C   0  0  1  0  0  0  0  0  0  0  0  0
    0.0530   -0.7410    1.7566 H   0  0  0  0  0  0  0  0  0  0  0  0
   -0.0686   -0.5399   -0.4312 C   0  0  0  0  0  0  0  0  0  0  0  0
   -0.8690   -0.4096   -1.1687 H   0  0  0  0  0  0  0  0  0  0  0  0
    0.6023    0.3197   -0.5381 H   0  0  0  0  0  0  0  0  0  0  0  0
    0.7495   -1.8003   -0.7948 C   0  0  0  0  0  0  0  0  0  0  0  0
    0.0215   -2.5958   -0.9793 H   0  0  0  0  0  0  0  0  0  0  0  0
    1.2744   -1.6206   -1.7397 H   0  0  0  0  0  0  0  0  0  0  0  0
    1.7656   -2.2902    0.2633 C   0  0  0  0  0  0  0  0  0  0  0  0
    2.6449   -1.6385    0.2174 H   0  0  0  0  0  0  0  0  0  0  0  0
    1.3817   -2.2255    1.2803 H   0  0  0  0  0  0  0  0  0  0  0  0
    2.2012   -3.7346    0.0192 C   0  0  0  0  0  0  0  0  0  0  0  0
    2.5085   -3.8619   -1.0287 H   0  0  0  0  0  0  0  0  0  0  0  0
    3.0812   -3.9464    0.6437 H   0  0  0  0  0  0  0  0  0  0  0  0
    1.0821   -4.6328    0.3778 N   0  3  0  0  0  0  0  0  0  0  0  0
    0.4753   -4.1670    1.0734 H   0  0  0  0  0  0  0  0  0  0  0  0
    0.5175   -4.8425   -0.4440 H   0  0  0  0  0  0  0  0  0  0  0  0
    1.4316   -5.5031    0.7785 H   0  0  0  0  0  0  0  0  0  0  0  0
   -1.1410    0.9542    1.3118 C   0  0  0  0  0  0  0  0  0  0  0  0
   -2.2163    1.3373    0.8705 O   0  0  0  0  0  0  0  0  0  0  0  0
   -0.4315    1.7677    2.1762 N   0  0  0  0  0  0  0  0  0  0  0  0
    0.4342    1.4138    2.5720 H   0  0  0  0  0  0  0  0  0  0  0  0
   -0.8837    3.1016    2.5623 C   0  0  0  0  0  0  0  0  0  0  0  0
   -1.8389    3.0448    3.0952 H   0  0  0  0  0  0  0  0  0  0  0  0
   -0.1496    3.5768    3.2205 H   0  0  0  0  0  0  0  0  0  0  0  0
   -1.0129    3.7352    1.6781 H   0  0  0  0  0  0  0  0  0  0  0  0
  1  2  1  0  0  0  0
  2  3  1  0  0  0  0
  2  4  1  0  0  0  0
  2  5  1  0  0  0  0
  5  6  2  0  0  0  0
  5  7  1  0  0  0  0
  7  8  1  0  0  0  0
  7  9  1  0  0  0  0
  9 10  1  0  0  0  0
  9 11  1  0  0  0  0
  9 27  1  0  0  0  0
 11 12  1  0  0  0  0
 11 13  1  0  0  0  0
 11 14  1  0  0  0  0
 14 15  1  0  0  0  0
 14 16  1  0  0  0  0
 14 17  1  0  0  0  0
 17 18  1  0  0  0  0
 17 19  1  0  0  0  0
 17 20  1  0  0  0  0
 20 21  1  0  0  0  0
 20 22  1  0  0  0  0
 20 23  1  0  0  0  0
 23 24  1  0  0  0  0
 23 25  1  0  0  0  0
 23 26  1  0  0  0  0
 27 28  2  0  0  0  0
 27 29  1  0  0  0  0
 29 30  1  0  0  0  0
 29 31  1  0  0  0  0
 31 32  1  0  0  0  0
 31 33  1  0  0  0  0
 31 34  1  0  0  0  0
M  CHG  1  23   1
M  END
$$$$

  -OEChem-02102214153D

 34 33  0     1  0  0  0  0  0999 V2000
   -3.4435   -4.1805    2.0282 H   0  0  0  0  0  0  0  0  0  0  0  0
   -3.4652   -3.1988    1.5472 C   0  0  0  0  0  0  0  0  0  0  0  0
   -4.1309   -2.5455    2.1176 H   0  0  0  0  0  0  0  0  0  0  0  0
   -3.8618   -3.3102    0.5348 H   0  0  0  0  0  0  0  0  0  0  0  0
   -2.0718   -2.6014    1.4975 C   0  0  0  0  0  0  0  0  0  0  0  0
   -1.1163   -3.2516    1.9084 O   0  0  0  0  0  0  0  0  0  0  0  0
   -1.8952   -1.3484    0.9512 N   0  0  0  0  0  0  0  0  0  0  0  0
   -2.7517   -0.8534    0.6902 H   0  0  0  0  0  0  0  0  0  0  0  0
   -0.6924   -0.4984    1.0186 C   0  0  1  0  0  0  0  0  0  0  0  0
   -0.0242   -0.8141    1.8209 H   0  0  0  0  0  0  0  0  0  0  0  0
    0.0077   -0.4828   -0.3642 C   0  0  0  0  0  0  0  0  0  0  0  0
   -0.7369   -0.2468   -1.1334 H   0  0  0  0  0  0  0  0  0  0  0  0
    0.7139    0.3550   -0.3481 H   0  0  0  0  0  0  0  0  0  0  0  0
    0.8196   -1.7191   -0.8296 C   0  0  0  0  0  0  0  0  0  0  0  0
    0.1030   -2.3488   -1.3675 H   0  0  0  0  0  0  0  0  0  0  0  0
    1.5655   -1.3978   -1.5654 H   0  0  0  0  0  0  0  0  0  0  0  0
    1.5116   -2.5910    0.2426 C   0  0  0  0  0  0  0  0  0  0  0  0
    2.5725   -2.3218    0.2874 H   0  0  0  0  0  0  0  0  0  0  0  0
    1.1141   -2.3954    1.2340 H   0  0  0  0  0  0  0  0  0  0  0  0
    1.3826   -4.0847   -0.0772 C   0  0  0  0  0  0  0  0  0  0  0  0
    0.5667   -4.2363   -0.7977 H   0  0  0  0  0  0  0  0  0  0  0  0
    2.3068   -4.4434   -0.5530 H   0  0  0  0  0  0  0  0  0  0  0  0
    1.0875   -4.8078    1.1770 N   0  3  0  0  0  0  0  0  0  0  0  0
    0.2576   -4.3775    1.6194 H   0  0  0  0  0  0  0  0  0  0  0  0
    0.8874   -5.7900    0.9891 H   0  0  0  0  0  0  0  0  0  0  0  0
    1.8729   -4.7377    1.8229 H   0  0  0  0  0  0  0  0  0  0  0  0
   -1.1357    0.9419    1.3609 C   0  0  0  0  0  0  0  0  0  0  0  0
   -2.1512    1.3865    0.8415 O   0  0  0  0  0  0  0  0  0  0  0  0
   -0.4716    1.6952    2.3116 N   0  0  0  0  0  0  0  0  0  0  0  0
    0.3472    1.2948    2.7594 H   0  0  0  0  0  0  0  0  0  0  0  0
   -0.8954    3.0380    2.6983 C   0  0  0  0  0  0  0  0  0  0  0  0
   -1.9024    3.0148    3.1285 H   0  0  0  0  0  0  0  0  0  0  0  0
   -0.2112    3.4525    3.4452 H   0  0  0  0  0  0  0  0  0  0  0  0
   -0.9010    3.7049    1.8292 H   0  0  0  0  0  0  0  0  0  0  0  0
  1  2  1  0  0  0  0
  2  3  1  0  0  0  0
  2  4  1  0  0  0  0
  2  5  1  0  0  0  0
  5  6  2  0  0  0  0
  5  7  1  0  0  0  0
  7  8  1  0  0  0  0
  7  9  1  0  0  0  0
  9 10  1  0  0  0  0
  9 11  1  0  0  0  0
  9 27  1  0  0  0  0
 11 12  1  0  0  0  0
 11 13  1  0  0  0  0
 11 14  1  0  0  0  0
 14 15  1  0  0  0  0
 14 16  1  0  0  0  0
 14 17  1  0  0  0  0
 17 18  1  0  0  0  0
 17 19  1  0  0  0  0
 17 20  1  0  0  0  0
 20 21  1  0  0  0  0
 20 22  1  0  0  0  0
 20 23  1  0  0  0  0
 23 24  1  0  0  0  0
 23 25  1  0  0  0  0
 23 26  1  0  0  0  0
 27 28  2  0  0  0  0
 27 29  1  0  0  0  0
 29 30  1  0  0  0  0
 29 31  1  0  0  0  0
 31 32  1  0  0  0  0
 31 33  1  0  0  0  0
 31 34  1  0  0  0  0
M  CHG  1  23   1
M  END
$$$$

  -OEChem-02102214153D

 34 33  0     1  0  0  0  0  0999 V2000
   -3.4869   -4.1813    2.1864 H   0  0  0  0  0  0  0  0  0  0  0  0
   -3.4977   -3.1993    1.7055 C   0  0  0  0  0  0  0  0  0  0  0  0
   -4.1564   -2.5392    2.2763 H   0  0  0  0  0  0  0  0  0  0  0  0
   -3.8964   -3.3064    0.6936 H   0  0  0  0  0  0  0  0  0  0  0  0
   -2.0988   -2.6144    1.6578 C   0  0  0  0  0  0  0  0  0  0  0  0
   -1.1672   -3.2286    2.1636 O   0  0  0  0  0  0  0  0  0  0  0  0
   -1.9005   -1.3924    1.0548 N   0  0  0  0  0  0  0  0  0  0  0  0
   -2.7472   -0.9020    0.7557 H   0  0  0  0  0  0  0  0  0  0  0  0
   -0.6843   -0.5589    1.0738 C   0  0  1  0  0  0  0  0  0  0  0  0
   -0.0056   -0.8636    1.8742 H   0  0  0  0  0  0  0  0  0  0  0  0
    0.0282   -0.5381   -0.3074 C   0  0  0  0  0  0  0  0  0  0  0  0
   -0.7221   -0.2963   -1.0693 H   0  0  0  0  0  0  0  0  0  0  0  0
    0.7231    0.3095   -0.2826 H   0  0  0  0  0  0  0  0  0  0  0  0
    0.8584   -1.7414   -0.8303 C   0  0  0  0  0  0  0  0  0  0  0  0
    0.2892   -2.2020   -1.6455 H   0  0  0  0  0  0  0  0  0  0  0  0
    1.7669   -1.3356   -1.2902 H   0  0  0  0  0  0  0  0  0  0  0  0
    1.2815   -2.8425    0.1599 C   0  0  0  0  0  0  0  0  0  0  0  0
    1.1116   -2.5260    1.1892 H   0  0  0  0  0  0  0  0  0  0  0  0
    2.3603   -3.0065    0.0636 H   0  0  0  0  0  0  0  0  0  0  0  0
    0.5652   -4.1605   -0.1355 C   0  0  0  0  0  0  0  0  0  0  0  0
   -0.4830   -3.9488   -0.3915 H   0  0  0  0  0  0  0  0  0  0  0  0
    1.0258   -4.6461   -1.0076 H   0  0  0  0  0  0  0  0  0  0  0  0
    0.6340   -5.0053    1.0726 N   0  3  0  0  0  0  0  0  0  0  0  0
    0.0764   -4.5481    1.8130 H   0  0  0  0  0  0  0  0  0  0  0  0
    0.2437   -5.9295    0.8900 H   0  0  0  0  0  0  0  0  0  0  0  0
    1.5975   -5.0969    1.3924 H   0  0  0  0  0  0  0  0  0  0  0  0
   -1.1235    0.8968    1.3563 C   0  0  0  0  0  0  0  0  0  0  0  0
   -2.1362    1.3254    0.8172 O   0  0  0  0  0  0  0  0  0  0  0  0
   -0.4510    1.6877    2.2695 N   0  0  0  0  0  0  0  0  0  0  0  0
    0.3558    1.2952    2.7457 H   0  0  0  0  0  0  0  0  0  0  0  0
   -0.8714    3.0447    2.6067 C   0  0  0  0  0  0  0  0  0  0  0  0
   -1.8682    3.0369    3.0604 H   0  0  0  0  0  0  0  0  0  0  0  0
   -0.1719    3.4938    3.3186 H   0  0  0  0  0  0  0  0  0  0  0  0
   -0.8996    3.6734    1.7100 H   0  0  0  0  0  0  0  0  0  0  0  0
  1  2  1  0  0  0  0
  2  3  1  0  0  0  0
  2  4  1  0  0  0  0
  2  5  1  0  0  0  0
  5  6  2  0  0  0  0
  5  7  1  0  0  0  0
  7  8  1  0  0  0  0
  7  9  1  0  0  0  0
  9 10  1  0  0  0  0
  9 11  1  0  0  0  0
  9 27  1  0  0  0  0
 11 12  1  0  0  0  0
 11 13  1  0  0  0  0
 11 14  1  0  0  0  0
 14 15  1  0  0  0  0
 14 16  1  0  0  0  0
 14 17  1  0  0  0  0
 17 18  1  0  0  0  0
 17 19  1  0  0  0  0
 17 20  1  0  0  0  0
 20 21  1  0  0  0  0
 20 22  1  0  0  0  0
 20 23  1  0  0  0  0
 23 24  1  0  0  0  0
 23 25  1  0  0  0  0
 23 26  1  0  0  0  0
 27 28  2  0  0  0  0
 27 29  1  0  0  0  0
 29 30  1  0  0  0  0
 29 31  1  0  0  0  0
 31 32  1  0  0  0  0
 31 33  1  0  0  0  0
 31 34  1  0  0  0  0
M  CHG  1  23   1
M  END
$$$$

  -OEChem-02102214153D

 34 33  0     1  0  0  0  0  0999 V2000
   -4.2442   -3.6923    2.1650 H   0  0  0  0  0  0  0  0  0  0  0  0
   -4.0953   -2.7464    1.6367 C   0  0  0  0  0  0  0  0  0  0  0  0
   -4.7013   -1.9763    2.1213 H   0  0  0  0  0  0  0  0  0  0  0  0
   -4.4298   -2.8629    0.6029 H   0  0  0  0  0  0  0  0  0  0  0  0
   -2.6319   -2.3480    1.6679 C   0  0  0  0  0  0  0  0  0  0  0  0
   -1.8238   -3.0493    2.2637 O   0  0  0  0  0  0  0  0  0  0  0  0
   -2.2367   -1.1780    1.0507 N   0  0  0  0  0  0  0  0  0  0  0  0
   -2.9850   -0.5821    0.6905 H   0  0  0  0  0  0  0  0  0  0  0  0
   -0.8985   -0.5592    1.0899 C   0  0  1  0  0  0  0  0  0  0  0  0
   -0.2964   -0.9717    1.9042 H   0  0  0  0  0  0  0  0  0  0  0  0
   -0.1396   -0.6486   -0.2686 C   0  0  0  0  0  0  0  0  0  0  0  0
   -0.8281   -0.3101   -1.0517 H   0  0  0  0  0  0  0  0  0  0  0  0
    0.6749    0.0846   -0.2381 H   0  0  0  0  0  0  0  0  0  0  0  0
    0.4917   -1.9827   -0.7479 C   0  0  0  0  0  0  0  0  0  0  0  0
    0.0688   -2.2355   -1.7266 H   0  0  0  0  0  0  0  0  0  0  0  0
    1.5631   -1.8084   -0.8983 H   0  0  0  0  0  0  0  0  0  0  0  0
    0.3223   -3.1811    0.1815 C   0  0  0  0  0  0  0  0  0  0  0  0
    0.5841   -2.8966    1.2054 H   0  0  0  0  0  0  0  0  0  0  0  0
   -0.7254   -3.4838    0.1395 H   0  0  0  0  0  0  0  0  0  0  0  0
    1.1682   -4.3775   -0.2267 C   0  0  0  0  0  0  0  0  0  0  0  0
    0.9034   -4.6841   -1.2491 H   0  0  0  0  0  0  0  0  0  0  0  0
    2.2328   -4.1016   -0.2295 H   0  0  0  0  0  0  0  0  0  0  0  0
    0.8829   -5.4469    0.7546 N   0  3  0  0  0  0  0  0  0  0  0  0
   -0.1288   -5.5686    0.8467 H   0  0  0  0  0  0  0  0  0  0  0  0
    1.3024   -6.3291    0.4567 H   0  0  0  0  0  0  0  0  0  0  0  0
    1.2577   -5.1879    1.6693 H   0  0  0  0  0  0  0  0  0  0  0  0
   -1.1027    0.9510    1.3525 C   0  0  0  0  0  0  0  0  0  0  0  0
   -1.9997    1.5442    0.7659 O   0  0  0  0  0  0  0  0  0  0  0  0
   -0.3292    1.6289    2.2767 N   0  0  0  0  0  0  0  0  0  0  0  0
    0.3514    1.0985    2.8123 H   0  0  0  0  0  0  0  0  0  0  0  0
   -0.5470    3.0320    2.6169 C   0  0  0  0  0  0  0  0  0  0  0  0
   -1.5465    3.1738    3.0420 H   0  0  0  0  0  0  0  0  0  0  0  0
    0.1914    3.3639    3.3534 H   0  0  0  0  0  0  0  0  0  0  0  0
   -0.4517    3.6633    1.7267 H   0  0  0  0  0  0  0  0  0  0  0  0
  1  2  1  0  0  0  0
  2  3  1  0  0  0  0
  2  4  1  0  0  0  0
  2  5  1  0  0  0  0
  5  6  2  0  0  0  0
  5  7  1  0  0  0  0
  7  8  1  0  0  0  0
  7  9  1  0  0  0  0
  9 10  1  0  0  0  0
  9 11  1  0  0  0  0
  9 27  1  0  0  0  0
 11 12  1  0  0  0  0
 11 13  1  0  0  0  0
 11 14  1  0  0  0  0
 14 15  1  0  0  0  0
 14 16  1  0  0  0  0
 14 17  1  0  0  0  0
 17 18  1  0  0  0  0
 17 19  1  0  0  0  0
 17 20  1  0  0  0  0
 20 21  1  0  0  0  0
 20 22  1  0  0  0  0
 20 23  1  0  0  0  0
 23 24  1  0  0  0  0
 23 25  1  0  0  0  0
 23 26  1  0  0  0  0
 27 28  2  0  0  0  0
 27 29  1  0  0  0  0
 29 30  1  0  0  0  0
 29 31  1  0  0  0  0
 31 32  1  0  0  0  0
 31 33  1  0  0  0  0
 31 34  1  0  0  0  0
M  CHG  1  23   1
M  END
$$$$

  -OEChem-02102214153D

 34 33  0     1  0  0  0  0  0999 V2000
   -4.2967   -3.6604    2.2195 H   0  0  0  0  0  0  0  0  0  0  0  0
   -4.1247   -2.7199    1.6887 C   0  0  0  0  0  0  0  0  0  0  0  0
   -4.6919   -1.9292    2.1872 H   0  0  0  0  0  0  0  0  0  0  0  0
   -4.4857   -2.8219    0.6623 H   0  0  0  0  0  0  0  0  0  0  0  0
   -2.6479   -2.3738    1.6895 C   0  0  0  0  0  0  0  0  0  0  0  0
   -1.8528   -3.1253    2.2381 O   0  0  0  0  0  0  0  0  0  0  0  0
   -2.2361   -1.2056    1.0784 N   0  0  0  0  0  0  0  0  0  0  0  0
   -2.9861   -0.5940    0.7484 H   0  0  0  0  0  0  0  0  0  0  0  0
   -0.8975   -0.5795    1.0955 C   0  0  1  0  0  0  0  0  0  0  0  0
   -0.2867   -0.9963    1.9020 H   0  0  0  0  0  0  0  0  0  0  0  0
   -0.1364   -0.6648   -0.2653 C   0  0  0  0  0  0  0  0  0  0  0  0
   -0.8469   -0.3552   -1.0405 H   0  0  0  0  0  0  0  0  0  0  0  0
    0.6599    0.0886   -0.2582 H   0  0  0  0  0  0  0  0  0  0  0  0
    0.5122   -1.9892   -0.7452 C   0  0  0  0  0  0  0  0  0  0  0  0
    0.3158   -2.1063   -1.8169 H   0  0  0  0  0  0  0  0  0  0  0  0
    1.5972   -1.8942   -0.6249 H   0  0  0  0  0  0  0  0  0  0  0  0
    0.0657   -3.2436   -0.0103 C   0  0  0  0  0  0  0  0  0  0  0  0
    0.2656   -3.1002    1.0546 H   0  0  0  0  0  0  0  0  0  0  0  0
   -1.0062   -3.3801   -0.1773 H   0  0  0  0  0  0  0  0  0  0  0  0
    0.7924   -4.5028   -0.4527 C   0  0  0  0  0  0  0  0  0  0  0  0
    0.6278   -4.6789   -1.5258 H   0  0  0  0  0  0  0  0  0  0  0  0
    1.8740   -4.3767   -0.2994 H   0  0  0  0  0  0  0  0  0  0  0  0
    0.2486   -5.6001    0.3771 N   0  3  0  0  0  0  0  0  0  0  0  0
   -0.6842   -5.8557    0.0492 H   0  0  0  0  0  0  0  0  0  0  0  0
    0.8568   -6.4194    0.3338 H   0  0  0  0  0  0  0  0  0  0  0  0
    0.1714   -5.2875    1.3498 H   0  0  0  0  0  0  0  0  0  0  0  0
   -1.1038    0.9293    1.3619 C   0  0  0  0  0  0  0  0  0  0  0  0
   -2.0203    1.5135    0.7966 O   0  0  0  0  0  0  0  0  0  0  0  0
   -0.3188    1.6121    2.2725 N   0  0  0  0  0  0  0  0  0  0  0  0
    0.3897    1.0919    2.7817 H   0  0  0  0  0  0  0  0  0  0  0  0
   -0.5268    3.0192    2.6010 C   0  0  0  0  0  0  0  0  0  0  0  0
   -1.5217    3.1697    3.0337 H   0  0  0  0  0  0  0  0  0  0  0  0
    0.2200    3.3544    3.3275 H   0  0  0  0  0  0  0  0  0  0  0  0
   -0.4372    3.6409    1.7037 H   0  0  0  0  0  0  0  0  0  0  0  0
  1  2  1  0  0  0  0
  2  3  1  0  0  0  0
  2  4  1  0  0  0  0
  2  5  1  0  0  0  0
  5  6  2  0  0  0  0
  5  7  1  0  0  0  0
  7  8  1  0  0  0  0
  7  9  1  0  0  0  0
  9 10  1  0  0  0  0
  9 11  1  0  0  0  0
  9 27  1  0  0  0  0
 11 12  1  0  0  0  0
 11 13  1  0  0  0  0
 11 14  1  0  0  0  0
 14 15  1  0  0  0  0
 14 16  1  0  0  0  0
 14 17  1  0  0  0  0
 17 18  1  0  0  0  0
 17 19  1  0  0  0  0
 17 20  1  0  0  0  0
 20 21  1  0  0  0  0
 20 22  1  0  0  0  0
 20 23  1  0  0  0  0
 23 24  1  0  0  0  0
 23 25  1  0  0  0  0
 23 26  1  0  0  0  0
 27 28  2  0  0  0  0
 27 29  1  0  0  0  0
 29 30  1  0  0  0  0
 29 31  1  0  0  0  0
 31 32  1  0  0  0  0
 31 33  1  0  0  0  0
 31 34  1  0  0  0  0
M  CHG  1  23   1
M  END
$$$$

  -OEChem-02102214153D

 34 33  0     1  0  0  0  0  0999 V2000
   -4.3424   -3.6360    2.2255 H   0  0  0  0  0  0  0  0  0  0  0  0
   -4.1587   -2.6877    1.7127 C   0  0  0  0  0  0  0  0  0  0  0  0
   -4.7050   -1.8973    2.2344 H   0  0  0  0  0  0  0  0  0  0  0  0
   -4.5335   -2.7608    0.6888 H   0  0  0  0  0  0  0  0  0  0  0  0
   -2.6756   -2.3697    1.7056 C   0  0  0  0  0  0  0  0  0  0  0  0
   -1.8969   -3.1327    2.2569 O   0  0  0  0  0  0  0  0  0  0  0  0
   -2.2454   -1.2118    1.0890 N   0  0  0  0  0  0  0  0  0  0  0  0
   -2.9896   -0.5924    0.7605 H   0  0  0  0  0  0  0  0  0  0  0  0
   -0.9036   -0.5900    1.1047 C   0  0  1  0  0  0  0  0  0  0  0  0
   -0.2994   -1.0078    1.9163 H   0  0  0  0  0  0  0  0  0  0  0  0
   -0.1289   -0.6944   -0.2463 C   0  0  0  0  0  0  0  0  0  0  0  0
   -0.8347   -0.3995   -1.0314 H   0  0  0  0  0  0  0  0  0  0  0  0
    0.6672    0.0592   -0.2455 H   0  0  0  0  0  0  0  0  0  0  0  0
    0.5229   -2.0236   -0.6986 C   0  0  0  0  0  0  0  0  0  0  0  0
    0.5698   -2.0233   -1.7934 H   0  0  0  0  0  0  0  0  0  0  0  0
    1.5549   -2.0371   -0.3307 H   0  0  0  0  0  0  0  0  0  0  0  0
   -0.1599   -3.2946   -0.2212 C   0  0  0  0  0  0  0  0  0  0  0  0
   -0.0180   -3.3401    0.8588 H   0  0  0  0  0  0  0  0  0  0  0  0
   -1.2266   -3.2525   -0.4613 H   0  0  0  0  0  0  0  0  0  0  0  0
    0.4446   -4.5577   -0.8144 C   0  0  0  0  0  0  0  0  0  0  0  0
    0.2966   -4.5725   -1.9041 H   0  0  0  0  0  0  0  0  0  0  0  0
    1.5284   -4.5663   -0.6275 H   0  0  0  0  0  0  0  0  0  0  0  0
   -0.2255   -5.6963   -0.1492 N   0  3  0  0  0  0  0  0  0  0  0  0
   -1.1715   -5.8082   -0.5169 H   0  0  0  0  0  0  0  0  0  0  0  0
    0.2988   -6.5595   -0.3024 H   0  0  0  0  0  0  0  0  0  0  0  0
   -0.2884   -5.5151    0.8575 H   0  0  0  0  0  0  0  0  0  0  0  0
   -1.1032    0.9220    1.3545 C   0  0  0  0  0  0  0  0  0  0  0  0
   -2.0152    1.5040    0.7796 O   0  0  0  0  0  0  0  0  0  0  0  0
   -0.3177    1.6093    2.2610 N   0  0  0  0  0  0  0  0  0  0  0  0
    0.3815    1.0877    2.7820 H   0  0  0  0  0  0  0  0  0  0  0  0
   -0.5280    3.0166    2.5865 C   0  0  0  0  0  0  0  0  0  0  0  0
   -1.5129    3.1621    3.0430 H   0  0  0  0  0  0  0  0  0  0  0  0
    0.2343    3.3615    3.2919 H   0  0  0  0  0  0  0  0  0  0  0  0
   -0.4652    3.6336    1.6837 H   0  0  0  0  0  0  0  0  0  0  0  0
  1  2  1  0  0  0  0
  2  3  1  0  0  0  0
  2  4  1  0  0  0  0
  2  5  1  0  0  0  0
  5  6  2  0  0  0  0
  5  7  1  0  0  0  0
  7  8  1  0  0  0  0
  7  9  1  0  0  0  0
  9 10  1  0  0  0  0
  9 11  1  0  0  0  0
  9 27  1  0  0  0  0
 11 12  1  0  0  0  0
 11 13  1  0  0  0  0
 11 14  1  0  0  0  0
 14 15  1  0  0  0  0
 14 16  1  0  0  0  0
 14 17  1  0  0  0  0
 17 18  1  0  0  0  0
 17 19  1  0  0  0  0
 17 20  1  0  0  0  0
 20 21  1  0  0  0  0
 20 22  1  0  0  0  0
 20 23  1  0  0  0  0
 23 24  1  0  0  0  0
 23 25  1  0  0  0  0
 23 26  1  0  0  0  0
 27 28  2  0  0  0  0
 27 29  1  0  0  0  0
 29 30  1  0  0  0  0
 29 31  1  0  0  0  0
 31 32  1  0  0  0  0
 31 33  1  0  0  0  0
 31 34  1  0  0  0  0
M  CHG  1  23   1
M  END
$$$$

  -OEChem-02102214153D

 34 33  0     1  0  0  0  0  0999 V2000
   -4.2722   -3.8439    1.9957 H   0  0  0  0  0  0  0  0  0  0  0  0
   -4.1291   -2.8602    1.5401 C   0  0  0  0  0  0  0  0  0  0  0  0
   -4.5993   -2.1096    2.1812 H   0  0  0  0  0  0  0  0  0  0  0  0
   -4.6195   -2.8464    0.5634 H   0  0  0  0  0  0  0  0  0  0  0  0
   -2.6512   -2.5548    1.3872 C   0  0  0  0  0  0  0  0  0  0  0  0
   -1.8225   -3.4147    1.6564 O   0  0  0  0  0  0  0  0  0  0  0  0
   -2.2659   -1.3179    0.9211 N   0  0  0  0  0  0  0  0  0  0  0  0
   -3.0239   -0.6414    0.7969 H   0  0  0  0  0  0  0  0  0  0  0  0
   -0.9174   -0.7178    0.9046 C   0  0  1  0  0  0  0  0  0  0  0  0
   -0.2541   -1.2600    1.5854 H   0  0  0  0  0  0  0  0  0  0  0  0
   -0.2529   -0.6133   -0.5003 C   0  0  0  0  0  0  0  0  0  0  0  0
   -1.0101   -0.1889   -1.1696 H   0  0  0  0  0  0  0  0  0  0  0  0
    0.5553    0.1248   -0.4372 H   0  0  0  0  0  0  0  0  0  0  0  0
    0.3447   -1.8450   -1.2242 C   0  0  0  0  0  0  0  0  0  0  0  0
    0.5242   -1.5445   -2.2628 H   0  0  0  0  0  0  0  0  0  0  0  0
    1.3321   -2.0348   -0.7888 H   0  0  0  0  0  0  0  0  0  0  0  0
   -0.4509   -3.1570   -1.2540 C   0  0  0  0  0  0  0  0  0  0  0  0
   -0.4959   -3.5281   -2.2837 H   0  0  0  0  0  0  0  0  0  0  0  0
   -1.4803   -2.9829   -0.9418 H   0  0  0  0  0  0  0  0  0  0  0  0
    0.2537   -4.2057   -0.3867 C   0  0  0  0  0  0  0  0  0  0  0  0
    1.1276   -4.5968   -0.9269 H   0  0  0  0  0  0  0  0  0  0  0  0
    0.6236   -3.7186    0.5273 H   0  0  0  0  0  0  0  0  0  0  0  0
   -0.6906   -5.2780   -0.0257 N   0  3  0  0  0  0  0  0  0  0  0  0
   -1.2199   -5.5814   -0.8418 H   0  0  0  0  0  0  0  0  0  0  0  0
   -0.1942   -6.0722    0.3784 H   0  0  0  0  0  0  0  0  0  0  0  0
   -1.3398   -4.9000    0.6818 H   0  0  0  0  0  0  0  0  0  0  0  0
   -1.0658    0.7365    1.4093 C   0  0  0  0  0  0  0  0  0  0  0  0
   -2.0332    1.3942    1.0463 O   0  0  0  0  0  0  0  0  0  0  0  0
   -0.1871    1.2698    2.3339 N   0  0  0  0  0  0  0  0  0  0  0  0
    0.5797    0.6897    2.6611 H   0  0  0  0  0  0  0  0  0  0  0  0
   -0.3377    2.6107    2.8917 C   0  0  0  0  0  0  0  0  0  0  0  0
   -1.2965    2.7056    3.4129 H   0  0  0  0  0  0  0  0  0  0  0  0
    0.4646    2.8174    3.6069 H   0  0  0  0  0  0  0  0  0  0  0  0
   -0.2938    3.3644    2.0980 H   0  0  0  0  0  0  0  0  0  0  0  0
  1  2  1  0  0  0  0
  2  3  1  0  0  0  0
  2  4  1  0  0  0  0
  2  5  1  0  0  0  0
  5  6  2  0  0  0  0
  5  7  1  0  0  0  0
  7  8  1  0  0  0  0
  7  9  1  0  0  0  0
  9 10  1  0  0  0  0
  9 11  1  0  0  0  0
  9 27  1  0  0  0  0
 11 12  1  0  0  0  0
 11 13  1  0  0  0  0
 11 14  1  0  0  0  0
 14 15  1  0  0  0  0
 14 16  1  0  0  0  0
 14 17  1  0  0  0  0
 17 18  1  0  0  0  0
 17 19  1  0  0  0  0
 17 20  1  0  0  0  0
 20 21  1  0  0  0  0
 20 22  1  0  0  0  0
 20 23  1  0  0  0  0
 23 24  1  0  0  0  0
 23 25  1  0  0  0  0
 23 26  1  0  0  0  0
 27 28  2  0  0  0  0
 27 29  1  0  0  0  0
 29 30  1  0  0  0  0
 29 31  1  0  0  0  0
 31 32  1  0  0  0  0
 31 33  1  0  0  0  0
 31 34  1  0  0  0  0
M  CHG  1  23   1
M  END
$$$$

  -OEChem-02102214153D

 34 33  0     1  0  0  0  0  0999 V2000
   -4.5154   -3.7390    1.7212 H   0  0  0  0  0  0  0  0  0  0  0  0
   -4.3350   -2.7390    1.3169 C   0  0  0  0  0  0  0  0  0  0  0  0
   -4.7964   -2.0053    1.9833 H   0  0  0  0  0  0  0  0  0  0  0  0
   -4.8034   -2.6660    0.3321 H   0  0  0  0  0  0  0  0  0  0  0  0
   -2.8460   -2.4734    1.2060 C   0  0  0  0  0  0  0  0  0  0  0  0
   -2.0358   -3.3626    1.4505 O   0  0  0  0  0  0  0  0  0  0  0  0
   -2.3952   -1.2419    0.7801 N   0  0  0  0  0  0  0  0  0  0  0  0
   -3.1040   -0.5121    0.6677 H   0  0  0  0  0  0  0  0  0  0  0  0
   -1.0041   -0.7606    0.8536 C   0  0  1  0  0  0  0  0  0  0  0  0
   -0.4317   -1.3661    1.5628 H   0  0  0  0  0  0  0  0  0  0  0  0
   -0.2301   -0.6782   -0.4943 C   0  0  0  0  0  0  0  0  0  0  0  0
   -0.8747   -0.1620   -1.2149 H   0  0  0  0  0  0  0  0  0  0  0  0
    0.6463   -0.0382   -0.3411 H   0  0  0  0  0  0  0  0  0  0  0  0
    0.2859   -1.9714   -1.1675 C   0  0  0  0  0  0  0  0  0  0  0  0
    0.8466   -1.6909   -2.0666 H   0  0  0  0  0  0  0  0  0  0  0  0
    1.0064   -2.4180   -0.4759 H   0  0  0  0  0  0  0  0  0  0  0  0
   -0.7605   -3.0303   -1.5660 C   0  0  0  0  0  0  0  0  0  0  0  0
   -1.6936   -2.9065   -1.0285 H   0  0  0  0  0  0  0  0  0  0  0  0
   -1.0086   -2.8669   -2.6205 H   0  0  0  0  0  0  0  0  0  0  0  0
   -0.2571   -4.4684   -1.4096 C   0  0  0  0  0  0  0  0  0  0  0  0
   -0.9732   -5.1413   -1.9031 H   0  0  0  0  0  0  0  0  0  0  0  0
    0.7035   -4.5810   -1.9326 H   0  0  0  0  0  0  0  0  0  0  0  0
   -0.1358   -4.8097    0.0250 N   0  3  0  0  0  0  0  0  0  0  0  0
   -0.1834   -5.8198    0.1599 H   0  0  0  0  0  0  0  0  0  0  0  0
    0.7439   -4.4620    0.4018 H   0  0  0  0  0  0  0  0  0  0  0  0
   -0.9073   -4.3712    0.5533 H   0  0  0  0  0  0  0  0  0  0  0  0
   -1.0594    0.6876    1.3954 C   0  0  0  0  0  0  0  0  0  0  0  0
   -1.9437    1.4367    1.0005 O   0  0  0  0  0  0  0  0  0  0  0  0
   -0.1921    1.1197    2.3823 N   0  0  0  0  0  0  0  0  0  0  0  0
    0.4944    0.4641    2.7431 H   0  0  0  0  0  0  0  0  0  0  0  0
   -0.2651    2.4521    2.9757 C   0  0  0  0  0  0  0  0  0  0  0  0
   -1.2156    2.5861    3.5033 H   0  0  0  0  0  0  0  0  0  0  0  0
    0.5503    2.5952    3.6917 H   0  0  0  0  0  0  0  0  0  0  0  0
   -0.1817    3.2239    2.2027 H   0  0  0  0  0  0  0  0  0  0  0  0
  1  2  1  0  0  0  0
  2  3  1  0  0  0  0
  2  4  1  0  0  0  0
  2  5  1  0  0  0  0
  5  6  2  0  0  0  0
  5  7  1  0  0  0  0
  7  8  1  0  0  0  0
  7  9  1  0  0  0  0
  9 10  1  0  0  0  0
  9 11  1  0  0  0  0
  9 27  1  0  0  0  0
 11 12  1  0  0  0  0
 11 13  1  0  0  0  0
 11 14  1  0  0  0  0
 14 15  1  0  0  0  0
 14 16  1  0  0  0  0
 14 17  1  0  0  0  0
 17 18  1  0  0  0  0
 17 19  1  0  0  0  0
 17 20  1  0  0  0  0
 20 21  1  0  0  0  0
 20 22  1  0  0  0  0
 20 23  1  0  0  0  0
 23 24  1  0  0  0  0
 23 25  1  0  0  0  0
 23 26  1  0  0  0  0
 27 28  2  0  0  0  0
 27 29  1  0  0  0  0
 29 30  1  0  0  0  0
 29 31  1  0  0  0  0
 31 32  1  0  0  0  0
 31 33  1  0  0  0  0
 31 34  1  0  0  0  0
M  CHG  1  23   1
M  END
$$$$

  -OEChem-02102214153D

 34 33  0     1  0  0  0  0  0999 V2000
   -4.4178   -3.8054    1.5252 H   0  0  0  0  0  0  0  0  0  0  0  0
   -4.2599   -2.7668    1.2214 C   0  0  0  0  0  0  0  0  0  0  0  0
   -4.6790   -2.1110    1.9893 H   0  0  0  0  0  0  0  0  0  0  0  0
   -4.7863   -2.5900    0.2799 H   0  0  0  0  0  0  0  0  0  0  0  0
   -2.7798   -2.4826    1.0530 C   0  0  0  0  0  0  0  0  0  0  0  0
   -1.9543   -3.3798    1.1972 O   0  0  0  0  0  0  0  0  0  0  0  0
   -2.3607   -1.2284    0.6648 N   0  0  0  0  0  0  0  0  0  0  0  0
   -3.0856   -0.5083    0.6047 H   0  0  0  0  0  0  0  0  0  0  0  0
   -0.9858   -0.7156    0.7896 C   0  0  1  0  0  0  0  0  0  0  0  0
   -0.4241   -1.3229    1.5064 H   0  0  0  0  0  0  0  0  0  0  0  0
   -0.1902   -0.6320   -0.5402 C   0  0  0  0  0  0  0  0  0  0  0  0
   -0.8074   -0.1268   -1.2919 H   0  0  0  0  0  0  0  0  0  0  0  0
    0.6850    0.0047   -0.3683 H   0  0  0  0  0  0  0  0  0  0  0  0
    0.3295   -1.9614   -1.1246 C   0  0  0  0  0  0  0  0  0  0  0  0
    1.1021   -1.7388   -1.8692 H   0  0  0  0  0  0  0  0  0  0  0  0
    0.8164   -2.5081   -0.3120 H   0  0  0  0  0  0  0  0  0  0  0  0
   -0.7437   -2.8413   -1.7951 C   0  0  0  0  0  0  0  0  0  0  0  0
   -1.7098   -2.7482   -1.3055 H   0  0  0  0  0  0  0  0  0  0  0  0
   -0.8891   -2.4754   -2.8175 H   0  0  0  0  0  0  0  0  0  0  0  0
   -0.3464   -4.3188   -1.8538 C   0  0  0  0  0  0  0  0  0  0  0  0
   -1.0819   -4.8518   -2.4737 H   0  0  0  0  0  0  0  0  0  0  0  0
    0.6279   -4.4187   -2.3534 H   0  0  0  0  0  0  0  0  0  0  0  0
   -0.3131   -4.8870   -0.4873 N   0  3  0  0  0  0  0  0  0  0  0  0
   -0.5547   -5.8778   -0.5031 H   0  0  0  0  0  0  0  0  0  0  0  0
    0.6127   -4.7743   -0.0772 H   0  0  0  0  0  0  0  0  0  0  0  0
   -0.9919   -4.3917    0.1134 H   0  0  0  0  0  0  0  0  0  0  0  0
   -1.0744    0.7187    1.3594 C   0  0  0  0  0  0  0  0  0  0  0  0
   -1.9678    1.4575    0.9657 O   0  0  0  0  0  0  0  0  0  0  0  0
   -0.2389    1.1430    2.3762 N   0  0  0  0  0  0  0  0  0  0  0  0
    0.4612    0.4965    2.7274 H   0  0  0  0  0  0  0  0  0  0  0  0
   -0.3409    2.4650    2.9879 C   0  0  0  0  0  0  0  0  0  0  0  0
   -1.3071    2.5828    3.4900 H   0  0  0  0  0  0  0  0  0  0  0  0
    0.4524    2.6033    3.7290 H   0  0  0  0  0  0  0  0  0  0  0  0
   -0.2423    3.2492    2.2293 H   0  0  0  0  0  0  0  0  0  0  0  0
  1  2  1  0  0  0  0
  2  3  1  0  0  0  0
  2  4  1  0  0  0  0
  2  5  1  0  0  0  0
  5  6  2  0  0  0  0
  5  7  1  0  0  0  0
  7  8  1  0  0  0  0
  7  9  1  0  0  0  0
  9 10  1  0  0  0  0
  9 11  1  0  0  0  0
  9 27  1  0  0  0  0
 11 12  1  0  0  0  0
 11 13  1  0  0  0  0
 11 14  1  0  0  0  0
 14 15  1  0  0  0  0
 14 16  1  0  0  0  0
 14 17  1  0  0  0  0
 17 18  1  0  0  0  0
 17 19  1  0  0  0  0
 17 20  1  0  0  0  0
 20 21  1  0  0  0  0
 20 22  1  0  0  0  0
 20 23  1  0  0  0  0
 23 24  1  0  0  0  0
 23 25  1  0  0  0  0
 23 26  1  0  0  0  0
 27 28  2  0  0  0  0
 27 29  1  0  0  0  0
 29 30  1  0  0  0  0
 29 31  1  0  0  0  0
 31 32  1  0  0  0  0
 31 33  1  0  0  0  0
 31 34  1  0  0  0  0
M  CHG  1  23   1
M  END
$$$$

  -OEChem-02102214153D

 34 33  0     1  0  0  0  0  0999 V2000
   -4.2853   -3.8739    1.3319 H   0  0  0  0  0  0  0  0  0  0  0  0
   -4.1557   -2.8162    1.0868 C   0  0  0  0  0  0  0  0  0  0  0  0
   -4.5666   -2.2164    1.9034 H   0  0  0  0  0  0  0  0  0  0  0  0
   -4.7110   -2.5946    0.1718 H   0  0  0  0  0  0  0  0  0  0  0  0
   -2.6864   -2.4913    0.8978 C   0  0  0  0  0  0  0  0  0  0  0  0
   -1.8421   -3.3810    0.9489 O   0  0  0  0  0  0  0  0  0  0  0  0
   -2.3051   -1.2126    0.5560 N   0  0  0  0  0  0  0  0  0  0  0  0
   -3.0521   -0.5132    0.5393 H   0  0  0  0  0  0  0  0  0  0  0  0
   -0.9515   -0.6583    0.7282 C   0  0  1  0  0  0  0  0  0  0  0  0
   -0.3887   -1.2661    1.4443 H   0  0  0  0  0  0  0  0  0  0  0  0
   -0.1657   -0.5756   -0.6005 C   0  0  0  0  0  0  0  0  0  0  0  0
   -0.7808   -0.0938   -1.3689 H   0  0  0  0  0  0  0  0  0  0  0  0
    0.7051    0.0696   -0.4387 H   0  0  0  0  0  0  0  0  0  0  0  0
    0.3522   -1.9355   -1.1034 C   0  0  0  0  0  0  0  0  0  0  0  0
    1.2754   -1.7717   -1.6704 H   0  0  0  0  0  0  0  0  0  0  0  0
    0.6111   -2.5547   -0.2394 H   0  0  0  0  0  0  0  0  0  0  0  0
   -0.6515   -2.6539   -2.0240 C   0  0  0  0  0  0  0  0  0  0  0  0
   -1.6666   -2.5862   -1.6281 H   0  0  0  0  0  0  0  0  0  0  0  0
   -0.6596   -2.1449   -2.9942 H   0  0  0  0  0  0  0  0  0  0  0  0
   -0.2904   -4.1256   -2.2369 C   0  0  0  0  0  0  0  0  0  0  0  0
   -0.9667   -4.5448   -2.9959 H   0  0  0  0  0  0  0  0  0  0  0  0
    0.7298   -4.1971   -2.6403 H   0  0  0  0  0  0  0  0  0  0  0  0
   -0.4179   -4.8641   -0.9598 N   0  3  0  0  0  0  0  0  0  0  0  0
   -0.8754   -5.7634   -1.1084 H   0  0  0  0  0  0  0  0  0  0  0  0
    0.5000   -5.0199   -0.5449 H   0  0  0  0  0  0  0  0  0  0  0  0
   -0.9829   -4.3146   -0.2922 H   0  0  0  0  0  0  0  0  0  0  0  0
   -1.0729    0.7570    1.3343 C   0  0  0  0  0  0  0  0  0  0  0  0
   -1.9790    1.4854    0.9513 O   0  0  0  0  0  0  0  0  0  0  0  0
   -0.2621    1.1683    2.3760 N   0  0  0  0  0  0  0  0  0  0  0  0
    0.4524    0.5299    2.7135 H   0  0  0  0  0  0  0  0  0  0  0  0
   -0.3976    2.4719    3.0197 C   0  0  0  0  0  0  0  0  0  0  0  0
   -1.3823    2.5682    3.4898 H   0  0  0  0  0  0  0  0  0  0  0  0
    0.3670    2.5964    3.7928 H   0  0  0  0  0  0  0  0  0  0  0  0
   -0.2788    3.2770    2.2863 H   0  0  0  0  0  0  0  0  0  0  0  0
  1  2  1  0  0  0  0
  2  3  1  0  0  0  0
  2  4  1  0  0  0  0
  2  5  1  0  0  0  0
  5  6  2  0  0  0  0
  5  7  1  0  0  0  0
  7  8  1  0  0  0  0
  7  9  1  0  0  0  0
  9 10  1  0  0  0  0
  9 11  1  0  0  0  0
  9 27  1  0  0  0  0
 11 12  1  0  0  0  0
 11 13  1  0  0  0  0
 11 14  1  0  0  0  0
 14 15  1  0  0  0  0
 14 16  1  0  0  0  0
 14 17  1  0  0  0  0
 17 18  1  0  0  0  0
 17 19  1  0  0  0  0
 17 20  1  0  0  0  0
 20 21  1  0  0  0  0
 20 22  1  0  0  0  0
 20 23  1  0  0  0  0
 23 24  1  0  0  0  0
 23 25  1  0  0  0  0
 23 26  1  0  0  0  0
 27 28  2  0  0  0  0
 27 29  1  0  0  0  0
 29 30  1  0  0  0  0
 29 31  1  0  0  0  0
 31 32  1  0  0  0  0
 31 33  1  0  0  0  0
 31 34  1  0  0  0  0
M  CHG  1  23   1
M  END
$$$$

  -OEChem-02102214153D

 34 33  0     1  0  0  0  0  0999 V2000
   -3.7392   -4.0642    1.8074 H   0  0  0  0  0  0  0  0  0  0  0  0
   -3.7493   -3.0110    1.5125 C   0  0  0  0  0  0  0  0  0  0  0  0
   -4.1375   -2.4192    2.3457 H   0  0  0  0  0  0  0  0  0  0  0  0
   -4.4121   -2.8899    0.6525 H   0  0  0  0  0  0  0  0  0  0  0  0
   -2.3478   -2.5491    1.1618 C   0  0  0  0  0  0  0  0  0  0  0  0
   -1.4229   -3.3479    1.1643 O   0  0  0  0  0  0  0  0  0  0  0  0
   -2.1430   -1.2558    0.7304 N   0  0  0  0  0  0  0  0  0  0  0  0
   -2.9654   -0.6493    0.7583 H   0  0  0  0  0  0  0  0  0  0  0  0
   -0.8586   -0.5336    0.7849 C   0  0  1  0  0  0  0  0  0  0  0  0
   -0.1860   -1.0277    1.4944 H   0  0  0  0  0  0  0  0  0  0  0  0
   -0.2003   -0.5002   -0.6086 C   0  0  0  0  0  0  0  0  0  0  0  0
   -0.9226   -0.1681   -1.3628 H   0  0  0  0  0  0  0  0  0  0  0  0
    0.6052    0.2422   -0.5900 H   0  0  0  0  0  0  0  0  0  0  0  0
    0.4147   -1.8612   -0.9811 C   0  0  0  0  0  0  0  0  0  0  0  0
    1.4053   -1.6908   -1.4169 H   0  0  0  0  0  0  0  0  0  0  0  0
    0.5727   -2.4648   -0.0823 H   0  0  0  0  0  0  0  0  0  0  0  0
   -0.4361   -2.6155   -2.0079 C   0  0  0  0  0  0  0  0  0  0  0  0
   -1.4950   -2.5207   -1.7447 H   0  0  0  0  0  0  0  0  0  0  0  0
   -0.2924   -2.1823   -3.0037 H   0  0  0  0  0  0  0  0  0  0  0  0
   -0.0429   -4.0896   -1.9860 C   0  0  0  0  0  0  0  0  0  0  0  0
    1.0107   -4.1908   -2.2838 H   0  0  0  0  0  0  0  0  0  0  0  0
   -0.1267   -4.4615   -0.9525 H   0  0  0  0  0  0  0  0  0  0  0  0
   -0.9354   -4.8437   -2.8901 N   0  3  0  0  0  0  0  0  0  0  0  0
   -0.8787   -4.4621   -3.8356 H   0  0  0  0  0  0  0  0  0  0  0  0
   -0.6633   -5.8285   -2.9088 H   0  0  0  0  0  0  0  0  0  0  0  0
   -1.8988   -4.7723   -2.5580 H   0  0  0  0  0  0  0  0  0  0  0  0
   -1.0911    0.8948    1.3181 C   0  0  0  0  0  0  0  0  0  0  0  0
   -2.0887    1.5044    0.9541 O   0  0  0  0  0  0  0  0  0  0  0  0
   -0.2621    1.4486    2.2758 N   0  0  0  0  0  0  0  0  0  0  0  0
    0.5232    0.8962    2.6089 H   0  0  0  0  0  0  0  0  0  0  0  0
   -0.4958    2.7627    2.8667 C   0  0  0  0  0  0  0  0  0  0  0  0
   -1.4567    2.7828    3.3921 H   0  0  0  0  0  0  0  0  0  0  0  0
    0.2950    3.0024    3.5846 H   0  0  0  0  0  0  0  0  0  0  0  0
   -0.5034    3.5369    2.0918 H   0  0  0  0  0  0  0  0  0  0  0  0
  1  2  1  0  0  0  0
  2  3  1  0  0  0  0
  2  4  1  0  0  0  0
  2  5  1  0  0  0  0
  5  6  2  0  0  0  0
  5  7  1  0  0  0  0
  7  8  1  0  0  0  0
  7  9  1  0  0  0  0
  9 10  1  0  0  0  0
  9 11  1  0  0  0  0
  9 27  1  0  0  0  0
 11 12  1  0  0  0  0
 11 13  1  0  0  0  0
 11 14  1  0  0  0  0
 14 15  1  0  0  0  0
 14 16  1  0  0  0  0
 14 17  1  0  0  0  0
 17 18  1  0  0  0  0
 17 19  1  0  0  0  0
 17 20  1  0  0  0  0
 20 21  1  0  0  0  0
 20 22  1  0  0  0  0
 20 23  1  0  0  0  0
 23 24  1  0  0  0  0
 23 25  1  0  0  0  0
 23 26  1  0  0  0  0
 27 28  2  0  0  0  0
 27 29  1  0  0  0  0
 29 30  1  0  0  0  0
 29 31  1  0  0  0  0
 31 32  1  0  0  0  0
 31 33  1  0  0  0  0
 31 34  1  0  0  0  0
M  CHG  1  23   1
M  END
$$$$

  -OEChem-02102214153D

 34 33  0     1  0  0  0  0  0999 V2000
   -3.8386   -3.9845    1.9582 H   0  0  0  0  0  0  0  0  0  0  0  0
   -3.8252   -2.9799    1.5260 C   0  0  0  0  0  0  0  0  0  0  0  0
   -4.3343   -2.2979    2.2120 H   0  0  0  0  0  0  0  0  0  0  0  0
   -4.3640   -2.9961    0.5758 H   0  0  0  0  0  0  0  0  0  0  0  0
   -2.3956   -2.5223    1.3074 C   0  0  0  0  0  0  0  0  0  0  0  0
   -1.4698   -3.2902    1.5142 O   0  0  0  0  0  0  0  0  0  0  0  0
   -2.1521   -1.2545    0.8229 N   0  0  0  0  0  0  0  0  0  0  0  0
   -2.9679   -0.6448    0.7437 H   0  0  0  0  0  0  0  0  0  0  0  0
   -0.8546   -0.5560    0.8638 C   0  0  1  0  0  0  0  0  0  0  0  0
   -0.1840   -1.0372    1.5843 H   0  0  0  0  0  0  0  0  0  0  0  0
   -0.2089   -0.5630   -0.5359 C   0  0  0  0  0  0  0  0  0  0  0  0
   -0.9476   -0.2365   -1.2763 H   0  0  0  0  0  0  0  0  0  0  0  0
    0.6024    0.1734   -0.5524 H   0  0  0  0  0  0  0  0  0  0  0  0
    0.3825   -1.9350   -0.9126 C   0  0  0  0  0  0  0  0  0  0  0  0
    1.4560   -1.8131   -1.0950 H   0  0  0  0  0  0  0  0  0  0  0  0
    0.2869   -2.6403   -0.0840 H   0  0  0  0  0  0  0  0  0  0  0  0
   -0.2714   -2.5102   -2.1715 C   0  0  0  0  0  0  0  0  0  0  0  0
   -1.3580   -2.5335   -2.0320 H   0  0  0  0  0  0  0  0  0  0  0  0
   -0.0495   -1.8686   -3.0312 H   0  0  0  0  0  0  0  0  0  0  0  0
    0.2490   -3.9254   -2.4065 C   0  0  0  0  0  0  0  0  0  0  0  0
    1.3359   -3.8894   -2.5706 H   0  0  0  0  0  0  0  0  0  0  0  0
    0.0780   -4.5237   -1.4985 H   0  0  0  0  0  0  0  0  0  0  0  0
   -0.4508   -4.5140   -3.5680 N   0  3  0  0  0  0  0  0  0  0  0  0
   -0.2944   -3.9396   -4.3981 H   0  0  0  0  0  0  0  0  0  0  0  0
   -0.1026   -5.4585   -3.7455 H   0  0  0  0  0  0  0  0  0  0  0  0
   -1.4539   -4.5606   -3.3801 H   0  0  0  0  0  0  0  0  0  0  0  0
   -1.0711    0.8979    1.3309 C   0  0  0  0  0  0  0  0  0  0  0  0
   -2.0314    1.5213    0.8958 O   0  0  0  0  0  0  0  0  0  0  0  0
   -0.2476    1.4801    2.2762 N   0  0  0  0  0  0  0  0  0  0  0  0
    0.4983    0.9160    2.6740 H   0  0  0  0  0  0  0  0  0  0  0  0
   -0.4634    2.8262    2.7981 C   0  0  0  0  0  0  0  0  0  0  0  0
   -1.4318    2.8910    3.3058 H   0  0  0  0  0  0  0  0  0  0  0  0
    0.3206    3.0859    3.5162 H   0  0  0  0  0  0  0  0  0  0  0  0
   -0.4426    3.5615    1.9864 H   0  0  0  0  0  0  0  0  0  0  0  0
  1  2  1  0  0  0  0
  2  3  1  0  0  0  0
  2  4  1  0  0  0  0
  2  5  1  0  0  0  0
  5  6  2  0  0  0  0
  5  7  1  0  0  0  0
  7  8  1  0  0  0  0
  7  9  1  0  0  0  0
  9 10  1  0  0  0  0
  9 11  1  0  0  0  0
  9 27  1  0  0  0  0
 11 12  1  0  0  0  0
 11 13  1  0  0  0  0
 11 14  1  0  0  0  0
 14 15  1  0  0  0  0
 14 16  1  0  0  0  0
 14 17  1  0  0  0  0
 17 18  1  0  0  0  0
 17 19  1  0  0  0  0
 17 20  1  0  0  0  0
 20 21  1  0  0  0  0
 20 22  1  0  0  0  0
 20 23  1  0  0  0  0
 23 24  1  0  0  0  0
 23 25  1  0  0  0  0
 23 26  1  0  0  0  0
 27 28  2  0  0  0  0
 27 29  1  0  0  0  0
 29 30  1  0  0  0  0
 29 31  1  0  0  0  0
 31 32  1  0  0  0  0
 31 33  1  0  0  0  0
 31 34  1  0  0  0  0
M  CHG  1  23   1
M  END
$$$$

  -OEChem-02102214153D

 34 33  0     1  0  0  0  0  0999 V2000
   -3.8631   -3.9835    1.9731 H   0  0  0  0  0  0  0  0  0  0  0  0
   -3.8432   -2.9808    1.5367 C   0  0  0  0  0  0  0  0  0  0  0  0
   -4.3873   -2.3010    2.1973 H   0  0  0  0  0  0  0  0  0  0  0  0
   -4.3424   -3.0082    0.5654 H   0  0  0  0  0  0  0  0  0  0  0  0
   -2.4111   -2.5086    1.3736 C   0  0  0  0  0  0  0  0  0  0  0  0
   -1.4858   -3.2434    1.6799 O   0  0  0  0  0  0  0  0  0  0  0  0
   -2.1582   -1.2539    0.8588 N   0  0  0  0  0  0  0  0  0  0  0  0
   -2.9701   -0.6492    0.7241 H   0  0  0  0  0  0  0  0  0  0  0  0
   -0.8535   -0.5694    0.8880 C   0  0  1  0  0  0  0  0  0  0  0  0
   -0.1836   -1.0438    1.6134 H   0  0  0  0  0  0  0  0  0  0  0  0
   -0.2079   -0.5897   -0.5133 C   0  0  0  0  0  0  0  0  0  0  0  0
   -0.9630   -0.2749   -1.2426 H   0  0  0  0  0  0  0  0  0  0  0  0
    0.6005    0.1490   -0.5531 H   0  0  0  0  0  0  0  0  0  0  0  0
    0.3728   -1.9648   -0.8962 C   0  0  0  0  0  0  0  0  0  0  0  0
    1.4626   -1.9346   -0.7878 H   0  0  0  0  0  0  0  0  0  0  0  0
    0.0079   -2.7372   -0.2169 H   0  0  0  0  0  0  0  0  0  0  0  0
   -0.0034   -2.3565   -2.3283 C   0  0  0  0  0  0  0  0  0  0  0  0
   -1.0946   -2.3524   -2.4284 H   0  0  0  0  0  0  0  0  0  0  0  0
    0.4077   -1.6229   -3.0304 H   0  0  0  0  0  0  0  0  0  0  0  0
    0.5389   -3.7501   -2.6350 C   0  0  0  0  0  0  0  0  0  0  0  0
    1.6351   -3.7410   -2.5440 H   0  0  0  0  0  0  0  0  0  0  0  0
    0.1577   -4.4566   -1.8822 H   0  0  0  0  0  0  0  0  0  0  0  0
    0.1170   -4.1456   -3.9959 N   0  3  0  0  0  0  0  0  0  0  0  0
    0.4826   -3.4824   -4.6817 H   0  0  0  0  0  0  0  0  0  0  0  0
    0.4699   -5.0796   -4.2153 H   0  0  0  0  0  0  0  0  0  0  0  0
   -0.9031   -4.1547   -4.0546 H   0  0  0  0  0  0  0  0  0  0  0  0
   -1.0604    0.8961    1.3232 C   0  0  0  0  0  0  0  0  0  0  0  0
   -2.0006    1.5264    0.8548 O   0  0  0  0  0  0  0  0  0  0  0  0
   -0.2350    1.4901    2.2596 N   0  0  0  0  0  0  0  0  0  0  0  0
    0.4824    0.9165    2.6946 H   0  0  0  0  0  0  0  0  0  0  0  0
   -0.4534    2.8417    2.7661 C   0  0  0  0  0  0  0  0  0  0  0  0
   -1.4209    2.9097    3.2753 H   0  0  0  0  0  0  0  0  0  0  0  0
    0.3316    3.1122    3.4791 H   0  0  0  0  0  0  0  0  0  0  0  0
   -0.4371    3.5674    1.9458 H   0  0  0  0  0  0  0  0  0  0  0  0
  1  2  1  0  0  0  0
  2  3  1  0  0  0  0
  2  4  1  0  0  0  0
  2  5  1  0  0  0  0
  5  6  2  0  0  0  0
  5  7  1  0  0  0  0
  7  8  1  0  0  0  0
  7  9  1  0  0  0  0
  9 10  1  0  0  0  0
  9 11  1  0  0  0  0
  9 27  1  0  0  0  0
 11 12  1  0  0  0  0
 11 13  1  0  0  0  0
 11 14  1  0  0  0  0
 14 15  1  0  0  0  0
 14 16  1  0  0  0  0
 14 17  1  0  0  0  0
 17 18  1  0  0  0  0
 17 19  1  0  0  0  0
 17 20  1  0  0  0  0
 20 21  1  0  0  0  0
 20 22  1  0  0  0  0
 20 23  1  0  0  0  0
 23 24  1  0  0  0  0
 23 25  1  0  0  0  0
 23 26  1  0  0  0  0
 27 28  2  0  0  0  0
 27 29  1  0  0  0  0
 29 30  1  0  0  0  0
 29 31  1  0  0  0  0
 31 32  1  0  0  0  0
 31 33  1  0  0  0  0
 31 34  1  0  0  0  0
M  CHG  1  23   1
M  END
$$$$

  -OEChem-02102214153D

 34 33  0     1  0  0  0  0  0999 V2000
   -3.8546   -3.9908    1.9653 H   0  0  0  0  0  0  0  0  0  0  0  0
   -3.8415   -2.9901    1.5240 C   0  0  0  0  0  0  0  0  0  0  0  0
   -4.3990   -2.3131    2.1764 H   0  0  0  0  0  0  0  0  0  0  0  0
   -4.3314   -3.0285    0.5482 H   0  0  0  0  0  0  0  0  0  0  0  0
   -2.4129   -2.5034    1.3717 C   0  0  0  0  0  0  0  0  0  0  0  0
   -1.4814   -3.2269    1.6874 O   0  0  0  0  0  0  0  0  0  0  0  0
   -2.1650   -1.2476    0.8569 N   0  0  0  0  0  0  0  0  0  0  0  0
   -2.9774   -0.6454    0.7158 H   0  0  0  0  0  0  0  0  0  0  0  0
   -0.8584   -0.5681    0.8853 C   0  0  1  0  0  0  0  0  0  0  0  0
   -0.1885   -1.0455    1.6086 H   0  0  0  0  0  0  0  0  0  0  0  0
   -0.2119   -0.5862   -0.5156 C   0  0  0  0  0  0  0  0  0  0  0  0
   -0.9720   -0.2790   -1.2426 H   0  0  0  0  0  0  0  0  0  0  0  0
    0.5960    0.1526   -0.5611 H   0  0  0  0  0  0  0  0  0  0  0  0
    0.3615   -1.9632   -0.8961 C   0  0  0  0  0  0  0  0  0  0  0  0
    1.3889   -2.0438   -0.5246 H   0  0  0  0  0  0  0  0  0  0  0  0
   -0.2204   -2.7556   -0.4205 H   0  0  0  0  0  0  0  0  0  0  0  0
    0.3125   -2.1898   -2.4101 C   0  0  0  0  0  0  0  0  0  0  0  0
   -0.7237   -2.1052   -2.7560 H   0  0  0  0  0  0  0  0  0  0  0  0
    0.9062   -1.4200   -2.9154 H   0  0  0  0  0  0  0  0  0  0  0  0
    0.8573   -3.5782   -2.7362 C   0  0  0  0  0  0  0  0  0  0  0  0
    1.9007   -3.6473   -2.3948 H   0  0  0  0  0  0  0  0  0  0  0  0
    0.2835   -4.3307   -2.1746 H   0  0  0  0  0  0  0  0  0  0  0  0
    0.7536   -3.8087   -4.1932 N   0  3  0  0  0  0  0  0  0  0  0  0
    1.2946   -3.1038   -4.6976 H   0  0  0  0  0  0  0  0  0  0  0  0
    1.1142   -4.7359   -4.4286 H   0  0  0  0  0  0  0  0  0  0  0  0
   -0.2235   -3.7488   -4.4860 H   0  0  0  0  0  0  0  0  0  0  0  0
   -1.0590    0.8972    1.3241 C   0  0  0  0  0  0  0  0  0  0  0  0
   -1.9914    1.5356    0.8517 O   0  0  0  0  0  0  0  0  0  0  0  0
   -0.2299    1.4865    2.2603 N   0  0  0  0  0  0  0  0  0  0  0  0
    0.4769    0.9058    2.7031 H   0  0  0  0  0  0  0  0  0  0  0  0
   -0.4391    2.8406    2.7635 C   0  0  0  0  0  0  0  0  0  0  0  0
   -1.4040    2.9152    3.2765 H   0  0  0  0  0  0  0  0  0  0  0  0
    0.3503    3.1096    3.4722 H   0  0  0  0  0  0  0  0  0  0  0  0
   -0.4228    3.5628    1.9402 H   0  0  0  0  0  0  0  0  0  0  0  0
  1  2  1  0  0  0  0
  2  3  1  0  0  0  0
  2  4  1  0  0  0  0
  2  5  1  0  0  0  0
  5  6  2  0  0  0  0
  5  7  1  0  0  0  0
  7  8  1  0  0  0  0
  7  9  1  0  0  0  0
  9 10  1  0  0  0  0
  9 11  1  0  0  0  0
  9 27  1  0  0  0  0
 11 12  1  0  0  0  0
 11 13  1  0  0  0  0
 11 14  1  0  0  0  0
 14 15  1  0  0  0  0
 14 16  1  0  0  0  0
 14 17  1  0  0  0  0
 17 18  1  0  0  0  0
 17 19  1  0  0  0  0
 17 20  1  0  0  0  0
 20 21  1  0  0  0  0
 20 22  1  0  0  0  0
 20 23  1  0  0  0  0
 23 24  1  0  0  0  0
 23 25  1  0  0  0  0
 23 26  1  0  0  0  0
 27 28  2  0  0  0  0
 27 29  1  0  0  0  0
 29 30  1  0  0  0  0
 29 31  1  0  0  0  0
 31 32  1  0  0  0  0
 31 33  1  0  0  0  0
 31 34  1  0  0  0  0
M  CHG  1  23   1
M  END
$$$$

  -OEChem-02102214153D

 34 33  0     1  0  0  0  0  0999 V2000
   -3.8189   -3.9992    1.9453 H   0  0  0  0  0  0  0  0  0  0  0  0
   -3.8202   -2.9985    1.5041 C   0  0  0  0  0  0  0  0  0  0  0  0
   -4.3757   -2.3264    2.1630 H   0  0  0  0  0  0  0  0  0  0  0  0
   -4.3208   -3.0410    0.5340 H   0  0  0  0  0  0  0  0  0  0  0  0
   -2.3983   -2.4994    1.3347 C   0  0  0  0  0  0  0  0  0  0  0  0
   -1.4542   -3.2202    1.6196 O   0  0  0  0  0  0  0  0  0  0  0  0
   -2.1666   -1.2357    0.8320 N   0  0  0  0  0  0  0  0  0  0  0  0
   -2.9839   -0.6365    0.7068 H   0  0  0  0  0  0  0  0  0  0  0  0
   -0.8628   -0.5527    0.8674 C   0  0  1  0  0  0  0  0  0  0  0  0
   -0.1933   -1.0350    1.5880 H   0  0  0  0  0  0  0  0  0  0  0  0
   -0.2154   -0.5662   -0.5312 C   0  0  0  0  0  0  0  0  0  0  0  0
   -0.9694   -0.2621   -1.2655 H   0  0  0  0  0  0  0  0  0  0  0  0
    0.5951    0.1699   -0.5688 H   0  0  0  0  0  0  0  0  0  0  0  0
    0.3548   -1.9456   -0.8985 C   0  0  0  0  0  0  0  0  0  0  0  0
    1.2596   -2.1354   -0.3103 H   0  0  0  0  0  0  0  0  0  0  0  0
   -0.3726   -2.7234   -0.6498 H   0  0  0  0  0  0  0  0  0  0  0  0
    0.6537   -2.0371   -2.3980 C   0  0  0  0  0  0  0  0  0  0  0  0
   -0.2644   -1.8428   -2.9636 H   0  0  0  0  0  0  0  0  0  0  0  0
    1.3908   -1.2741   -2.6716 H   0  0  0  0  0  0  0  0  0  0  0  0
    1.1856   -3.4291   -2.7312 C   0  0  0  0  0  0  0  0  0  0  0  0
    2.1143   -3.6064   -2.1690 H   0  0  0  0  0  0  0  0  0  0  0  0
    0.4573   -4.1827   -2.3958 H   0  0  0  0  0  0  0  0  0  0  0  0
    1.4159   -3.5233   -4.1891 N   0  3  0  0  0  0  0  0  0  0  0  0
    2.0929   -2.8165   -4.4825 H   0  0  0  0  0  0  0  0  0  0  0  0
    1.7773   -4.4491   -4.4284 H   0  0  0  0  0  0  0  0  0  0  0  0
    0.5388   -3.3702   -4.6905 H   0  0  0  0  0  0  0  0  0  0  0  0
   -1.0623    0.9074    1.3234 C   0  0  0  0  0  0  0  0  0  0  0  0
   -1.9931    1.5534    0.8586 O   0  0  0  0  0  0  0  0  0  0  0  0
   -0.2308    1.4851    2.2649 N   0  0  0  0  0  0  0  0  0  0  0  0
    0.4720    0.8966    2.7034 H   0  0  0  0  0  0  0  0  0  0  0  0
   -0.4380    2.8332    2.7856 C   0  0  0  0  0  0  0  0  0  0  0  0
   -1.4025    2.9020    3.3003 H   0  0  0  0  0  0  0  0  0  0  0  0
    0.3525    3.0914    3.4974 H   0  0  0  0  0  0  0  0  0  0  0  0
   -0.4210    3.5673    1.9727 H   0  0  0  0  0  0  0  0  0  0  0  0
  1  2  1  0  0  0  0
  2  3  1  0  0  0  0
  2  4  1  0  0  0  0
  2  5  1  0  0  0  0
  5  6  2  0  0  0  0
  5  7  1  0  0  0  0
  7  8  1  0  0  0  0
  7  9  1  0  0  0  0
  9 10  1  0  0  0  0
  9 11  1  0  0  0  0
  9 27  1  0  0  0  0
 11 12  1  0  0  0  0
 11 13  1  0  0  0  0
 11 14  1  0  0  0  0
 14 15  1  0  0  0  0
 14 16  1  0  0  0  0
 14 17  1  0  0  0  0
 17 18  1  0  0  0  0
 17 19  1  0  0  0  0
 17 20  1  0  0  0  0
 20 21  1  0  0  0  0
 20 22  1  0  0  0  0
 20 23  1  0  0  0  0
 23 24  1  0  0  0  0
 23 25  1  0  0  0  0
 23 26  1  0  0  0  0
 27 28  2  0  0  0  0
 27 29  1  0  0  0  0
 29 30  1  0  0  0  0
 29 31  1  0  0  0  0
 31 32  1  0  0  0  0
 31 33  1  0  0  0  0
 31 34  1  0  0  0  0
M  CHG  1  23   1
M  END
$$$$

  -OEChem-02102214153D

 34 33  0     1  0  0  0  0  0999 V2000
   -3.8083   -4.0012    1.9697 H   0  0  0  0  0  0  0  0  0  0  0  0
   -3.8272   -2.9985    1.5335 C   0  0  0  0  0  0  0  0  0  0  0  0
   -4.3584   -2.3302    2.2159 H   0  0  0  0  0  0  0  0  0  0  0  0
   -4.3639   -3.0370    0.5826 H   0  0  0  0  0  0  0  0  0  0  0  0
   -2.4129   -2.4979    1.3123 C   0  0  0  0  0  0  0  0  0  0  0  0
   -1.4583   -3.2305    1.5241 O   0  0  0  0  0  0  0  0  0  0  0  0
   -2.1981   -1.2264    0.8214 N   0  0  0  0  0  0  0  0  0  0  0  0
   -3.0186   -0.6244    0.7381 H   0  0  0  0  0  0  0  0  0  0  0  0
   -0.8948   -0.5414    0.8445 C   0  0  1  0  0  0  0  0  0  0  0  0
   -0.2274   -1.0371    1.5579 H   0  0  0  0  0  0  0  0  0  0  0  0
   -0.2379   -0.5601   -0.5495 C   0  0  0  0  0  0  0  0  0  0  0  0
   -0.8857   -0.0275   -1.2547 H   0  0  0  0  0  0  0  0  0  0  0  0
    0.7142   -0.0212   -0.5011 H   0  0  0  0  0  0  0  0  0  0  0  0
    0.0103   -1.9875   -1.0625 C   0  0  0  0  0  0  0  0  0  0  0  0
    0.6510   -2.5210   -0.3511 H   0  0  0  0  0  0  0  0  0  0  0  0
   -0.9404   -2.5271   -1.1259 H   0  0  0  0  0  0  0  0  0  0  0  0
    0.6635   -1.9725   -2.4469 C   0  0  0  0  0  0  0  0  0  0  0  0
    0.0136   -1.4396   -3.1499 H   0  0  0  0  0  0  0  0  0  0  0  0
    1.6201   -1.4409   -2.3951 H   0  0  0  0  0  0  0  0  0  0  0  0
    0.8840   -3.4076   -2.9193 C   0  0  0  0  0  0  0  0  0  0  0  0
    1.5368   -3.9268   -2.2020 H   0  0  0  0  0  0  0  0  0  0  0  0
   -0.0793   -3.9390   -2.9208 H   0  0  0  0  0  0  0  0  0  0  0  0
    1.4834   -3.3880   -4.2711 N   0  3  0  0  0  0  0  0  0  0  0  0
    2.3781   -2.8949   -4.2495 H   0  0  0  0  0  0  0  0  0  0  0  0
    1.6389   -4.3436   -4.5995 H   0  0  0  0  0  0  0  0  0  0  0  0
    0.8574   -2.9109   -4.9229 H   0  0  0  0  0  0  0  0  0  0  0  0
   -1.0736    0.9139    1.3211 C   0  0  0  0  0  0  0  0  0  0  0  0
   -2.0132    1.5691    0.8885 O   0  0  0  0  0  0  0  0  0  0  0  0
   -0.2196    1.4740    2.2531 N   0  0  0  0  0  0  0  0  0  0  0  0
    0.4929    0.8775    2.6647 H   0  0  0  0  0  0  0  0  0  0  0  0
   -0.4102    2.8152    2.7971 C   0  0  0  0  0  0  0  0  0  0  0  0
   -1.3667    2.8827    3.3267 H   0  0  0  0  0  0  0  0  0  0  0  0
    0.3922    3.0582    3.5007 H   0  0  0  0  0  0  0  0  0  0  0  0
   -0.4008    3.5604    1.9944 H   0  0  0  0  0  0  0  0  0  0  0  0
  1  2  1  0  0  0  0
  2  3  1  0  0  0  0
  2  4  1  0  0  0  0
  2  5  1  0  0  0  0
  5  6  2  0  0  0  0
  5  7  1  0  0  0  0
  7  8  1  0  0  0  0
  7  9  1  0  0  0  0
  9 10  1  0  0  0  0
  9 11  1  0  0  0  0
  9 27  1  0  0  0  0
 11 12  1  0  0  0  0
 11 13  1  0  0  0  0
 11 14  1  0  0  0  0
 14 15  1  0  0  0  0
 14 16  1  0  0  0  0
 14 17  1  0  0  0  0
 17 18  1  0  0  0  0
 17 19  1  0  0  0  0
 17 20  1  0  0  0  0
 20 21  1  0  0  0  0
 20 22  1  0  0  0  0
 20 23  1  0  0  0  0
 23 24  1  0  0  0  0
 23 25  1  0  0  0  0
 23 26  1  0  0  0  0
 27 28  2  0  0  0  0
 27 29  1  0  0  0  0
 29 30  1  0  0  0  0
 29 31  1  0  0  0  0
 31 32  1  0  0  0  0
 31 33  1  0  0  0  0
 31 34  1  0  0  0  0
M  CHG  1  23   1
M  END
$$$$

  -OEChem-02102214153D

 34 33  0     1  0  0  0  0  0999 V2000
   -3.7811   -4.0144    1.9242 H   0  0  0  0  0  0  0  0  0  0  0  0
   -3.8014   -3.0136    1.4837 C   0  0  0  0  0  0  0  0  0  0  0  0
   -4.3523   -2.3479    2.1530 H   0  0  0  0  0  0  0  0  0  0  0  0
   -4.3187   -3.0610    0.5225 H   0  0  0  0  0  0  0  0  0  0  0  0
   -2.3883   -2.4990    1.2887 C   0  0  0  0  0  0  0  0  0  0  0  0
   -1.4313   -3.2228    1.5189 O   0  0  0  0  0  0  0  0  0  0  0  0
   -2.1778   -1.2225    0.8094 N   0  0  0  0  0  0  0  0  0  0  0  0
   -3.0033   -0.6299    0.7100 H   0  0  0  0  0  0  0  0  0  0  0  0
   -0.8815   -0.5248    0.8442 C   0  0  1  0  0  0  0  0  0  0  0  0
   -0.2106   -1.0198    1.5548 H   0  0  0  0  0  0  0  0  0  0  0  0
   -0.2324   -0.5355   -0.5530 C   0  0  0  0  0  0  0  0  0  0  0  0
   -0.8749   -0.0023   -1.2629 H   0  0  0  0  0  0  0  0  0  0  0  0
    0.7184    0.0049   -0.4954 H   0  0  0  0  0  0  0  0  0  0  0  0
    0.0193   -1.9640   -1.0616 C   0  0  0  0  0  0  0  0  0  0  0  0
    0.4561   -2.5617   -0.2534 H   0  0  0  0  0  0  0  0  0  0  0  0
   -0.9346   -2.4250   -1.3409 H   0  0  0  0  0  0  0  0  0  0  0  0
    0.9776   -1.9743   -2.2555 C   0  0  0  0  0  0  0  0  0  0  0  0
    0.5533   -1.3708   -3.0655 H   0  0  0  0  0  0  0  0  0  0  0  0
    1.9352   -1.5298   -1.9627 H   0  0  0  0  0  0  0  0  0  0  0  0
    1.1885   -3.4124   -2.7236 C   0  0  0  0  0  0  0  0  0  0  0  0
    1.6067   -4.0038   -1.8953 H   0  0  0  0  0  0  0  0  0  0  0  0
    0.2141   -3.8561   -2.9758 H   0  0  0  0  0  0  0  0  0  0  0  0
    2.0941   -3.4152   -3.8928 N   0  3  0  0  0  0  0  0  0  0  0  0
    2.9920   -2.9987   -3.6395 H   0  0  0  0  0  0  0  0  0  0  0  0
    2.2512   -4.3736   -4.2125 H   0  0  0  0  0  0  0  0  0  0  0  0
    1.6809   -2.8748   -4.6553 H   0  0  0  0  0  0  0  0  0  0  0  0
   -1.0708    0.9266    1.3294 C   0  0  0  0  0  0  0  0  0  0  0  0
   -2.0099    1.5811    0.8951 O   0  0  0  0  0  0  0  0  0  0  0  0
   -0.2228    1.4838    2.2686 N   0  0  0  0  0  0  0  0  0  0  0  0
    0.4813    0.8832    2.6881 H   0  0  0  0  0  0  0  0  0  0  0  0
   -0.4197    2.8206    2.8211 C   0  0  0  0  0  0  0  0  0  0  0  0
   -1.3800    2.8832    3.3442 H   0  0  0  0  0  0  0  0  0  0  0  0
    0.3771    3.0585    3.5327 H   0  0  0  0  0  0  0  0  0  0  0  0
   -0.4046    3.5723    2.0246 H   0  0  0  0  0  0  0  0  0  0  0  0
  1  2  1  0  0  0  0
  2  3  1  0  0  0  0
  2  4  1  0  0  0  0
  2  5  1  0  0  0  0
  5  6  2  0  0  0  0
  5  7  1  0  0  0  0
  7  8  1  0  0  0  0
  7  9  1  0  0  0  0
  9 10  1  0  0  0  0
  9 11  1  0  0  0  0
  9 27  1  0  0  0  0
 11 12  1  0  0  0  0
 11 13  1  0  0  0  0
 11 14  1  0  0  0  0
 14 15  1  0  0  0  0
 14 16  1  0  0  0  0
 14 17  1  0  0  0  0
 17 18  1  0  0  0  0
 17 19  1  0  0  0  0
 17 20  1  0  0  0  0
 20 21  1  0  0  0  0
 20 22  1  0  0  0  0
 20 23  1  0  0  0  0
 23 24  1  0  0  0  0
 23 25  1  0  0  0  0
 23 26  1  0  0  0  0
 27 28  2  0  0  0  0
 27 29  1  0  0  0  0
 29 30  1  0  0  0  0
 29 31  1  0  0  0  0
 31 32  1  0  0  0  0
 31 33  1  0  0  0  0
 31 34  1  0  0  0  0
M  CHG  1  23   1
M  END
$$$$

  -OEChem-02102214153D

 34 33  0     1  0  0  0  0  0999 V2000
   -3.7917   -4.0221    1.8961 H   0  0  0  0  0  0  0  0  0  0  0  0
   -3.8002   -3.0209    1.4557 C   0  0  0  0  0  0  0  0  0  0  0  0
   -4.3769   -2.3575    2.1051 H   0  0  0  0  0  0  0  0  0  0  0  0
   -4.2832   -3.0699    0.4768 H   0  0  0  0  0  0  0  0  0  0  0  0
   -2.3831   -2.5007    1.3109 C   0  0  0  0  0  0  0  0  0  0  0  0
   -1.4343   -3.2129    1.6021 O   0  0  0  0  0  0  0  0  0  0  0  0
   -2.1616   -1.2277    0.8265 N   0  0  0  0  0  0  0  0  0  0  0  0
   -2.9854   -0.6412    0.6866 H   0  0  0  0  0  0  0  0  0  0  0  0
   -0.8665   -0.5280    0.8645 C   0  0  1  0  0  0  0  0  0  0  0  0
   -0.1934   -1.0185    1.5754 H   0  0  0  0  0  0  0  0  0  0  0  0
   -0.2233   -0.5328   -0.5367 C   0  0  0  0  0  0  0  0  0  0  0  0
   -0.8637    0.0070   -1.2435 H   0  0  0  0  0  0  0  0  0  0  0  0
    0.7246    0.0122   -0.4721 H   0  0  0  0  0  0  0  0  0  0  0  0
    0.0329   -1.9559   -1.0639 C   0  0  0  0  0  0  0  0  0  0  0  0
    0.2403   -2.6218   -0.2202 H   0  0  0  0  0  0  0  0  0  0  0  0
   -0.8680   -2.3245   -1.5669 H   0  0  0  0  0  0  0  0  0  0  0  0
    1.2417   -2.0082   -2.0031 C   0  0  0  0  0  0  0  0  0  0  0  0
    1.0645   -1.3471   -2.8585 H   0  0  0  0  0  0  0  0  0  0  0  0
    2.1340   -1.6543   -1.4751 H   0  0  0  0  0  0  0  0  0  0  0  0
    1.4514   -3.4443   -2.4787 C   0  0  0  0  0  0  0  0  0  0  0  0
    1.6065   -4.0943   -1.6044 H   0  0  0  0  0  0  0  0  0  0  0  0
    0.5383   -3.7947   -2.9822 H   0  0  0  0  0  0  0  0  0  0  0  0
    2.6143   -3.4910   -3.3911 N   0  3  0  0  0  0  0  0  0  0  0  0
    3.4507   -3.1594   -2.9071 H   0  0  0  0  0  0  0  0  0  0  0  0
    2.7729   -4.4500   -3.7082 H   0  0  0  0  0  0  0  0  0  0  0  0
    2.4437   -2.8965   -4.2045 H   0  0  0  0  0  0  0  0  0  0  0  0
   -1.0646    0.9256    1.3394 C   0  0  0  0  0  0  0  0  0  0  0  0
   -1.9981    1.5773    0.8893 O   0  0  0  0  0  0  0  0  0  0  0  0
   -0.2251    1.4917    2.2810 N   0  0  0  0  0  0  0  0  0  0  0  0
    0.4698    0.8930    2.7182 H   0  0  0  0  0  0  0  0  0  0  0  0
   -0.4297    2.8331    2.8194 C   0  0  0  0  0  0  0  0  0  0  0  0
   -1.3925    2.8965    3.3378 H   0  0  0  0  0  0  0  0  0  0  0  0
    0.3634    3.0820    3.5314 H   0  0  0  0  0  0  0  0  0  0  0  0
   -0.4147    3.5768    2.0153 H   0  0  0  0  0  0  0  0  0  0  0  0
  1  2  1  0  0  0  0
  2  3  1  0  0  0  0
  2  4  1  0  0  0  0
  2  5  1  0  0  0  0
  5  6  2  0  0  0  0
  5  7  1  0  0  0  0
  7  8  1  0  0  0  0
  7  9  1  0  0  0  0
  9 10  1  0  0  0  0
  9 11  1  0  0  0  0
  9 27  1  0  0  0  0
 11 12  1  0  0  0  0
 11 13  1  0  0  0  0
 11 14  1  0  0  0  0
 14 15  1  0  0  0  0
 14 16  1  0  0  0  0
 14 17  1  0  0  0  0
 17 18  1  0  0  0  0
 17 19  1  0  0  0  0
 17 20  1  0  0  0  0
 20 21  1  0  0  0  0
 20 22  1  0  0  0  0
 20 23  1  0  0  0  0
 23 24  1  0  0  0  0
 23 25  1  0  0  0  0
 23 26  1  0  0  0  0
 27 28  2  0  0  0  0
 27 29  1  0  0  0  0
 29 30  1  0  0  0  0
 29 31  1  0  0  0  0
 31 32  1  0  0  0  0
 31 33  1  0  0  0  0
 31 34  1  0  0  0  0
M  CHG  1  23   1
M  END
$$$$

  -OEChem-02102214153D

 34 33  0     1  0  0  0  0  0999 V2000
   -3.8173   -4.0269    1.8882 H   0  0  0  0  0  0  0  0  0  0  0  0
   -3.8136   -3.0264    1.4462 C   0  0  0  0  0  0  0  0  0  0  0  0
   -4.4147   -2.3639    2.0743 H   0  0  0  0  0  0  0  0  0  0  0  0
   -4.2628   -3.0788    0.4516 H   0  0  0  0  0  0  0  0  0  0  0  0
   -2.3936   -2.5017    1.3490 C   0  0  0  0  0  0  0  0  0  0  0  0
   -1.4554   -3.2012    1.6999 O   0  0  0  0  0  0  0  0  0  0  0  0
   -2.1589   -1.2351    0.8533 N   0  0  0  0  0  0  0  0  0  0  0  0
   -2.9787   -0.6540    0.6733 H   0  0  0  0  0  0  0  0  0  0  0  0
   -0.8615   -0.5382    0.8865 C   0  0  1  0  0  0  0  0  0  0  0  0
   -0.1880   -1.0258    1.5992 H   0  0  0  0  0  0  0  0  0  0  0  0
   -0.2170   -0.5383   -0.5158 C   0  0  0  0  0  0  0  0  0  0  0  0
   -0.8629    0.0038   -1.2160 H   0  0  0  0  0  0  0  0  0  0  0  0
    0.7249    0.0172   -0.4517 H   0  0  0  0  0  0  0  0  0  0  0  0
    0.0480   -1.9515   -1.0707 C   0  0  0  0  0  0  0  0  0  0  0  0
   -0.0072   -2.6831   -0.2612 H   0  0  0  0  0  0  0  0  0  0  0  0
   -0.7306   -2.2053   -1.7987 H   0  0  0  0  0  0  0  0  0  0  0  0
    1.4399   -2.0715   -1.7002 C   0  0  0  0  0  0  0  0  0  0  0  0
    1.5226   -1.3703   -2.5380 H   0  0  0  0  0  0  0  0  0  0  0  0
    2.2021   -1.8107   -0.9577 H   0  0  0  0  0  0  0  0  0  0  0  0
    1.6547   -3.5041   -2.1844 C   0  0  0  0  0  0  0  0  0  0  0  0
    1.5364   -4.1921   -1.3336 H   0  0  0  0  0  0  0  0  0  0  0  0
    0.8736   -3.7589   -2.9159 H   0  0  0  0  0  0  0  0  0  0  0  0
    3.0028   -3.6231   -2.7809 N   0  3  0  0  0  0  0  0  0  0  0  0
    3.7130   -3.3806   -2.0877 H   0  0  0  0  0  0  0  0  0  0  0  0
    3.1629   -4.5820   -3.0976 H   0  0  0  0  0  0  0  0  0  0  0  0
    3.0887   -2.9914   -3.5794 H   0  0  0  0  0  0  0  0  0  0  0  0
   -1.0608    0.9207    1.3463 C   0  0  0  0  0  0  0  0  0  0  0  0
   -1.9883    1.5707    0.8813 O   0  0  0  0  0  0  0  0  0  0  0  0
   -0.2239    1.4966    2.2843 N   0  0  0  0  0  0  0  0  0  0  0  0
    0.4626    0.9000    2.7370 H   0  0  0  0  0  0  0  0  0  0  0  0
   -0.4309    2.8436    2.8075 C   0  0  0  0  0  0  0  0  0  0  0  0
   -1.3937    2.9111    3.3255 H   0  0  0  0  0  0  0  0  0  0  0  0
    0.3617    3.1021    3.5166 H   0  0  0  0  0  0  0  0  0  0  0  0
   -0.4176    3.5779    1.9950 H   0  0  0  0  0  0  0  0  0  0  0  0
  1  2  1  0  0  0  0
  2  3  1  0  0  0  0
  2  4  1  0  0  0  0
  2  5  1  0  0  0  0
  5  6  2  0  0  0  0
  5  7  1  0  0  0  0
  7  8  1  0  0  0  0
  7  9  1  0  0  0  0
  9 10  1  0  0  0  0
  9 11  1  0  0  0  0
  9 27  1  0  0  0  0
 11 12  1  0  0  0  0
 11 13  1  0  0  0  0
 11 14  1  0  0  0  0
 14 15  1  0  0  0  0
 14 16  1  0  0  0  0
 14 17  1  0  0  0  0
 17 18  1  0  0  0  0
 17 19  1  0  0  0  0
 17 20  1  0  0  0  0
 20 21  1  0  0  0  0
 20 22  1  0  0  0  0
 20 23  1  0  0  0  0
 23 24  1  0  0  0  0
 23 25  1  0  0  0  0
 23 26  1  0  0  0  0
 27 28  2  0  0  0  0
 27 29  1  0  0  0  0
 29 30  1  0  0  0  0
 29 31  1  0  0  0  0
 31 32  1  0  0  0  0
 31 33  1  0  0  0  0
 31 34  1  0  0  0  0
M  CHG  1  23   1
M  END
$$$$

  -OEChem-02102214153D

 34 33  0     1  0  0  0  0  0999 V2000
   -3.8216   -4.0244    1.9051 H   0  0  0  0  0  0  0  0  0  0  0  0
   -3.8164   -3.0257    1.4597 C   0  0  0  0  0  0  0  0  0  0  0  0
   -4.4173   -2.3603    2.0849 H   0  0  0  0  0  0  0  0  0  0  0  0
   -4.2643   -3.0809    0.4646 H   0  0  0  0  0  0  0  0  0  0  0  0
   -2.3961   -2.5032    1.3626 C   0  0  0  0  0  0  0  0  0  0  0  0
   -1.4580   -3.2001    1.7218 O   0  0  0  0  0  0  0  0  0  0  0  0
   -2.1607   -1.2384    0.8624 N   0  0  0  0  0  0  0  0  0  0  0  0
   -2.9794   -0.6577    0.6752 H   0  0  0  0  0  0  0  0  0  0  0  0
   -0.8617   -0.5450    0.8912 C   0  0  1  0  0  0  0  0  0  0  0  0
   -0.1880   -1.0316    1.6041 H   0  0  0  0  0  0  0  0  0  0  0  0
   -0.2086   -0.5355   -0.5086 C   0  0  0  0  0  0  0  0  0  0  0  0
   -0.8714   -0.0003   -1.1983 H   0  0  0  0  0  0  0  0  0  0  0  0
    0.7229    0.0383   -0.4561 H   0  0  0  0  0  0  0  0  0  0  0  0
    0.0670   -1.9381   -1.0892 C   0  0  0  0  0  0  0  0  0  0  0  0
   -0.2730   -2.7138   -0.4016 H   0  0  0  0  0  0  0  0  0  0  0  0
   -0.5059   -2.0554   -2.0158 H   0  0  0  0  0  0  0  0  0  0  0  0
    1.5568   -2.1600   -1.3703 C   0  0  0  0  0  0  0  0  0  0  0  0
    1.8980   -1.4483   -2.1303 H   0  0  0  0  0  0  0  0  0  0  0  0
    2.1291   -1.9840   -0.4528 H   0  0  0  0  0  0  0  0  0  0  0  0
    1.7722   -3.5942   -1.8486 C   0  0  0  0  0  0  0  0  0  0  0  0
    1.3808   -4.2875   -1.0888 H   0  0  0  0  0  0  0  0  0  0  0  0
    1.1900   -3.7602   -2.7669 H   0  0  0  0  0  0  0  0  0  0  0  0
    3.2146   -3.8219   -2.0810 N   0  3  0  0  0  0  0  0  0  0  0  0
    3.7355   -3.6644   -1.2163 H   0  0  0  0  0  0  0  0  0  0  0  0
    3.3721   -4.7831   -2.3915 H   0  0  0  0  0  0  0  0  0  0  0  0
    3.5588   -3.1808   -2.7980 H   0  0  0  0  0  0  0  0  0  0  0  0
   -1.0645    0.9145    1.3487 C   0  0  0  0  0  0  0  0  0  0  0  0
   -1.9957    1.5610    0.8864 O   0  0  0  0  0  0  0  0  0  0  0  0
   -0.2285    1.4943    2.2853 N   0  0  0  0  0  0  0  0  0  0  0  0
    0.4611    0.9011    2.7376 H   0  0  0  0  0  0  0  0  0  0  0  0
   -0.4383    2.8425    2.8045 C   0  0  0  0  0  0  0  0  0  0  0  0
   -1.4014    2.9093    3.3219 H   0  0  0  0  0  0  0  0  0  0  0  0
    0.3537    3.1048    3.5131 H   0  0  0  0  0  0  0  0  0  0  0  0
   -0.4265    3.5746    1.9897 H   0  0  0  0  0  0  0  0  0  0  0  0
  1  2  1  0  0  0  0
  2  3  1  0  0  0  0
  2  4  1  0  0  0  0
  2  5  1  0  0  0  0
  5  6  2  0  0  0  0
  5  7  1  0  0  0  0
  7  8  1  0  0  0  0
  7  9  1  0  0  0  0
  9 10  1  0  0  0  0
  9 11  1  0  0  0  0
  9 27  1  0  0  0  0
 11 12  1  0  0  0  0
 11 13  1  0  0  0  0
 11 14  1  0  0  0  0
 14 15  1  0  0  0  0
 14 16  1  0  0  0  0
 14 17  1  0  0  0  0
 17 18  1  0  0  0  0
 17 19  1  0  0  0  0
 17 20  1  0  0  0  0
 20 21  1  0  0  0  0
 20 22  1  0  0  0  0
 20 23  1  0  0  0  0
 23 24  1  0  0  0  0
 23 25  1  0  0  0  0
 23 26  1  0  0  0  0
 27 28  2  0  0  0  0
 27 29  1  0  0  0  0
 29 30  1  0  0  0  0
 29 31  1  0  0  0  0
 31 32  1  0  0  0  0
 31 33  1  0  0  0  0
 31 34  1  0  0  0  0
M  CHG  1  23   1
M  END
$$$$

  -OEChem-02102214153D

 34 33  0     1  0  0  0  0  0999 V2000
   -3.7681   -4.0390    1.9225 H   0  0  0  0  0  0  0  0  0  0  0  0
   -3.7811   -3.0385    1.4810 C   0  0  0  0  0  0  0  0  0  0  0  0
   -4.3658   -2.3784    2.1269 H   0  0  0  0  0  0  0  0  0  0  0  0
   -4.2596   -3.0916    0.5001 H   0  0  0  0  0  0  0  0  0  0  0  0
   -2.3671   -2.5081    1.3419 C   0  0  0  0  0  0  0  0  0  0  0  0
   -1.4117   -3.2047    1.6575 O   0  0  0  0  0  0  0  0  0  0  0  0
   -2.1528   -1.2373    0.8471 N   0  0  0  0  0  0  0  0  0  0  0  0
   -2.9783   -0.6572    0.6886 H   0  0  0  0  0  0  0  0  0  0  0  0
   -0.8574   -0.5377    0.8719 C   0  0  1  0  0  0  0  0  0  0  0  0
   -0.1802   -1.0224    1.5823 H   0  0  0  0  0  0  0  0  0  0  0  0
   -0.1949   -0.5109   -0.5241 C   0  0  0  0  0  0  0  0  0  0  0  0
   -0.8753    0.0125   -1.2060 H   0  0  0  0  0  0  0  0  0  0  0  0
    0.7267    0.0796   -0.4819 H   0  0  0  0  0  0  0  0  0  0  0  0
    0.0935   -1.9058   -1.1151 C   0  0  0  0  0  0  0  0  0  0  0  0
   -0.4994   -2.6765   -0.6211 H   0  0  0  0  0  0  0  0  0  0  0  0
   -0.2115   -1.9021   -2.1674 H   0  0  0  0  0  0  0  0  0  0  0  0
    1.5815   -2.2616   -1.0416 C   0  0  0  0  0  0  0  0  0  0  0  0
    2.1598   -1.5831   -1.6785 H   0  0  0  0  0  0  0  0  0  0  0  0
    1.9278   -2.1431   -0.0089 H   0  0  0  0  0  0  0  0  0  0  0  0
    1.7738   -3.7098   -1.4861 C   0  0  0  0  0  0  0  0  0  0  0  0
    1.1254   -4.3582   -0.8773 H   0  0  0  0  0  0  0  0  0  0  0  0
    1.4471   -3.8151   -2.5311 H   0  0  0  0  0  0  0  0  0  0  0  0
    3.1948   -4.0866   -1.3281 N   0  3  0  0  0  0  0  0  0  0  0  0
    3.4708   -3.9947   -0.3485 H   0  0  0  0  0  0  0  0  0  0  0  0
    3.3350   -5.0559   -1.6215 H   0  0  0  0  0  0  0  0  0  0  0  0
    3.7840   -3.4778   -1.8988 H   0  0  0  0  0  0  0  0  0  0  0  0
   -1.0712    0.9160    1.3432 C   0  0  0  0  0  0  0  0  0  0  0  0
   -2.0197    1.5525    0.9032 O   0  0  0  0  0  0  0  0  0  0  0  0
   -0.2350    1.4959    2.2797 N   0  0  0  0  0  0  0  0  0  0  0  0
    0.4717    0.9096    2.7137 H   0  0  0  0  0  0  0  0  0  0  0  0
   -0.4613    2.8337    2.8191 C   0  0  0  0  0  0  0  0  0  0  0  0
   -1.4273    2.8826    3.3333 H   0  0  0  0  0  0  0  0  0  0  0  0
    0.3246    3.0935    3.5351 H   0  0  0  0  0  0  0  0  0  0  0  0
   -0.4542    3.5782    2.0157 H   0  0  0  0  0  0  0  0  0  0  0  0
  1  2  1  0  0  0  0
  2  3  1  0  0  0  0
  2  4  1  0  0  0  0
  2  5  1  0  0  0  0
  5  6  2  0  0  0  0
  5  7  1  0  0  0  0
  7  8  1  0  0  0  0
  7  9  1  0  0  0  0
  9 10  1  0  0  0  0
  9 11  1  0  0  0  0
  9 27  1  0  0  0  0
 11 12  1  0  0  0  0
 11 13  1  0  0  0  0
 11 14  1  0  0  0  0
 14 15  1  0  0  0  0
 14 16  1  0  0  0  0
 14 17  1  0  0  0  0
 17 18  1  0  0  0  0
 17 19  1  0  0  0  0
 17 20  1  0  0  0  0
 20 21  1  0  0  0  0
 20 22  1  0  0  0  0
 20 23  1  0  0  0  0
 23 24  1  0  0  0  0
 23 25  1  0  0  0  0
 23 26  1  0  0  0  0
 27 28  2  0  0  0  0
 27 29  1  0  0  0  0
 29 30  1  0  0  0  0
 29 31  1  0  0  0  0
 31 32  1  0  0  0  0
 31 33  1  0  0  0  0
 31 34  1  0  0  0  0
M  CHG  1  23   1
M  END
$$$$

  -OEChem-02102214153D

 34 33  0     1  0  0  0  0  0999 V2000
   -3.6228   -4.1226    1.8612 H   0  0  0  0  0  0  0  0  0  0  0  0
   -3.6777   -3.1028    1.4705 C   0  0  0  0  0  0  0  0  0  0  0  0
   -4.2453   -2.4879    2.1737 H   0  0  0  0  0  0  0  0  0  0  0  0
   -4.2002   -3.1198    0.5108 H   0  0  0  0  0  0  0  0  0  0  0  0
   -2.2835   -2.5334    1.2922 C   0  0  0  0  0  0  0  0  0  0  0  0
   -1.2973   -3.2216    1.5302 O   0  0  0  0  0  0  0  0  0  0  0  0
   -2.1187   -1.2467    0.8185 N   0  0  0  0  0  0  0  0  0  0  0  0
   -2.9612   -0.6788    0.7117 H   0  0  0  0  0  0  0  0  0  0  0  0
   -0.8388   -0.5207    0.8408 C   0  0  1  0  0  0  0  0  0  0  0  0
   -0.1481   -1.0015    1.5402 H   0  0  0  0  0  0  0  0  0  0  0  0
   -0.1845   -0.4637   -0.5570 C   0  0  0  0  0  0  0  0  0  0  0  0
   -0.8786    0.0506   -1.2319 H   0  0  0  0  0  0  0  0  0  0  0  0
    0.7309    0.1364   -0.5192 H   0  0  0  0  0  0  0  0  0  0  0  0
    0.1187   -1.8539   -1.1458 C   0  0  0  0  0  0  0  0  0  0  0  0
   -0.6486   -2.5774   -0.8635 H   0  0  0  0  0  0  0  0  0  0  0  0
    0.0805   -1.7759   -2.2381 H   0  0  0  0  0  0  0  0  0  0  0  0
    1.5135   -2.3499   -0.7545 C   0  0  0  0  0  0  0  0  0  0  0  0
    2.2821   -1.7633   -1.2693 H   0  0  0  0  0  0  0  0  0  0  0  0
    1.6483   -2.2219    0.3250 H   0  0  0  0  0  0  0  0  0  0  0  0
    1.6290   -3.8307   -1.1073 C   0  0  0  0  0  0  0  0  0  0  0  0
    0.7592   -4.3629   -0.6921 H   0  0  0  0  0  0  0  0  0  0  0  0
    1.5911   -3.9488   -2.2000 H   0  0  0  0  0  0  0  0  0  0  0  0
    2.8850   -4.3711   -0.5463 N   0  3  0  0  0  0  0  0  0  0  0  0
    2.8623   -4.3044    0.4735 H   0  0  0  0  0  0  0  0  0  0  0  0
    2.9929   -5.3526   -0.8104 H   0  0  0  0  0  0  0  0  0  0  0  0
    3.6835   -3.8407   -0.8983 H   0  0  0  0  0  0  0  0  0  0  0  0
   -1.0747    0.9186    1.3455 C   0  0  0  0  0  0  0  0  0  0  0  0
   -2.0517    1.5373    0.9447 O   0  0  0  0  0  0  0  0  0  0  0  0
   -0.2385    1.4985    2.2820 N   0  0  0  0  0  0  0  0  0  0  0  0
    0.5088    0.9327    2.6722 H   0  0  0  0  0  0  0  0  0  0  0  0
   -0.4756    2.8270    2.8394 C   0  0  0  0  0  0  0  0  0  0  0  0
   -1.4276    2.8519    3.3806 H   0  0  0  0  0  0  0  0  0  0  0  0
    0.3248    3.0967    3.5354 H   0  0  0  0  0  0  0  0  0  0  0  0
   -0.5052    3.5784    2.0427 H   0  0  0  0  0  0  0  0  0  0  0  0
  1  2  1  0  0  0  0
  2  3  1  0  0  0  0
  2  4  1  0  0  0  0
  2  5  1  0  0  0  0
  5  6  2  0  0  0  0
  5  7  1  0  0  0  0
  7  8  1  0  0  0  0
  7  9  1  0  0  0  0
  9 10  1  0  0  0  0
  9 11  1  0  0  0  0
  9 27  1  0  0  0  0
 11 12  1  0  0  0  0
 11 13  1  0  0  0  0
 11 14  1  0  0  0  0
 14 15  1  0  0  0  0
 14 16  1  0  0  0  0
 14 17  1  0  0  0  0
 17 18  1  0  0  0  0
 17 19  1  0  0  0  0
 17 20  1  0  0  0  0
 20 21  1  0  0  0  0
 20 22  1  0  0  0  0
 20 23  1  0  0  0  0
 23 24  1  0  0  0  0
 23 25  1  0  0  0  0
 23 26  1  0  0  0  0
 27 28  2  0  0  0  0
 27 29  1  0  0  0  0
 29 30  1  0  0  0  0
 29 31  1  0  0  0  0
 31 32  1  0  0  0  0
 31 33  1  0  0  0  0
 31 34  1  0  0  0  0
M  CHG  1  23   1
M  END
$$$$

  -OEChem-02102214153D

 34 33  0     1  0  0  0  0  0999 V2000
   -3.0710   -4.3569    2.1573 H   0  0  0  0  0  0  0  0  0  0  0  0
   -3.2332   -3.3414    1.7858 C   0  0  0  0  0  0  0  0  0  0  0  0
   -3.7331   -2.7605    2.5656 H   0  0  0  0  0  0  0  0  0  0  0  0
   -3.8818   -3.3861    0.9071 H   0  0  0  0  0  0  0  0  0  0  0  0
   -1.9116   -2.6919    1.4235 C   0  0  0  0  0  0  0  0  0  0  0  0
   -0.8677   -3.3356    1.4817 O   0  0  0  0  0  0  0  0  0  0  0  0
   -1.8893   -1.4040    0.9356 N   0  0  0  0  0  0  0  0  0  0  0  0
   -2.7836   -0.9070    0.9346 H   0  0  0  0  0  0  0  0  0  0  0  0
   -0.6985   -0.5402    0.8491 C   0  0  1  0  0  0  0  0  0  0  0  0
    0.0843   -0.9269    1.5074 H   0  0  0  0  0  0  0  0  0  0  0  0
   -0.1651   -0.4570   -0.5979 C   0  0  0  0  0  0  0  0  0  0  0  0
   -0.9549   -0.0325   -1.2285 H   0  0  0  0  0  0  0  0  0  0  0  0
    0.6834    0.2349   -0.6362 H   0  0  0  0  0  0  0  0  0  0  0  0
    0.2548   -1.8113   -1.1978 C   0  0  0  0  0  0  0  0  0  0  0  0
   -0.5358   -2.5493   -1.0397 H   0  0  0  0  0  0  0  0  0  0  0  0
    0.3630   -1.6939   -2.2818 H   0  0  0  0  0  0  0  0  0  0  0  0
    1.5963   -2.3036   -0.6245 C   0  0  0  0  0  0  0  0  0  0  0  0
    2.4013   -1.7006   -1.0591 H   0  0  0  0  0  0  0  0  0  0  0  0
    1.6386   -2.1657    0.4603 H   0  0  0  0  0  0  0  0  0  0  0  0
    1.8330   -3.7748   -0.9642 C   0  0  0  0  0  0  0  0  0  0  0  0
    1.4707   -3.9731   -1.9832 H   0  0  0  0  0  0  0  0  0  0  0  0
    2.9134   -3.9792   -0.9598 H   0  0  0  0  0  0  0  0  0  0  0  0
    1.1403   -4.6179    0.0347 N   0  3  0  0  0  0  0  0  0  0  0  0
    0.3366   -4.1058    0.4325 H   0  0  0  0  0  0  0  0  0  0  0  0
    0.8013   -5.4800   -0.3915 H   0  0  0  0  0  0  0  0  0  0  0  0
    1.7713   -4.8491    0.8018 H   0  0  0  0  0  0  0  0  0  0  0  0
   -1.0507    0.8743    1.3576 C   0  0  0  0  0  0  0  0  0  0  0  0
   -2.1436    1.3462    1.0740 O   0  0  0  0  0  0  0  0  0  0  0  0
   -0.2143    1.5617    2.2179 N   0  0  0  0  0  0  0  0  0  0  0  0
    0.6693    1.1338    2.4776 H   0  0  0  0  0  0  0  0  0  0  0  0
   -0.5488    2.8701    2.7734 C   0  0  0  0  0  0  0  0  0  0  0  0
   -1.4464    2.8049    3.3979 H   0  0  0  0  0  0  0  0  0  0  0  0
    0.2745    3.2427    3.3908 H   0  0  0  0  0  0  0  0  0  0  0  0
   -0.7317    3.5933    1.9712 H   0  0  0  0  0  0  0  0  0  0  0  0
  1  2  1  0  0  0  0
  2  3  1  0  0  0  0
  2  4  1  0  0  0  0
  2  5  1  0  0  0  0
  5  6  2  0  0  0  0
  5  7  1  0  0  0  0
  7  8  1  0  0  0  0
  7  9  1  0  0  0  0
  9 10  1  0  0  0  0
  9 11  1  0  0  0  0
  9 27  1  0  0  0  0
 11 12  1  0  0  0  0
 11 13  1  0  0  0  0
 11 14  1  0  0  0  0
 14 15  1  0  0  0  0
 14 16  1  0  0  0  0
 14 17  1  0  0  0  0
 17 18  1  0  0  0  0
 17 19  1  0  0  0  0
 17 20  1  0  0  0  0
 20 21  1  0  0  0  0
 20 22  1  0  0  0  0
 20 23  1  0  0  0  0
 23 24  1  0  0  0  0
 23 25  1  0  0  0  0
 23 26  1  0  0  0  0
 27 28  2  0  0  0  0
 27 29  1  0  0  0  0
 29 30  1  0  0  0  0
 29 31  1  0  0  0  0
 31 32  1  0  0  0  0
 31 33  1  0  0  0  0
 31 34  1  0  0  0  0
M  CHG  1  23   1
M  END
$$$$

  -OEChem-02102214153D

 34 33  0     1  0  0  0  0  0999 V2000
   -3.1733   -4.2734    2.3759 H   0  0  0  0  0  0  0  0  0  0  0  0
   -3.2945   -3.2789    1.9378 C   0  0  0  0  0  0  0  0  0  0  0  0
   -3.7977   -2.6370    2.6659 H   0  0  0  0  0  0  0  0  0  0  0  0
   -3.9210   -3.3591    1.0460 H   0  0  0  0  0  0  0  0  0  0  0  0
   -1.9441   -2.6900    1.5765 C   0  0  0  0  0  0  0  0  0  0  0  0
   -0.9287   -3.3640    1.7044 O   0  0  0  0  0  0  0  0  0  0  0  0
   -1.8796   -1.4349    1.0135 N   0  0  0  0  0  0  0  0  0  0  0  0
   -2.7727   -0.9399    0.9465 H   0  0  0  0  0  0  0  0  0  0  0  0
   -0.6994   -0.5530    0.9329 C   0  0  1  0  0  0  0  0  0  0  0  0
    0.0554   -0.8754    1.6549 H   0  0  0  0  0  0  0  0  0  0  0  0
   -0.1082   -0.5436   -0.4966 C   0  0  0  0  0  0  0  0  0  0  0  0
   -0.8706   -0.1536   -1.1809 H   0  0  0  0  0  0  0  0  0  0  0  0
    0.7325    0.1584   -0.5209 H   0  0  0  0  0  0  0  0  0  0  0  0
    0.3760   -1.9005   -1.0442 C   0  0  0  0  0  0  0  0  0  0  0  0
   -0.4849   -2.5739   -1.0918 H   0  0  0  0  0  0  0  0  0  0  0  0
    0.7374   -1.7628   -2.0693 H   0  0  0  0  0  0  0  0  0  0  0  0
    1.4984   -2.5304   -0.1913 C   0  0  0  0  0  0  0  0  0  0  0  0
    2.4152   -1.9540   -0.3572 H   0  0  0  0  0  0  0  0  0  0  0  0
    1.2815   -2.4686    0.8764 H   0  0  0  0  0  0  0  0  0  0  0  0
    1.7660   -3.9905   -0.5564 C   0  0  0  0  0  0  0  0  0  0  0  0
    1.9134   -4.0836   -1.6421 H   0  0  0  0  0  0  0  0  0  0  0  0
    2.7027   -4.3050   -0.0739 H   0  0  0  0  0  0  0  0  0  0  0  0
    0.6369   -4.8188   -0.0837 N   0  3  0  0  0  0  0  0  0  0  0  0
    0.1843   -4.3541    0.7211 H   0  0  0  0  0  0  0  0  0  0  0  0
   -0.0582   -4.9255   -0.8210 H   0  0  0  0  0  0  0  0  0  0  0  0
    0.9628   -5.7396    0.2100 H   0  0  0  0  0  0  0  0  0  0  0  0
   -1.1131    0.8815    1.3266 C   0  0  0  0  0  0  0  0  0  0  0  0
   -2.2001    1.3016    0.9522 O   0  0  0  0  0  0  0  0  0  0  0  0
   -0.3451    1.6474    2.1840 N   0  0  0  0  0  0  0  0  0  0  0  0
    0.5339    1.2642    2.5189 H   0  0  0  0  0  0  0  0  0  0  0  0
   -0.7435    2.9797    2.6296 C   0  0  0  0  0  0  0  0  0  0  0  0
   -1.6786    2.9320    3.1980 H   0  0  0  0  0  0  0  0  0  0  0  0
    0.0288    3.4128    3.2730 H   0  0  0  0  0  0  0  0  0  0  0  0
   -0.8883    3.6447    1.7713 H   0  0  0  0  0  0  0  0  0  0  0  0
  1  2  1  0  0  0  0
  2  3  1  0  0  0  0
  2  4  1  0  0  0  0
  2  5  1  0  0  0  0
  5  6  2  0  0  0  0
  5  7  1  0  0  0  0
  7  8  1  0  0  0  0
  7  9  1  0  0  0  0
  9 10  1  0  0  0  0
  9 11  1  0  0  0  0
  9 27  1  0  0  0  0
 11 12  1  0  0  0  0
 11 13  1  0  0  0  0
 11 14  1  0  0  0  0
 14 15  1  0  0  0  0
 14 16  1  0  0  0  0
 14 17  1  0  0  0  0
 17 18  1  0  0  0  0
 17 19  1  0  0  0  0
 17 20  1  0  0  0  0
 20 21  1  0  0  0  0
 20 22  1  0  0  0  0
 20 23  1  0  0  0  0
 23 24  1  0  0  0  0
 23 25  1  0  0  0  0
 23 26  1  0  0  0  0
 27 28  2  0  0  0  0
 27 29  1  0  0  0  0
 29 30  1  0  0  0  0
 29 31  1  0  0  0  0
 31 32  1  0  0  0  0
 31 33  1  0  0  0  0
 31 34  1  0  0  0  0
M  CHG  1  23   1
M  END
$$$$

  -OEChem-02102214153D

 34 33  0     1  0  0  0  0  0999 V2000
   -3.5182   -4.2038    1.9722 H   0  0  0  0  0  0  0  0  0  0  0  0
   -3.5291   -3.2056    1.5259 C   0  0  0  0  0  0  0  0  0  0  0  0
   -4.1556   -2.5552    2.1423 H   0  0  0  0  0  0  0  0  0  0  0  0
   -3.9636   -3.2709    0.5252 H   0  0  0  0  0  0  0  0  0  0  0  0
   -2.1228   -2.6431    1.4471 C   0  0  0  0  0  0  0  0  0  0  0  0
   -1.1757   -3.3264    1.8204 O   0  0  0  0  0  0  0  0  0  0  0  0
   -1.9350   -1.3773    0.9348 N   0  0  0  0  0  0  0  0  0  0  0  0
   -2.7895   -0.8575    0.7196 H   0  0  0  0  0  0  0  0  0  0  0  0
   -0.7116   -0.5529    0.9639 C   0  0  1  0  0  0  0  0  0  0  0  0
   -0.0124   -0.9285    1.7147 H   0  0  0  0  0  0  0  0  0  0  0  0
   -0.0552   -0.4958   -0.4410 C   0  0  0  0  0  0  0  0  0  0  0  0
   -0.7539   -0.0079   -1.1307 H   0  0  0  0  0  0  0  0  0  0  0  0
    0.8228    0.1549   -0.3657 H   0  0  0  0  0  0  0  0  0  0  0  0
    0.4055   -1.8176   -1.0959 C   0  0  0  0  0  0  0  0  0  0  0  0
   -0.5028   -2.3192   -1.4468 H   0  0  0  0  0  0  0  0  0  0  0  0
    1.0078   -1.5920   -1.9831 H   0  0  0  0  0  0  0  0  0  0  0  0
    1.1846   -2.7837   -0.1802 C   0  0  0  0  0  0  0  0  0  0  0  0
    2.2582   -2.6137   -0.3148 H   0  0  0  0  0  0  0  0  0  0  0  0
    0.9787   -2.5756    0.8676 H   0  0  0  0  0  0  0  0  0  0  0  0
    0.8587   -4.2457   -0.4991 C   0  0  0  0  0  0  0  0  0  0  0  0
   -0.1110   -4.2990   -1.0137 H   0  0  0  0  0  0  0  0  0  0  0  0
    1.6143   -4.6545   -1.1853 H   0  0  0  0  0  0  0  0  0  0  0  0
    0.7970   -4.9944    0.7728 N   0  3  0  0  0  0  0  0  0  0  0  0
    0.0965   -4.5426    1.3848 H   0  0  0  0  0  0  0  0  0  0  0  0
    0.5166   -5.9613    0.6101 H   0  0  0  0  0  0  0  0  0  0  0  0
    1.7013   -4.9756    1.2429 H   0  0  0  0  0  0  0  0  0  0  0  0
   -1.0923    0.8865    1.3733 C   0  0  0  0  0  0  0  0  0  0  0  0
   -2.1230    1.3742    0.9276 O   0  0  0  0  0  0  0  0  0  0  0  0
   -0.3535    1.5880    2.3078 N   0  0  0  0  0  0  0  0  0  0  0  0
    0.4711    1.1456    2.7024 H   0  0  0  0  0  0  0  0  0  0  0  0
   -0.7240    2.9209    2.7738 C   0  0  0  0  0  0  0  0  0  0  0  0
   -1.7162    2.9044    3.2378 H   0  0  0  0  0  0  0  0  0  0  0  0
   -0.0034    3.2784    3.5160 H   0  0  0  0  0  0  0  0  0  0  0  0
   -0.7388    3.6298    1.9387 H   0  0  0  0  0  0  0  0  0  0  0  0
  1  2  1  0  0  0  0
  2  3  1  0  0  0  0
  2  4  1  0  0  0  0
  2  5  1  0  0  0  0
  5  6  2  0  0  0  0
  5  7  1  0  0  0  0
  7  8  1  0  0  0  0
  7  9  1  0  0  0  0
  9 10  1  0  0  0  0
  9 11  1  0  0  0  0
  9 27  1  0  0  0  0
 11 12  1  0  0  0  0
 11 13  1  0  0  0  0
 11 14  1  0  0  0  0
 14 15  1  0  0  0  0
 14 16  1  0  0  0  0
 14 17  1  0  0  0  0
 17 18  1  0  0  0  0
 17 19  1  0  0  0  0
 17 20  1  0  0  0  0
 20 21  1  0  0  0  0
 20 22  1  0  0  0  0
 20 23  1  0  0  0  0
 23 24  1  0  0  0  0
 23 25  1  0  0  0  0
 23 26  1  0  0  0  0
 27 28  2  0  0  0  0
 27 29  1  0  0  0  0
 29 30  1  0  0  0  0
 29 31  1  0  0  0  0
 31 32  1  0  0  0  0
 31 33  1  0  0  0  0
 31 34  1  0  0  0  0
M  CHG  1  23   1
M  END
$$$$

  -OEChem-02102214153D

 34 33  0     1  0  0  0  0  0999 V2000
   -3.6145   -4.1726    2.0963 H   0  0  0  0  0  0  0  0  0  0  0  0
   -3.5937   -3.1834    1.6306 C   0  0  0  0  0  0  0  0  0  0  0  0
   -4.2321   -2.5118    2.2113 H   0  0  0  0  0  0  0  0  0  0  0  0
   -3.9940   -3.2618    0.6167 H   0  0  0  0  0  0  0  0  0  0  0  0
   -2.1773   -2.6420    1.5929 C   0  0  0  0  0  0  0  0  0  0  0  0
   -1.2645   -3.3078    2.0657 O   0  0  0  0  0  0  0  0  0  0  0  0
   -1.9517   -1.4065    1.0269 N   0  0  0  0  0  0  0  0  0  0  0  0
   -2.7920   -0.8889    0.7569 H   0  0  0  0  0  0  0  0  0  0  0  0
   -0.7207   -0.5921    1.0388 C   0  0  1  0  0  0  0  0  0  0  0  0
   -0.0333   -0.9456    1.8128 H   0  0  0  0  0  0  0  0  0  0  0  0
   -0.0208   -0.5515   -0.3497 C   0  0  0  0  0  0  0  0  0  0  0  0
   -0.6936   -0.0510   -1.0559 H   0  0  0  0  0  0  0  0  0  0  0  0
    0.8513    0.1015   -0.2337 H   0  0  0  0  0  0  0  0  0  0  0  0
    0.4897   -1.8381   -1.0444 C   0  0  0  0  0  0  0  0  0  0  0  0
   -0.3270   -2.2008   -1.6782 H   0  0  0  0  0  0  0  0  0  0  0  0
    1.3078   -1.5656   -1.7209 H   0  0  0  0  0  0  0  0  0  0  0  0
    0.9539   -2.9914   -0.1365 C   0  0  0  0  0  0  0  0  0  0  0  0
    0.8492   -2.7152    0.9123 H   0  0  0  0  0  0  0  0  0  0  0  0
    2.0247   -3.1548   -0.2988 H   0  0  0  0  0  0  0  0  0  0  0  0
    0.2108   -4.2937   -0.4357 C   0  0  0  0  0  0  0  0  0  0  0  0
   -0.8437   -4.0665   -0.6473 H   0  0  0  0  0  0  0  0  0  0  0  0
    0.6333   -4.7663   -1.3342 H   0  0  0  0  0  0  0  0  0  0  0  0
    0.3167   -5.1606    0.7542 N   0  3  0  0  0  0  0  0  0  0  0  0
   -0.1601   -4.6872    1.5398 H   0  0  0  0  0  0  0  0  0  0  0  0
   -0.1345   -6.0599    0.5883 H   0  0  0  0  0  0  0  0  0  0  0  0
    1.2939   -5.3088    1.0034 H   0  0  0  0  0  0  0  0  0  0  0  0
   -1.1136    0.8652    1.3716 C   0  0  0  0  0  0  0  0  0  0  0  0
   -2.1333    1.3294    0.8768 O   0  0  0  0  0  0  0  0  0  0  0  0
   -0.3975    1.6141    2.2868 N   0  0  0  0  0  0  0  0  0  0  0  0
    0.4183    1.1936    2.7220 H   0  0  0  0  0  0  0  0  0  0  0  0
   -0.7733    2.9723    2.6689 C   0  0  0  0  0  0  0  0  0  0  0  0
   -1.7631    2.9806    3.1379 H   0  0  0  0  0  0  0  0  0  0  0  0
   -0.0507    3.3810    3.3821 H   0  0  0  0  0  0  0  0  0  0  0  0
   -0.7964    3.6260    1.7902 H   0  0  0  0  0  0  0  0  0  0  0  0
  1  2  1  0  0  0  0
  2  3  1  0  0  0  0
  2  4  1  0  0  0  0
  2  5  1  0  0  0  0
  5  6  2  0  0  0  0
  5  7  1  0  0  0  0
  7  8  1  0  0  0  0
  7  9  1  0  0  0  0
  9 10  1  0  0  0  0
  9 11  1  0  0  0  0
  9 27  1  0  0  0  0
 11 12  1  0  0  0  0
 11 13  1  0  0  0  0
 11 14  1  0  0  0  0
 14 15  1  0  0  0  0
 14 16  1  0  0  0  0
 14 17  1  0  0  0  0
 17 18  1  0  0  0  0
 17 19  1  0  0  0  0
 17 20  1  0  0  0  0
 20 21  1  0  0  0  0
 20 22  1  0  0  0  0
 20 23  1  0  0  0  0
 23 24  1  0  0  0  0
 23 25  1  0  0  0  0
 23 26  1  0  0  0  0
 27 28  2  0  0  0  0
 27 29  1  0  0  0  0
 29 30  1  0  0  0  0
 29 31  1  0  0  0  0
 31 32  1  0  0  0  0
 31 33  1  0  0  0  0
 31 34  1  0  0  0  0
M  CHG  1  23   1
M  END
$$$$

  -OEChem-02102214153D

 34 33  0     1  0  0  0  0  0999 V2000
   -4.3392   -3.6152    2.3013 H   0  0  0  0  0  0  0  0  0  0  0  0
   -4.1807   -2.6847    1.7493 C   0  0  0  0  0  0  0  0  0  0  0  0
   -4.7465   -1.8876    2.2387 H   0  0  0  0  0  0  0  0  0  0  0  0
   -4.5545   -2.8101    0.7302 H   0  0  0  0  0  0  0  0  0  0  0  0
   -2.7060   -2.3302    1.7245 C   0  0  0  0  0  0  0  0  0  0  0  0
   -1.8962   -3.0553    2.2882 O   0  0  0  0  0  0  0  0  0  0  0  0
   -2.3007   -1.1703    1.0949 N   0  0  0  0  0  0  0  0  0  0  0  0
   -3.0453   -0.5531    0.7641 H   0  0  0  0  0  0  0  0  0  0  0  0
   -0.9485   -0.5811    1.0966 C   0  0  1  0  0  0  0  0  0  0  0  0
   -0.3447   -1.0194    1.8973 H   0  0  0  0  0  0  0  0  0  0  0  0
   -0.1963   -0.6894   -0.2647 C   0  0  0  0  0  0  0  0  0  0  0  0
   -0.7594   -0.1086   -1.0049 H   0  0  0  0  0  0  0  0  0  0  0  0
    0.7622   -0.1753   -0.1316 H   0  0  0  0  0  0  0  0  0  0  0  0
    0.1216   -2.0574   -0.9208 C   0  0  0  0  0  0  0  0  0  0  0  0
   -0.5440   -2.1925   -1.7809 H   0  0  0  0  0  0  0  0  0  0  0  0
    1.1434   -2.0059   -1.3132 H   0  0  0  0  0  0  0  0  0  0  0  0
   -0.0111   -3.2839   -0.0216 C   0  0  0  0  0  0  0  0  0  0  0  0
    0.3662   -3.0469    0.9784 H   0  0  0  0  0  0  0  0  0  0  0  0
   -1.0691   -3.5440    0.0369 H   0  0  0  0  0  0  0  0  0  0  0  0
    0.7402   -4.4948   -0.5552 C   0  0  0  0  0  0  0  0  0  0  0  0
    0.3727   -4.7452   -1.5611 H   0  0  0  0  0  0  0  0  0  0  0  0
    1.8108   -4.2597   -0.6438 H   0  0  0  0  0  0  0  0  0  0  0  0
    0.5034   -5.5977    0.4013 N   0  3  0  0  0  0  0  0  0  0  0  0
   -0.5005   -5.7717    0.4865 H   0  0  0  0  0  0  0  0  0  0  0  0
    0.9672   -6.4515    0.0865 H   0  0  0  0  0  0  0  0  0  0  0  0
    0.8627   -5.3395    1.3229 H   0  0  0  0  0  0  0  0  0  0  0  0
   -1.0980    0.9350    1.3619 C   0  0  0  0  0  0  0  0  0  0  0  0
   -1.9983    1.5522    0.8060 O   0  0  0  0  0  0  0  0  0  0  0  0
   -0.2777    1.5907    2.2617 N   0  0  0  0  0  0  0  0  0  0  0  0
    0.4110    1.0434    2.7695 H   0  0  0  0  0  0  0  0  0  0  0  0
   -0.4356    3.0030    2.5968 C   0  0  0  0  0  0  0  0  0  0  0  0
   -1.4209    3.1853    3.0394 H   0  0  0  0  0  0  0  0  0  0  0  0
    0.3285    3.3108    3.3175 H   0  0  0  0  0  0  0  0  0  0  0  0
   -0.3331    3.6244    1.7006 H   0  0  0  0  0  0  0  0  0  0  0  0
  1  2  1  0  0  0  0
  2  3  1  0  0  0  0
  2  4  1  0  0  0  0
  2  5  1  0  0  0  0
  5  6  2  0  0  0  0
  5  7  1  0  0  0  0
  7  8  1  0  0  0  0
  7  9  1  0  0  0  0
  9 10  1  0  0  0  0
  9 11  1  0  0  0  0
  9 27  1  0  0  0  0
 11 12  1  0  0  0  0
 11 13  1  0  0  0  0
 11 14  1  0  0  0  0
 14 15  1  0  0  0  0
 14 16  1  0  0  0  0
 14 17  1  0  0  0  0
 17 18  1  0  0  0  0
 17 19  1  0  0  0  0
 17 20  1  0  0  0  0
 20 21  1  0  0  0  0
 20 22  1  0  0  0  0
 20 23  1  0  0  0  0
 23 24  1  0  0  0  0
 23 25  1  0  0  0  0
 23 26  1  0  0  0  0
 27 28  2  0  0  0  0
 27 29  1  0  0  0  0
 29 30  1  0  0  0  0
 29 31  1  0  0  0  0
 31 32  1  0  0  0  0
 31 33  1  0  0  0  0
 31 34  1  0  0  0  0
M  CHG  1  23   1
M  END
$$$$

  -OEChem-02102214153D

 34 33  0     1  0  0  0  0  0999 V2000
   -4.4140   -3.5566    2.3650 H   0  0  0  0  0  0  0  0  0  0  0  0
   -4.2306   -2.6300    1.8140 C   0  0  0  0  0  0  0  0  0  0  0  0
   -4.7544   -1.8143    2.3197 H   0  0  0  0  0  0  0  0  0  0  0  0
   -4.6307   -2.7342    0.8024 H   0  0  0  0  0  0  0  0  0  0  0  0
   -2.7441   -2.3324    1.7597 C   0  0  0  0  0  0  0  0  0  0  0  0
   -1.9544   -3.1064    2.2839 O   0  0  0  0  0  0  0  0  0  0  0  0
   -2.3152   -1.1816    1.1271 N   0  0  0  0  0  0  0  0  0  0  0  0
   -3.0558   -0.5484    0.8172 H   0  0  0  0  0  0  0  0  0  0  0  0
   -0.9599   -0.5920    1.1132 C   0  0  1  0  0  0  0  0  0  0  0  0
   -0.3600   -1.0270    1.9189 H   0  0  0  0  0  0  0  0  0  0  0  0
   -0.1832   -0.7030   -0.2389 C   0  0  0  0  0  0  0  0  0  0  0  0
   -0.7616   -0.1418   -0.9821 H   0  0  0  0  0  0  0  0  0  0  0  0
    0.7605   -0.1610   -0.1103 H   0  0  0  0  0  0  0  0  0  0  0  0
    0.1702   -2.0608   -0.9023 C   0  0  0  0  0  0  0  0  0  0  0  0
   -0.2599   -2.0790   -1.9101 H   0  0  0  0  0  0  0  0  0  0  0  0
    1.2590   -2.1005   -1.0186 H   0  0  0  0  0  0  0  0  0  0  0  0
   -0.2818   -3.3074   -0.1579 C   0  0  0  0  0  0  0  0  0  0  0  0
    0.0337   -3.2095    0.8844 H   0  0  0  0  0  0  0  0  0  0  0  0
   -1.3704   -3.3755   -0.2191 H   0  0  0  0  0  0  0  0  0  0  0  0
    0.3164   -4.5926   -0.7076 C   0  0  0  0  0  0  0  0  0  0  0  0
    0.0192   -4.7298   -1.7575 H   0  0  0  0  0  0  0  0  0  0  0  0
    1.4139   -4.5288   -0.6794 H   0  0  0  0  0  0  0  0  0  0  0  0
   -0.1864   -5.6835    0.1556 N   0  3  0  0  0  0  0  0  0  0  0  0
   -1.1691   -5.8680   -0.0523 H   0  0  0  0  0  0  0  0  0  0  0  0
    0.3545   -6.5372    0.0077 H   0  0  0  0  0  0  0  0  0  0  0  0
   -0.1136   -5.4037    1.1384 H   0  0  0  0  0  0  0  0  0  0  0  0
   -1.1117    0.9255    1.3672 C   0  0  0  0  0  0  0  0  0  0  0  0
   -2.0237    1.5322    0.8189 O   0  0  0  0  0  0  0  0  0  0  0  0
   -0.2871    1.5913    2.2551 N   0  0  0  0  0  0  0  0  0  0  0  0
    0.4181    1.0541    2.7511 H   0  0  0  0  0  0  0  0  0  0  0  0
   -0.4370    3.0093    2.5686 C   0  0  0  0  0  0  0  0  0  0  0  0
   -1.4159    3.2020    3.0206 H   0  0  0  0  0  0  0  0  0  0  0  0
    0.3372    3.3270    3.2741 H   0  0  0  0  0  0  0  0  0  0  0  0
   -0.3442    3.6158    1.6612 H   0  0  0  0  0  0  0  0  0  0  0  0
  1  2  1  0  0  0  0
  2  3  1  0  0  0  0
  2  4  1  0  0  0  0
  2  5  1  0  0  0  0
  5  6  2  0  0  0  0
  5  7  1  0  0  0  0
  7  8  1  0  0  0  0
  7  9  1  0  0  0  0
  9 10  1  0  0  0  0
  9 11  1  0  0  0  0
  9 27  1  0  0  0  0
 11 12  1  0  0  0  0
 11 13  1  0  0  0  0
 11 14  1  0  0  0  0
 14 15  1  0  0  0  0
 14 16  1  0  0  0  0
 14 17  1  0  0  0  0
 17 18  1  0  0  0  0
 17 19  1  0  0  0  0
 17 20  1  0  0  0  0
 20 21  1  0  0  0  0
 20 22  1  0  0  0  0
 20 23  1  0  0  0  0
 23 24  1  0  0  0  0
 23 25  1  0  0  0  0
 23 26  1  0  0  0  0
 27 28  2  0  0  0  0
 27 29  1  0  0  0  0
 29 30  1  0  0  0  0
 29 31  1  0  0  0  0
 31 32  1  0  0  0  0
 31 33  1  0  0  0  0
 31 34  1  0  0  0  0
M  CHG  1  23   1
M  END
$$$$

  -OEChem-02102214153D

 34 33  0     1  0  0  0  0  0999 V2000
   -4.4469   -3.5218    2.4139 H   0  0  0  0  0  0  0  0  0  0  0  0
   -4.2554   -2.5833    1.8862 C   0  0  0  0  0  0  0  0  0  0  0  0
   -4.7537   -1.7726    2.4246 H   0  0  0  0  0  0  0  0  0  0  0  0
   -4.6755   -2.6506    0.8798 H   0  0  0  0  0  0  0  0  0  0  0  0
   -2.7647   -2.3126    1.8137 C   0  0  0  0  0  0  0  0  0  0  0  0
   -1.9872   -3.0971    2.3359 O   0  0  0  0  0  0  0  0  0  0  0  0
   -2.3235   -1.1767    1.1639 N   0  0  0  0  0  0  0  0  0  0  0  0
   -3.0592   -0.5339    0.8617 H   0  0  0  0  0  0  0  0  0  0  0  0
   -0.9640   -0.5955    1.1352 C   0  0  1  0  0  0  0  0  0  0  0  0
   -0.3663   -1.0220    1.9475 H   0  0  0  0  0  0  0  0  0  0  0  0
   -0.1780   -0.7297   -0.2105 C   0  0  0  0  0  0  0  0  0  0  0  0
   -0.7714   -0.1928   -0.9599 H   0  0  0  0  0  0  0  0  0  0  0  0
    0.7589   -0.1718   -0.1023 H   0  0  0  0  0  0  0  0  0  0  0  0
    0.1834   -2.0918   -0.8593 C   0  0  0  0  0  0  0  0  0  0  0  0
    0.0154   -2.0122   -1.9391 H   0  0  0  0  0  0  0  0  0  0  0  0
    1.2573   -2.2532   -0.7132 H   0  0  0  0  0  0  0  0  0  0  0  0
   -0.5451   -3.3167   -0.3333 C   0  0  0  0  0  0  0  0  0  0  0  0
   -0.2928   -3.4017    0.7243 H   0  0  0  0  0  0  0  0  0  0  0  0
   -1.6238   -3.1875   -0.4599 H   0  0  0  0  0  0  0  0  0  0  0  0
   -0.1098   -4.6057   -1.0134 C   0  0  0  0  0  0  0  0  0  0  0  0
   -0.3895   -4.5855   -2.0767 H   0  0  0  0  0  0  0  0  0  0  0  0
    0.9851   -4.6938   -0.9614 H   0  0  0  0  0  0  0  0  0  0  0  0
   -0.7730   -5.7104   -0.2872 N   0  3  0  0  0  0  0  0  0  0  0  0
   -1.7609   -5.7532   -0.5416 H   0  0  0  0  0  0  0  0  0  0  0  0
   -0.3297   -6.6028   -0.5115 H   0  0  0  0  0  0  0  0  0  0  0  0
   -0.7049   -5.5456    0.7218 H   0  0  0  0  0  0  0  0  0  0  0  0
   -1.1127    0.9258    1.3653 C   0  0  0  0  0  0  0  0  0  0  0  0
   -2.0300    1.5231    0.8145 O   0  0  0  0  0  0  0  0  0  0  0  0
   -0.2845    1.6044    2.2398 N   0  0  0  0  0  0  0  0  0  0  0  0
    0.4199    1.0729    2.7436 H   0  0  0  0  0  0  0  0  0  0  0  0
   -0.4465    3.0220    2.5489 C   0  0  0  0  0  0  0  0  0  0  0  0
   -1.4113    3.2015    3.0354 H   0  0  0  0  0  0  0  0  0  0  0  0
    0.3477    3.3576    3.2230 H   0  0  0  0  0  0  0  0  0  0  0  0
   -0.3977    3.6235    1.6346 H   0  0  0  0  0  0  0  0  0  0  0  0
  1  2  1  0  0  0  0
  2  3  1  0  0  0  0
  2  4  1  0  0  0  0
  2  5  1  0  0  0  0
  5  6  2  0  0  0  0
  5  7  1  0  0  0  0
  7  8  1  0  0  0  0
  7  9  1  0  0  0  0
  9 10  1  0  0  0  0
  9 11  1  0  0  0  0
  9 27  1  0  0  0  0
 11 12  1  0  0  0  0
 11 13  1  0  0  0  0
 11 14  1  0  0  0  0
 14 15  1  0  0  0  0
 14 16  1  0  0  0  0
 14 17  1  0  0  0  0
 17 18  1  0  0  0  0
 17 19  1  0  0  0  0
 17 20  1  0  0  0  0
 20 21  1  0  0  0  0
 20 22  1  0  0  0  0
 20 23  1  0  0  0  0
 23 24  1  0  0  0  0
 23 25  1  0  0  0  0
 23 26  1  0  0  0  0
 27 28  2  0  0  0  0
 27 29  1  0  0  0  0
 29 30  1  0  0  0  0
 29 31  1  0  0  0  0
 31 32  1  0  0  0  0
 31 33  1  0  0  0  0
 31 34  1  0  0  0  0
M  CHG  1  23   1
M  END
$$$$

  -OEChem-02102214153D

 34 33  0     1  0  0  0  0  0999 V2000
   -4.5020   -3.6565    2.1430 H   0  0  0  0  0  0  0  0  0  0  0  0
   -4.3155   -2.6903    1.6662 C   0  0  0  0  0  0  0  0  0  0  0  0
   -4.7321   -1.9041    2.3018 H   0  0  0  0  0  0  0  0  0  0  0  0
   -4.8239   -2.6672    0.6990 H   0  0  0  0  0  0  0  0  0  0  0  0
   -2.8266   -2.4673    1.4802 C   0  0  0  0  0  0  0  0  0  0  0  0
   -2.0410   -3.3665    1.7466 O   0  0  0  0  0  0  0  0  0  0  0  0
   -2.3867   -1.2605    0.9852 N   0  0  0  0  0  0  0  0  0  0  0  0
   -3.1129   -0.5498    0.8615 H   0  0  0  0  0  0  0  0  0  0  0  0
   -1.0127   -0.7223    0.9456 C   0  0  1  0  0  0  0  0  0  0  0  0
   -0.3828   -1.2846    1.6420 H   0  0  0  0  0  0  0  0  0  0  0  0
   -0.3119   -0.6723   -0.4481 C   0  0  0  0  0  0  0  0  0  0  0  0
   -0.9409   -0.0166   -1.0621 H   0  0  0  0  0  0  0  0  0  0  0  0
    0.6423   -0.1495   -0.3163 H   0  0  0  0  0  0  0  0  0  0  0  0
   -0.0169   -1.9032   -1.3472 C   0  0  0  0  0  0  0  0  0  0  0  0
   -0.0119   -1.5348   -2.3797 H   0  0  0  0  0  0  0  0  0  0  0  0
    1.0112   -2.2208   -1.1393 H   0  0  0  0  0  0  0  0  0  0  0  0
   -0.9245   -3.1385   -1.3140 C   0  0  0  0  0  0  0  0  0  0  0  0
   -1.0530   -3.5172   -2.3338 H   0  0  0  0  0  0  0  0  0  0  0  0
   -1.9181   -2.8784   -0.9510 H   0  0  0  0  0  0  0  0  0  0  0  0
   -0.2476   -4.2271   -0.4742 C   0  0  0  0  0  0  0  0  0  0  0  0
    0.5852   -4.6599   -1.0466 H   0  0  0  0  0  0  0  0  0  0  0  0
    0.1804   -3.7619    0.4262 H   0  0  0  0  0  0  0  0  0  0  0  0
   -1.2261   -5.2559   -0.0799 N   0  3  0  0  0  0  0  0  0  0  0  0
   -1.8331   -5.4954   -0.8624 H   0  0  0  0  0  0  0  0  0  0  0  0
   -0.7492   -6.0929    0.2558 H   0  0  0  0  0  0  0  0  0  0  0  0
   -1.7936   -4.8695    0.6900 H   0  0  0  0  0  0  0  0  0  0  0  0
   -1.0863    0.7479    1.4195 C   0  0  0  0  0  0  0  0  0  0  0  0
   -2.0290    1.4412    1.0575 O   0  0  0  0  0  0  0  0  0  0  0  0
   -0.1733    1.2563    2.3246 N   0  0  0  0  0  0  0  0  0  0  0  0
    0.5699    0.6469    2.6537 H   0  0  0  0  0  0  0  0  0  0  0  0
   -0.2535    2.6132    2.8575 C   0  0  0  0  0  0  0  0  0  0  0  0
   -1.1909    2.7564    3.4056 H   0  0  0  0  0  0  0  0  0  0  0  0
    0.5787    2.8024    3.5427 H   0  0  0  0  0  0  0  0  0  0  0  0
   -0.2054    3.3482    2.0468 H   0  0  0  0  0  0  0  0  0  0  0  0
  1  2  1  0  0  0  0
  2  3  1  0  0  0  0
  2  4  1  0  0  0  0
  2  5  1  0  0  0  0
  5  6  2  0  0  0  0
  5  7  1  0  0  0  0
  7  8  1  0  0  0  0
  7  9  1  0  0  0  0
  9 10  1  0  0  0  0
  9 11  1  0  0  0  0
  9 27  1  0  0  0  0
 11 12  1  0  0  0  0
 11 13  1  0  0  0  0
 11 14  1  0  0  0  0
 14 15  1  0  0  0  0
 14 16  1  0  0  0  0
 14 17  1  0  0  0  0
 17 18  1  0  0  0  0
 17 19  1  0  0  0  0
 17 20  1  0  0  0  0
 20 21  1  0  0  0  0
 20 22  1  0  0  0  0
 20 23  1  0  0  0  0
 23 24  1  0  0  0  0
 23 25  1  0  0  0  0
 23 26  1  0  0  0  0
 27 28  2  0  0  0  0
 27 29  1  0  0  0  0
 29 30  1  0  0  0  0
 29 31  1  0  0  0  0
 31 32  1  0  0  0  0
 31 33  1  0  0  0  0
 31 34  1  0  0  0  0
M  CHG  1  23   1
M  END
$$$$

  -OEChem-02102214153D

 34 33  0     1  0  0  0  0  0999 V2000
   -4.3565   -3.5288    2.6091 H   0  0  0  0  0  0  0  0  0  0  0  0
   -4.2191   -2.5875    2.0695 C   0  0  0  0  0  0  0  0  0  0  0  0
   -4.6852   -1.7839    2.6458 H   0  0  0  0  0  0  0  0  0  0  0  0
   -4.7131   -2.6598    1.0980 H   0  0  0  0  0  0  0  0  0  0  0  0
   -2.7417   -2.2978    1.8854 C   0  0  0  0  0  0  0  0  0  0  0  0
   -1.9107   -3.0474    2.3728 O   0  0  0  0  0  0  0  0  0  0  0  0
   -2.3524   -1.1726    1.1894 N   0  0  0  0  0  0  0  0  0  0  0  0
   -3.0970   -0.5184    0.9399 H   0  0  0  0  0  0  0  0  0  0  0  0
   -0.9889   -0.6144    1.1352 C   0  0  1  0  0  0  0  0  0  0  0  0
   -0.3861   -1.0326    1.9484 H   0  0  0  0  0  0  0  0  0  0  0  0
   -0.2205   -0.7892   -0.2074 C   0  0  0  0  0  0  0  0  0  0  0  0
   -0.8041   -0.2594   -0.9693 H   0  0  0  0  0  0  0  0  0  0  0  0
    0.7337   -0.2582   -0.1163 H   0  0  0  0  0  0  0  0  0  0  0  0
    0.0949   -2.1802   -0.8029 C   0  0  0  0  0  0  0  0  0  0  0  0
    0.4404   -2.0182   -1.8300 H   0  0  0  0  0  0  0  0  0  0  0  0
    0.9366   -2.6014   -0.2419 H   0  0  0  0  0  0  0  0  0  0  0  0
   -1.0246   -3.2218   -0.8153 C   0  0  0  0  0  0  0  0  0  0  0  0
   -1.1440   -3.6207    0.1888 H   0  0  0  0  0  0  0  0  0  0  0  0
   -1.9650   -2.7603   -1.1350 H   0  0  0  0  0  0  0  0  0  0  0  0
   -0.6628   -4.3777   -1.7425 C   0  0  0  0  0  0  0  0  0  0  0  0
   -0.6457   -4.0228   -2.7833 H   0  0  0  0  0  0  0  0  0  0  0  0
    0.3514   -4.7281   -1.5006 H   0  0  0  0  0  0  0  0  0  0  0  0
   -1.6524   -5.4592   -1.5514 N   0  3  0  0  0  0  0  0  0  0  0  0
   -2.5815   -5.1354   -1.8247 H   0  0  0  0  0  0  0  0  0  0  0  0
   -1.4020   -6.2719   -2.1181 H   0  0  0  0  0  0  0  0  0  0  0  0
   -1.6746   -5.7346   -0.5663 H   0  0  0  0  0  0  0  0  0  0  0  0
   -1.1075    0.9125    1.3390 C   0  0  0  0  0  0  0  0  0  0  0  0
   -2.0201    1.5185    0.7893 O   0  0  0  0  0  0  0  0  0  0  0  0
   -0.2545    1.5869    2.1923 N   0  0  0  0  0  0  0  0  0  0  0  0
    0.4390    1.0453    2.7009 H   0  0  0  0  0  0  0  0  0  0  0  0
   -0.3865    3.0101    2.4880 C   0  0  0  0  0  0  0  0  0  0  0  0
   -1.3454    3.2135    2.9765 H   0  0  0  0  0  0  0  0  0  0  0  0
    0.4173    3.3356    3.1559 H   0  0  0  0  0  0  0  0  0  0  0  0
   -0.3290    3.6014    1.5677 H   0  0  0  0  0  0  0  0  0  0  0  0
  1  2  1  0  0  0  0
  2  3  1  0  0  0  0
  2  4  1  0  0  0  0
  2  5  1  0  0  0  0
  5  6  2  0  0  0  0
  5  7  1  0  0  0  0
  7  8  1  0  0  0  0
  7  9  1  0  0  0  0
  9 10  1  0  0  0  0
  9 11  1  0  0  0  0
  9 27  1  0  0  0  0
 11 12  1  0  0  0  0
 11 13  1  0  0  0  0
 11 14  1  0  0  0  0
 14 15  1  0  0  0  0
 14 16  1  0  0  0  0
 14 17  1  0  0  0  0
 17 18  1  0  0  0  0
 17 19  1  0  0  0  0
 17 20  1  0  0  0  0
 20 21  1  0  0  0  0
 20 22  1  0  0  0  0
 20 23  1  0  0  0  0
 23 24  1  0  0  0  0
 23 25  1  0  0  0  0
 23 26  1  0  0  0  0
 27 28  2  0  0  0  0
 27 29  1  0  0  0  0
 29 30  1  0  0  0  0
 29 31  1  0  0  0  0
 31 32  1  0  0  0  0
 31 33  1  0  0  0  0
 31 34  1  0  0  0  0
M  CHG  1  23   1
M  END
$$$$

  -OEChem-02102214153D

 34 33  0     1  0  0  0  0  0999 V2000
   -4.6423   -3.5725    1.9041 H   0  0  0  0  0  0  0  0  0  0  0  0
   -4.4561   -2.5625    1.5283 C   0  0  0  0  0  0  0  0  0  0  0  0
   -4.7892   -1.8437    2.2818 H   0  0  0  0  0  0  0  0  0  0  0  0
   -5.0376   -2.4113    0.6154 H   0  0  0  0  0  0  0  0  0  0  0  0
   -2.9791   -2.3661    1.2455 C   0  0  0  0  0  0  0  0  0  0  0  0
   -2.2009   -3.3123    1.3228 O   0  0  0  0  0  0  0  0  0  0  0  0
   -2.5199   -1.1441    0.8017 N   0  0  0  0  0  0  0  0  0  0  0  0
   -3.2071   -0.3855    0.7828 H   0  0  0  0  0  0  0  0  0  0  0  0
   -1.1159   -0.7012    0.8475 C   0  0  1  0  0  0  0  0  0  0  0  0
   -0.5741   -1.3215    1.5689 H   0  0  0  0  0  0  0  0  0  0  0  0
   -0.3096   -0.6976   -0.4833 C   0  0  0  0  0  0  0  0  0  0  0  0
   -0.8026    0.0107   -1.1591 H   0  0  0  0  0  0  0  0  0  0  0  0
    0.6837   -0.2889   -0.2666 H   0  0  0  0  0  0  0  0  0  0  0  0
   -0.0977   -2.0056   -1.2821 C   0  0  0  0  0  0  0  0  0  0  0  0
    0.5457   -1.7834   -2.1410 H   0  0  0  0  0  0  0  0  0  0  0  0
    0.4722   -2.6697   -0.6265 H   0  0  0  0  0  0  0  0  0  0  0  0
   -1.3434   -2.7539   -1.8001 C   0  0  0  0  0  0  0  0  0  0  0  0
   -2.2182   -2.5916   -1.1821 H   0  0  0  0  0  0  0  0  0  0  0  0
   -1.5961   -2.3385   -2.7821 H   0  0  0  0  0  0  0  0  0  0  0  0
   -1.1078   -4.2596   -1.9519 C   0  0  0  0  0  0  0  0  0  0  0  0
   -1.9721   -4.6949   -2.4742 H   0  0  0  0  0  0  0  0  0  0  0  0
   -0.2275   -4.4322   -2.5877 H   0  0  0  0  0  0  0  0  0  0  0  0
   -0.9416   -4.8817   -0.6187 N   0  3  0  0  0  0  0  0  0  0  0  0
   -1.2738   -5.8459   -0.6273 H   0  0  0  0  0  0  0  0  0  0  0  0
    0.0378   -4.8674   -0.3385 H   0  0  0  0  0  0  0  0  0  0  0  0
   -1.4824   -4.3527    0.0845 H   0  0  0  0  0  0  0  0  0  0  0  0
   -1.1014    0.7496    1.3810 C   0  0  0  0  0  0  0  0  0  0  0  0
   -1.9811    1.5212    1.0208 O   0  0  0  0  0  0  0  0  0  0  0  0
   -0.1955    1.1525    2.3448 N   0  0  0  0  0  0  0  0  0  0  0  0
    0.4905    0.4794    2.6737 H   0  0  0  0  0  0  0  0  0  0  0  0
   -0.2074    2.4866    2.9386 C   0  0  0  0  0  0  0  0  0  0  0  0
   -1.1366    2.6515    3.4946 H   0  0  0  0  0  0  0  0  0  0  0  0
    0.6335    2.6032    3.6296 H   0  0  0  0  0  0  0  0  0  0  0  0
   -0.1225    3.2548    2.1622 H   0  0  0  0  0  0  0  0  0  0  0  0
  1  2  1  0  0  0  0
  2  3  1  0  0  0  0
  2  4  1  0  0  0  0
  2  5  1  0  0  0  0
  5  6  2  0  0  0  0
  5  7  1  0  0  0  0
  7  8  1  0  0  0  0
  7  9  1  0  0  0  0
  9 10  1  0  0  0  0
  9 11  1  0  0  0  0
  9 27  1  0  0  0  0
 11 12  1  0  0  0  0
 11 13  1  0  0  0  0
 11 14  1  0  0  0  0
 14 15  1  0  0  0  0
 14 16  1  0  0  0  0
 14 17  1  0  0  0  0
 17 18  1  0  0  0  0
 17 19  1  0  0  0  0
 17 20  1  0  0  0  0
 20 21  1  0  0  0  0
 20 22  1  0  0  0  0
 20 23  1  0  0  0  0
 23 24  1  0  0  0  0
 23 25  1  0  0  0  0
 23 26  1  0  0  0  0
 27 28  2  0  0  0  0
 27 29  1  0  0  0  0
 29 30  1  0  0  0  0
 29 31  1  0  0  0  0
 31 32  1  0  0  0  0
 31 33  1  0  0  0  0
 31 34  1  0  0  0  0
M  CHG  1  23   1
M  END
$$$$

  -OEChem-02102214153D

 34 33  0     1  0  0  0  0  0999 V2000
   -3.9362   -3.9270    2.1287 H   0  0  0  0  0  0  0  0  0  0  0  0
   -3.9165   -2.8796    1.8142 C   0  0  0  0  0  0  0  0  0  0  0  0
   -4.1621   -2.2536    2.6763 H   0  0  0  0  0  0  0  0  0  0  0  0
   -4.6719   -2.7259    1.0400 H   0  0  0  0  0  0  0  0  0  0  0  0
   -2.5418   -2.5129    1.2878 C   0  0  0  0  0  0  0  0  0  0  0  0
   -1.6823   -3.3744    1.1697 O   0  0  0  0  0  0  0  0  0  0  0  0
   -2.3054   -1.2356    0.8275 N   0  0  0  0  0  0  0  0  0  0  0  0
   -3.0825   -0.5799    0.9389 H   0  0  0  0  0  0  0  0  0  0  0  0
   -0.9840   -0.5845    0.7995 C   0  0  1  0  0  0  0  0  0  0  0  0
   -0.3255   -1.1164    1.4951 H   0  0  0  0  0  0  0  0  0  0  0  0
   -0.2677   -0.5364   -0.5754 C   0  0  0  0  0  0  0  0  0  0  0  0
   -0.8730    0.0598   -1.2673 H   0  0  0  0  0  0  0  0  0  0  0  0
    0.6808   -0.0048   -0.4398 H   0  0  0  0  0  0  0  0  0  0  0  0
    0.0459   -1.8913   -1.2395 C   0  0  0  0  0  0  0  0  0  0  0  0
    0.8013   -1.7330   -2.0171 H   0  0  0  0  0  0  0  0  0  0  0  0
    0.5056   -2.5244   -0.4722 H   0  0  0  0  0  0  0  0  0  0  0  0
   -1.1462   -2.6277   -1.8737 C   0  0  0  0  0  0  0  0  0  0  0  0
   -2.0796   -2.3669   -1.3765 H   0  0  0  0  0  0  0  0  0  0  0  0
   -1.2488   -2.3211   -2.9201 H   0  0  0  0  0  0  0  0  0  0  0  0
   -0.9073   -4.1343   -1.7788 C   0  0  0  0  0  0  0  0  0  0  0  0
   -0.0823   -4.4173   -2.4482 H   0  0  0  0  0  0  0  0  0  0  0  0
   -0.5929   -4.3781   -0.7520 H   0  0  0  0  0  0  0  0  0  0  0  0
   -2.1536   -4.8511   -2.1121 N   0  3  0  0  0  0  0  0  0  0  0  0
   -2.5062   -4.5413   -3.0184 H   0  0  0  0  0  0  0  0  0  0  0  0
   -1.9809   -5.8574   -2.1423 H   0  0  0  0  0  0  0  0  0  0  0  0
   -2.8533   -4.6578   -1.3933 H   0  0  0  0  0  0  0  0  0  0  0  0
   -1.1377    0.8551    1.3354 C   0  0  0  0  0  0  0  0  0  0  0  0
   -2.1466    1.4861    1.0456 O   0  0  0  0  0  0  0  0  0  0  0  0
   -0.2411    1.3841    2.2449 N   0  0  0  0  0  0  0  0  0  0  0  0
    0.5619    0.8213    2.5117 H   0  0  0  0  0  0  0  0  0  0  0  0
   -0.4077    2.7008    2.8533 C   0  0  0  0  0  0  0  0  0  0  0  0
   -1.3477    2.7499    3.4135 H   0  0  0  0  0  0  0  0  0  0  0  0
    0.4154    2.9067    3.5447 H   0  0  0  0  0  0  0  0  0  0  0  0
   -0.4158    3.4815    2.0850 H   0  0  0  0  0  0  0  0  0  0  0  0
  1  2  1  0  0  0  0
  2  3  1  0  0  0  0
  2  4  1  0  0  0  0
  2  5  1  0  0  0  0
  5  6  2  0  0  0  0
  5  7  1  0  0  0  0
  7  8  1  0  0  0  0
  7  9  1  0  0  0  0
  9 10  1  0  0  0  0
  9 11  1  0  0  0  0
  9 27  1  0  0  0  0
 11 12  1  0  0  0  0
 11 13  1  0  0  0  0
 11 14  1  0  0  0  0
 14 15  1  0  0  0  0
 14 16  1  0  0  0  0
 14 17  1  0  0  0  0
 17 18  1  0  0  0  0
 17 19  1  0  0  0  0
 17 20  1  0  0  0  0
 20 21  1  0  0  0  0
 20 22  1  0  0  0  0
 20 23  1  0  0  0  0
 23 24  1  0  0  0  0
 23 25  1  0  0  0  0
 23 26  1  0  0  0  0
 27 28  2  0  0  0  0
 27 29  1  0  0  0  0
 29 30  1  0  0  0  0
 29 31  1  0  0  0  0
 31 32  1  0  0  0  0
 31 33  1  0  0  0  0
 31 34  1  0  0  0  0
M  CHG  1  23   1
M  END
$$$$

  -OEChem-02102214153D

 34 33  0     1  0  0  0  0  0999 V2000
   -3.8513   -3.9995    2.0013 H   0  0  0  0  0  0  0  0  0  0  0  0
   -3.8412   -2.9422    1.7218 C   0  0  0  0  0  0  0  0  0  0  0  0
   -4.1258   -2.3490    2.5946 H   0  0  0  0  0  0  0  0  0  0  0  0
   -4.5732   -2.7774    0.9279 H   0  0  0  0  0  0  0  0  0  0  0  0
   -2.4577   -2.5341    1.2533 C   0  0  0  0  0  0  0  0  0  0  0  0
   -1.5661   -3.3658    1.1860 O   0  0  0  0  0  0  0  0  0  0  0  0
   -2.2418   -1.2501    0.8004 N   0  0  0  0  0  0  0  0  0  0  0  0
   -3.0420   -0.6193    0.8852 H   0  0  0  0  0  0  0  0  0  0  0  0
   -0.9393   -0.5585    0.7986 C   0  0  1  0  0  0  0  0  0  0  0  0
   -0.2713   -1.0721    1.4988 H   0  0  0  0  0  0  0  0  0  0  0  0
   -0.2500   -0.5270   -0.5849 C   0  0  0  0  0  0  0  0  0  0  0  0
   -0.8643    0.0424   -1.2912 H   0  0  0  0  0  0  0  0  0  0  0  0
    0.6981    0.0110   -0.4764 H   0  0  0  0  0  0  0  0  0  0  0  0
    0.0526   -1.9194   -1.1632 C   0  0  0  0  0  0  0  0  0  0  0  0
    0.9461   -1.8470   -1.7932 H   0  0  0  0  0  0  0  0  0  0  0  0
    0.3055   -2.5968   -0.3412 H   0  0  0  0  0  0  0  0  0  0  0  0
   -1.0843   -2.4927   -2.0205 C   0  0  0  0  0  0  0  0  0  0  0  0
   -2.0558   -2.2320   -1.5928 H   0  0  0  0  0  0  0  0  0  0  0  0
   -1.0375   -2.0609   -3.0259 H   0  0  0  0  0  0  0  0  0  0  0  0
   -0.9421   -4.0115   -2.0696 C   0  0  0  0  0  0  0  0  0  0  0  0
    0.0392   -4.2715   -2.4920 H   0  0  0  0  0  0  0  0  0  0  0  0
   -0.9655   -4.4010   -1.0393 H   0  0  0  0  0  0  0  0  0  0  0  0
   -2.0415   -4.5813   -2.8759 N   0  3  0  0  0  0  0  0  0  0  0  0
   -2.0141   -4.2001   -3.8230 H   0  0  0  0  0  0  0  0  0  0  0  0
   -1.9503   -5.5982   -2.9213 H   0  0  0  0  0  0  0  0  0  0  0  0
   -2.9384   -4.3475   -2.4476 H   0  0  0  0  0  0  0  0  0  0  0  0
   -1.1247    0.8784    1.3276 C   0  0  0  0  0  0  0  0  0  0  0  0
   -2.1327    1.4961    1.0082 O   0  0  0  0  0  0  0  0  0  0  0  0
   -0.2510    1.4248    2.2489 N   0  0  0  0  0  0  0  0  0  0  0  0
    0.5496    0.8702    2.5395 H   0  0  0  0  0  0  0  0  0  0  0  0
   -0.4399    2.7469    2.8385 C   0  0  0  0  0  0  0  0  0  0  0  0
   -1.3758    2.7850    3.4063 H   0  0  0  0  0  0  0  0  0  0  0  0
    0.3855    2.9813    3.5180 H   0  0  0  0  0  0  0  0  0  0  0  0
   -0.4715    3.5149    2.0581 H   0  0  0  0  0  0  0  0  0  0  0  0
  1  2  1  0  0  0  0
  2  3  1  0  0  0  0
  2  4  1  0  0  0  0
  2  5  1  0  0  0  0
  5  6  2  0  0  0  0
  5  7  1  0  0  0  0
  7  8  1  0  0  0  0
  7  9  1  0  0  0  0
  9 10  1  0  0  0  0
  9 11  1  0  0  0  0
  9 27  1  0  0  0  0
 11 12  1  0  0  0  0
 11 13  1  0  0  0  0
 11 14  1  0  0  0  0
 14 15  1  0  0  0  0
 14 16  1  0  0  0  0
 14 17  1  0  0  0  0
 17 18  1  0  0  0  0
 17 19  1  0  0  0  0
 17 20  1  0  0  0  0
 20 21  1  0  0  0  0
 20 22  1  0  0  0  0
 20 23  1  0  0  0  0
 23 24  1  0  0  0  0
 23 25  1  0  0  0  0
 23 26  1  0  0  0  0
 27 28  2  0  0  0  0
 27 29  1  0  0  0  0
 29 30  1  0  0  0  0
 29 31  1  0  0  0  0
 31 32  1  0  0  0  0
 31 33  1  0  0  0  0
 31 34  1  0  0  0  0
M  CHG  1  23   1
M  END
$$$$

  -OEChem-02102214153D

 34 33  0     1  0  0  0  0  0999 V2000
   -3.8770   -3.9622    2.0684 H   0  0  0  0  0  0  0  0  0  0  0  0
   -3.8655   -2.9504    1.6531 C   0  0  0  0  0  0  0  0  0  0  0  0
   -4.3176   -2.2704    2.3799 H   0  0  0  0  0  0  0  0  0  0  0  0
   -4.4590   -2.9369    0.7362 H   0  0  0  0  0  0  0  0  0  0  0  0
   -2.4408   -2.5202    1.3604 C   0  0  0  0  0  0  0  0  0  0  0  0
   -1.5225   -3.3059    1.5240 O   0  0  0  0  0  0  0  0  0  0  0  0
   -2.1991   -1.2584    0.8588 N   0  0  0  0  0  0  0  0  0  0  0  0
   -3.0075   -0.6350    0.8225 H   0  0  0  0  0  0  0  0  0  0  0  0
   -0.8946   -0.5699    0.8611 C   0  0  1  0  0  0  0  0  0  0  0  0
   -0.2235   -1.0588    1.5757 H   0  0  0  0  0  0  0  0  0  0  0  0
   -0.2371   -0.5821   -0.5357 C   0  0  0  0  0  0  0  0  0  0  0  0
   -0.8610   -0.0196   -1.2395 H   0  0  0  0  0  0  0  0  0  0  0  0
    0.7188   -0.0517   -0.4626 H   0  0  0  0  0  0  0  0  0  0  0  0
    0.0364   -1.9954   -1.0801 C   0  0  0  0  0  0  0  0  0  0  0  0
    1.0411   -2.0041   -1.5173 H   0  0  0  0  0  0  0  0  0  0  0  0
    0.0500   -2.7238   -0.2664 H   0  0  0  0  0  0  0  0  0  0  0  0
   -0.9598   -2.4021   -2.1698 C   0  0  0  0  0  0  0  0  0  0  0  0
   -1.9806   -2.2623   -1.7984 H   0  0  0  0  0  0  0  0  0  0  0  0
   -0.8263   -1.7650   -3.0508 H   0  0  0  0  0  0  0  0  0  0  0  0
   -0.7373   -3.8688   -2.5265 C   0  0  0  0  0  0  0  0  0  0  0  0
    0.2905   -4.0003   -2.8951 H   0  0  0  0  0  0  0  0  0  0  0  0
   -0.8335   -4.4762   -1.6134 H   0  0  0  0  0  0  0  0  0  0  0  0
   -1.7278   -4.2776   -3.5449 N   0  3  0  0  0  0  0  0  0  0  0  0
   -1.6173   -3.7101   -4.3871 H   0  0  0  0  0  0  0  0  0  0  0  0
   -1.5959   -5.2619   -3.7867 H   0  0  0  0  0  0  0  0  0  0  0  0
   -2.6732   -4.1497   -3.1800 H   0  0  0  0  0  0  0  0  0  0  0  0
   -1.0867    0.8892    1.3216 C   0  0  0  0  0  0  0  0  0  0  0  0
   -2.0653    1.5085    0.9220 O   0  0  0  0  0  0  0  0  0  0  0  0
   -0.2341    1.4711    2.2410 N   0  0  0  0  0  0  0  0  0  0  0  0
    0.5272    0.9084    2.6113 H   0  0  0  0  0  0  0  0  0  0  0  0
   -0.4433    2.8104    2.7820 C   0  0  0  0  0  0  0  0  0  0  0  0
   -1.4024    2.8660    3.3079 H   0  0  0  0  0  0  0  0  0  0  0  0
    0.3528    3.0635    3.4891 H   0  0  0  0  0  0  0  0  0  0  0  0
   -0.4396    3.5546    1.9784 H   0  0  0  0  0  0  0  0  0  0  0  0
  1  2  1  0  0  0  0
  2  3  1  0  0  0  0
  2  4  1  0  0  0  0
  2  5  1  0  0  0  0
  5  6  2  0  0  0  0
  5  7  1  0  0  0  0
  7  8  1  0  0  0  0
  7  9  1  0  0  0  0
  9 10  1  0  0  0  0
  9 11  1  0  0  0  0
  9 27  1  0  0  0  0
 11 12  1  0  0  0  0
 11 13  1  0  0  0  0
 11 14  1  0  0  0  0
 14 15  1  0  0  0  0
 14 16  1  0  0  0  0
 14 17  1  0  0  0  0
 17 18  1  0  0  0  0
 17 19  1  0  0  0  0
 17 20  1  0  0  0  0
 20 21  1  0  0  0  0
 20 22  1  0  0  0  0
 20 23  1  0  0  0  0
 23 24  1  0  0  0  0
 23 25  1  0  0  0  0
 23 26  1  0  0  0  0
 27 28  2  0  0  0  0
 27 29  1  0  0  0  0
 29 30  1  0  0  0  0
 29 31  1  0  0  0  0
 31 32  1  0  0  0  0
 31 33  1  0  0  0  0
 31 34  1  0  0  0  0
M  CHG  1  23   1
M  END
$$$$

  -OEChem-02102214153D

 34 33  0     1  0  0  0  0  0999 V2000
   -3.8994   -3.9619    2.1034 H   0  0  0  0  0  0  0  0  0  0  0  0
   -3.8792   -2.9607    1.6635 C   0  0  0  0  0  0  0  0  0  0  0  0
   -4.3773   -2.2691    2.3479 H   0  0  0  0  0  0  0  0  0  0  0  0
   -4.4237   -2.9796    0.7167 H   0  0  0  0  0  0  0  0  0  0  0  0
   -2.4466   -2.5181    1.4341 C   0  0  0  0  0  0  0  0  0  0  0  0
   -1.5248   -3.2663    1.7144 O   0  0  0  0  0  0  0  0  0  0  0  0
   -2.1936   -1.2718    0.8986 N   0  0  0  0  0  0  0  0  0  0  0  0
   -3.0014   -0.6548    0.8003 H   0  0  0  0  0  0  0  0  0  0  0  0
   -0.8838   -0.5944    0.8949 C   0  0  1  0  0  0  0  0  0  0  0  0
   -0.2134   -1.0709    1.6183 H   0  0  0  0  0  0  0  0  0  0  0  0
   -0.2309   -0.6238   -0.5047 C   0  0  0  0  0  0  0  0  0  0  0  0
   -0.8691   -0.0653   -1.1989 H   0  0  0  0  0  0  0  0  0  0  0  0
    0.7237   -0.0887   -0.4525 H   0  0  0  0  0  0  0  0  0  0  0  0
    0.0345   -2.0391   -1.0563 C   0  0  0  0  0  0  0  0  0  0  0  0
    1.1110   -2.1476   -1.2296 H   0  0  0  0  0  0  0  0  0  0  0  0
   -0.2399   -2.8009   -0.3254 H   0  0  0  0  0  0  0  0  0  0  0  0
   -0.7116   -2.2862   -2.3713 C   0  0  0  0  0  0  0  0  0  0  0  0
   -1.7828   -2.1181   -2.2131 H   0  0  0  0  0  0  0  0  0  0  0  0
   -0.3623   -1.5792   -3.1319 H   0  0  0  0  0  0  0  0  0  0  0  0
   -0.4740   -3.7220   -2.8314 C   0  0  0  0  0  0  0  0  0  0  0  0
    0.6037   -3.8806   -2.9834 H   0  0  0  0  0  0  0  0  0  0  0  0
   -0.7925   -4.4114   -2.0350 H   0  0  0  0  0  0  0  0  0  0  0  0
   -1.2308   -3.9619   -4.0790 N   0  3  0  0  0  0  0  0  0  0  0  0
   -0.9079   -3.3262   -4.8107 H   0  0  0  0  0  0  0  0  0  0  0  0
   -1.0953   -4.9255   -4.3922 H   0  0  0  0  0  0  0  0  0  0  0  0
   -2.2268   -3.8026   -3.9176 H   0  0  0  0  0  0  0  0  0  0  0  0
   -1.0757    0.8774    1.3150 C   0  0  0  0  0  0  0  0  0  0  0  0
   -2.0350    1.4972    0.8710 O   0  0  0  0  0  0  0  0  0  0  0  0
   -0.2319    1.4815    2.2281 N   0  0  0  0  0  0  0  0  0  0  0  0
    0.5055    0.9179    2.6427 H   0  0  0  0  0  0  0  0  0  0  0  0
   -0.4431    2.8363    2.7282 C   0  0  0  0  0  0  0  0  0  0  0  0
   -1.4017    2.9062    3.2534 H   0  0  0  0  0  0  0  0  0  0  0  0
    0.3534    3.1127    3.4262 H   0  0  0  0  0  0  0  0  0  0  0  0
   -0.4419    3.5556    1.9021 H   0  0  0  0  0  0  0  0  0  0  0  0
  1  2  1  0  0  0  0
  2  3  1  0  0  0  0
  2  4  1  0  0  0  0
  2  5  1  0  0  0  0
  5  6  2  0  0  0  0
  5  7  1  0  0  0  0
  7  8  1  0  0  0  0
  7  9  1  0  0  0  0
  9 10  1  0  0  0  0
  9 11  1  0  0  0  0
  9 27  1  0  0  0  0
 11 12  1  0  0  0  0
 11 13  1  0  0  0  0
 11 14  1  0  0  0  0
 14 15  1  0  0  0  0
 14 16  1  0  0  0  0
 14 17  1  0  0  0  0
 17 18  1  0  0  0  0
 17 19  1  0  0  0  0
 17 20  1  0  0  0  0
 20 21  1  0  0  0  0
 20 22  1  0  0  0  0
 20 23  1  0  0  0  0
 23 24  1  0  0  0  0
 23 25  1  0  0  0  0
 23 26  1  0  0  0  0
 27 28  2  0  0  0  0
 27 29  1  0  0  0  0
 29 30  1  0  0  0  0
 29 31  1  0  0  0  0
 31 32  1  0  0  0  0
 31 33  1  0  0  0  0
 31 34  1  0  0  0  0
M  CHG  1  23   1
M  END
$$$$

  -OEChem-02102214153D

 34 33  0     1  0  0  0  0  0999 V2000
   -3.9076   -3.9626    2.1162 H   0  0  0  0  0  0  0  0  0  0  0  0
   -3.8909   -2.9667    1.6643 C   0  0  0  0  0  0  0  0  0  0  0  0
   -4.4088   -2.2717    2.3301 H   0  0  0  0  0  0  0  0  0  0  0  0
   -4.4176   -3.0036    0.7081 H   0  0  0  0  0  0  0  0  0  0  0  0
   -2.4597   -2.5115    1.4539 C   0  0  0  0  0  0  0  0  0  0  0  0
   -1.5328   -3.2470    1.7532 O   0  0  0  0  0  0  0  0  0  0  0  0
   -2.2080   -1.2690    0.9088 N   0  0  0  0  0  0  0  0  0  0  0  0
   -3.0155   -0.6554    0.7908 H   0  0  0  0  0  0  0  0  0  0  0  0
   -0.8944   -0.6001    0.8991 C   0  0  1  0  0  0  0  0  0  0  0  0
   -0.2251   -1.0758    1.6244 H   0  0  0  0  0  0  0  0  0  0  0  0
   -0.2385   -0.6376   -0.4993 C   0  0  0  0  0  0  0  0  0  0  0  0
   -0.8956   -0.0925   -1.1866 H   0  0  0  0  0  0  0  0  0  0  0  0
    0.7112   -0.0927   -0.4670 H   0  0  0  0  0  0  0  0  0  0  0  0
    0.0227   -2.0534   -1.0524 C   0  0  0  0  0  0  0  0  0  0  0  0
    1.0880   -2.2855   -0.9442 H   0  0  0  0  0  0  0  0  0  0  0  0
   -0.5245   -2.8013   -0.4777 H   0  0  0  0  0  0  0  0  0  0  0  0
   -0.3999   -2.1721   -2.5204 C   0  0  0  0  0  0  0  0  0  0  0  0
   -1.4652   -1.9309   -2.6100 H   0  0  0  0  0  0  0  0  0  0  0  0
    0.1661   -1.4540   -3.1241 H   0  0  0  0  0  0  0  0  0  0  0  0
   -0.1458   -3.5938   -3.0151 C   0  0  0  0  0  0  0  0  0  0  0  0
    0.9257   -3.8242   -2.9215 H   0  0  0  0  0  0  0  0  0  0  0  0
   -0.6853   -4.3019   -2.3684 H   0  0  0  0  0  0  0  0  0  0  0  0
   -0.5962   -3.7040   -4.4194 N   0  3  0  0  0  0  0  0  0  0  0  0
   -0.0740   -3.0501   -5.0056 H   0  0  0  0  0  0  0  0  0  0  0  0
   -0.4430   -4.6543   -4.7639 H   0  0  0  0  0  0  0  0  0  0  0  0
   -1.5920   -3.4843   -4.4839 H   0  0  0  0  0  0  0  0  0  0  0  0
   -1.0756    0.8750    1.3114 C   0  0  0  0  0  0  0  0  0  0  0  0
   -2.0229    1.5046    0.8561 O   0  0  0  0  0  0  0  0  0  0  0  0
   -0.2251    1.4767    2.2198 N   0  0  0  0  0  0  0  0  0  0  0  0
    0.4963    0.9037    2.6494 H   0  0  0  0  0  0  0  0  0  0  0  0
   -0.4210    2.8382    2.7082 C   0  0  0  0  0  0  0  0  0  0  0  0
   -1.3759    2.9221    3.2382 H   0  0  0  0  0  0  0  0  0  0  0  0
    0.3826    3.1135    3.3985 H   0  0  0  0  0  0  0  0  0  0  0  0
   -0.4179    3.5499    1.8756 H   0  0  0  0  0  0  0  0  0  0  0  0
  1  2  1  0  0  0  0
  2  3  1  0  0  0  0
  2  4  1  0  0  0  0
  2  5  1  0  0  0  0
  5  6  2  0  0  0  0
  5  7  1  0  0  0  0
  7  8  1  0  0  0  0
  7  9  1  0  0  0  0
  9 10  1  0  0  0  0
  9 11  1  0  0  0  0
  9 27  1  0  0  0  0
 11 12  1  0  0  0  0
 11 13  1  0  0  0  0
 11 14  1  0  0  0  0
 14 15  1  0  0  0  0
 14 16  1  0  0  0  0
 14 17  1  0  0  0  0
 17 18  1  0  0  0  0
 17 19  1  0  0  0  0
 17 20  1  0  0  0  0
 20 21  1  0  0  0  0
 20 22  1  0  0  0  0
 20 23  1  0  0  0  0
 23 24  1  0  0  0  0
 23 25  1  0  0  0  0
 23 26  1  0  0  0  0
 27 28  2  0  0  0  0
 27 29  1  0  0  0  0
 29 30  1  0  0  0  0
 29 31  1  0  0  0  0
 31 32  1  0  0  0  0
 31 33  1  0  0  0  0
 31 34  1  0  0  0  0
M  CHG  1  23   1
M  END
$$$$

  -OEChem-02102214153D

 34 33  0     1  0  0  0  0  0999 V2000
   -3.8909   -3.9721    2.0948 H   0  0  0  0  0  0  0  0  0  0  0  0
   -3.8880   -2.9707    1.6552 C   0  0  0  0  0  0  0  0  0  0  0  0
   -4.3973   -2.2868    2.3392 H   0  0  0  0  0  0  0  0  0  0  0  0
   -4.4323   -2.9999    0.7084 H   0  0  0  0  0  0  0  0  0  0  0  0
   -2.4633   -2.5051    1.4243 C   0  0  0  0  0  0  0  0  0  0  0  0
   -1.5255   -3.2396    1.6925 O   0  0  0  0  0  0  0  0  0  0  0  0
   -2.2245   -1.2561    0.8882 N   0  0  0  0  0  0  0  0  0  0  0  0
   -3.0348   -0.6437    0.7840 H   0  0  0  0  0  0  0  0  0  0  0  0
   -0.9105   -0.5894    0.8809 C   0  0  1  0  0  0  0  0  0  0  0  0
   -0.2433   -1.0710    1.6039 H   0  0  0  0  0  0  0  0  0  0  0  0
   -0.2502   -0.6284   -0.5147 C   0  0  0  0  0  0  0  0  0  0  0  0
   -0.9139   -0.0938   -1.2035 H   0  0  0  0  0  0  0  0  0  0  0  0
    0.6981   -0.0809   -0.4879 H   0  0  0  0  0  0  0  0  0  0  0  0
    0.0067   -2.0470   -1.0586 C   0  0  0  0  0  0  0  0  0  0  0  0
    0.9795   -2.4005   -0.6994 H   0  0  0  0  0  0  0  0  0  0  0  0
   -0.7491   -2.7419   -0.6875 H   0  0  0  0  0  0  0  0  0  0  0  0
   -0.0546   -2.0753   -2.5893 C   0  0  0  0  0  0  0  0  0  0  0  0
   -1.0430   -1.7378   -2.9207 H   0  0  0  0  0  0  0  0  0  0  0  0
    0.6955   -1.3888   -2.9974 H   0  0  0  0  0  0  0  0  0  0  0  0
    0.2047   -3.4959   -3.0850 C   0  0  0  0  0  0  0  0  0  0  0  0
    1.1954   -3.8247   -2.7381 H   0  0  0  0  0  0  0  0  0  0  0  0
   -0.5356   -4.1748   -2.6360 H   0  0  0  0  0  0  0  0  0  0  0  0
    0.1213   -3.5168   -4.5613 N   0  3  0  0  0  0  0  0  0  0  0  0
    0.8214   -2.8879   -4.9592 H   0  0  0  0  0  0  0  0  0  0  0  0
    0.2892   -4.4634   -4.9092 H   0  0  0  0  0  0  0  0  0  0  0  0
   -0.8066   -3.2126   -4.8620 H   0  0  0  0  0  0  0  0  0  0  0  0
   -1.0799    0.8827    1.3081 C   0  0  0  0  0  0  0  0  0  0  0  0
   -2.0175    1.5281    0.8556 O   0  0  0  0  0  0  0  0  0  0  0  0
   -0.2197    1.4678    2.2185 N   0  0  0  0  0  0  0  0  0  0  0  0
    0.4913    0.8805    2.6461 H   0  0  0  0  0  0  0  0  0  0  0  0
   -0.3991    2.8269    2.7193 C   0  0  0  0  0  0  0  0  0  0  0  0
   -1.3501    2.9164    3.2553 H   0  0  0  0  0  0  0  0  0  0  0  0
    0.4113    3.0885    3.4069 H   0  0  0  0  0  0  0  0  0  0  0  0
   -0.3939    3.5451    1.8925 H   0  0  0  0  0  0  0  0  0  0  0  0
  1  2  1  0  0  0  0
  2  3  1  0  0  0  0
  2  4  1  0  0  0  0
  2  5  1  0  0  0  0
  5  6  2  0  0  0  0
  5  7  1  0  0  0  0
  7  8  1  0  0  0  0
  7  9  1  0  0  0  0
  9 10  1  0  0  0  0
  9 11  1  0  0  0  0
  9 27  1  0  0  0  0
 11 12  1  0  0  0  0
 11 13  1  0  0  0  0
 11 14  1  0  0  0  0
 14 15  1  0  0  0  0
 14 16  1  0  0  0  0
 14 17  1  0  0  0  0
 17 18  1  0  0  0  0
 17 19  1  0  0  0  0
 17 20  1  0  0  0  0
 20 21  1  0  0  0  0
 20 22  1  0  0  0  0
 20 23  1  0  0  0  0
 23 24  1  0  0  0  0
 23 25  1  0  0  0  0
 23 26  1  0  0  0  0
 27 28  2  0  0  0  0
 27 29  1  0  0  0  0
 29 30  1  0  0  0  0
 29 31  1  0  0  0  0
 31 32  1  0  0  0  0
 31 33  1  0  0  0  0
 31 34  1  0  0  0  0
M  CHG  1  23   1
M  END
$$$$

  -OEChem-02102214153D

 34 33  0     1  0  0  0  0  0999 V2000
   -3.8574   -3.9811    2.0369 H   0  0  0  0  0  0  0  0  0  0  0  0
   -3.8633   -2.9795    1.5976 C   0  0  0  0  0  0  0  0  0  0  0  0
   -4.3803   -2.3006    2.2805 H   0  0  0  0  0  0  0  0  0  0  0  0
   -4.4058   -3.0130    0.6497 H   0  0  0  0  0  0  0  0  0  0  0  0
   -2.4427   -2.5002    1.3683 C   0  0  0  0  0  0  0  0  0  0  0  0
   -1.4974   -3.2379    1.6008 O   0  0  0  0  0  0  0  0  0  0  0  0
   -2.2137   -1.2406    0.8538 N   0  0  0  0  0  0  0  0  0  0  0  0
   -3.0278   -0.6311    0.7625 H   0  0  0  0  0  0  0  0  0  0  0  0
   -0.9031   -0.5680    0.8601 C   0  0  1  0  0  0  0  0  0  0  0  0
   -0.2371   -1.0577    1.5790 H   0  0  0  0  0  0  0  0  0  0  0  0
   -0.2420   -0.5981   -0.5333 C   0  0  0  0  0  0  0  0  0  0  0  0
   -0.8986   -0.0652   -1.2302 H   0  0  0  0  0  0  0  0  0  0  0  0
    0.7087   -0.0555   -0.4972 H   0  0  0  0  0  0  0  0  0  0  0  0
    0.0082   -2.0215   -1.0606 C   0  0  0  0  0  0  0  0  0  0  0  0
    0.8319   -2.4765   -0.4992 H   0  0  0  0  0  0  0  0  0  0  0  0
   -0.8796   -2.6409   -0.9063 H   0  0  0  0  0  0  0  0  0  0  0  0
    0.3147   -2.0072   -2.5612 C   0  0  0  0  0  0  0  0  0  0  0  0
   -0.5291   -1.5629   -3.1007 H   0  0  0  0  0  0  0  0  0  0  0  0
    1.2014   -1.3914   -2.7475 H   0  0  0  0  0  0  0  0  0  0  0  0
    0.5529   -3.4350   -3.0474 C   0  0  0  0  0  0  0  0  0  0  0  0
    1.4024   -3.8668   -2.4977 H   0  0  0  0  0  0  0  0  0  0  0  0
   -0.3293   -4.0485   -2.8107 H   0  0  0  0  0  0  0  0  0  0  0  0
    0.8127   -3.4149   -4.5033 N   0  3  0  0  0  0  0  0  0  0  0  0
    1.6398   -2.8490   -4.7023 H   0  0  0  0  0  0  0  0  0  0  0  0
    0.9705   -4.3656   -4.8449 H   0  0  0  0  0  0  0  0  0  0  0  0
    0.0111   -3.0147   -4.9947 H   0  0  0  0  0  0  0  0  0  0  0  0
   -1.0744    0.8962    1.3115 C   0  0  0  0  0  0  0  0  0  0  0  0
   -2.0136    1.5470    0.8705 O   0  0  0  0  0  0  0  0  0  0  0  0
   -0.2164    1.4686    2.2319 N   0  0  0  0  0  0  0  0  0  0  0  0
    0.4943    0.8761    2.6527 H   0  0  0  0  0  0  0  0  0  0  0  0
   -0.4046    2.8177    2.7563 C   0  0  0  0  0  0  0  0  0  0  0  0
   -1.3586    2.8920    3.2895 H   0  0  0  0  0  0  0  0  0  0  0  0
    0.4011    3.0715    3.4522 H   0  0  0  0  0  0  0  0  0  0  0  0
   -0.3997    3.5507    1.9423 H   0  0  0  0  0  0  0  0  0  0  0  0
  1  2  1  0  0  0  0
  2  3  1  0  0  0  0
  2  4  1  0  0  0  0
  2  5  1  0  0  0  0
  5  6  2  0  0  0  0
  5  7  1  0  0  0  0
  7  8  1  0  0  0  0
  7  9  1  0  0  0  0
  9 10  1  0  0  0  0
  9 11  1  0  0  0  0
  9 27  1  0  0  0  0
 11 12  1  0  0  0  0
 11 13  1  0  0  0  0
 11 14  1  0  0  0  0
 14 15  1  0  0  0  0
 14 16  1  0  0  0  0
 14 17  1  0  0  0  0
 17 18  1  0  0  0  0
 17 19  1  0  0  0  0
 17 20  1  0  0  0  0
 20 21  1  0  0  0  0
 20 22  1  0  0  0  0
 20 23  1  0  0  0  0
 23 24  1  0  0  0  0
 23 25  1  0  0  0  0
 23 26  1  0  0  0  0
 27 28  2  0  0  0  0
 27 29  1  0  0  0  0
 29 30  1  0  0  0  0
 29 31  1  0  0  0  0
 31 32  1  0  0  0  0
 31 33  1  0  0  0  0
 31 34  1  0  0  0  0
M  CHG  1  23   1
M  END
$$$$

  -OEChem-02102214153D

 34 33  0     1  0  0  0  0  0999 V2000
   -3.8436   -3.9971    2.0436 H   0  0  0  0  0  0  0  0  0  0  0  0
   -3.8680   -2.9871    1.6244 C   0  0  0  0  0  0  0  0  0  0  0  0
   -4.3558   -2.3223    2.3415 H   0  0  0  0  0  0  0  0  0  0  0  0
   -4.4499   -3.0025    0.6999 H   0  0  0  0  0  0  0  0  0  0  0  0
   -2.4585   -2.5023    1.3451 C   0  0  0  0  0  0  0  0  0  0  0  0
   -1.5055   -3.2470    1.5145 O   0  0  0  0  0  0  0  0  0  0  0  0
   -2.2490   -1.2318    0.8487 N   0  0  0  0  0  0  0  0  0  0  0  0
   -3.0665   -0.6222    0.7997 H   0  0  0  0  0  0  0  0  0  0  0  0
   -0.9411   -0.5533    0.8383 C   0  0  1  0  0  0  0  0  0  0  0  0
   -0.2742   -1.0570    1.5464 H   0  0  0  0  0  0  0  0  0  0  0  0
   -0.2761   -0.5874   -0.5554 C   0  0  0  0  0  0  0  0  0  0  0  0
   -0.7811    0.1406   -1.2006 H   0  0  0  0  0  0  0  0  0  0  0  0
    0.7682   -0.2730   -0.4561 H   0  0  0  0  0  0  0  0  0  0  0  0
   -0.3402   -1.9658   -1.2350 C   0  0  0  0  0  0  0  0  0  0  0  0
    0.1513   -2.7061   -0.5934 H   0  0  0  0  0  0  0  0  0  0  0  0
   -1.3843   -2.2704   -1.3616 H   0  0  0  0  0  0  0  0  0  0  0  0
    0.3351   -1.9354   -2.6089 C   0  0  0  0  0  0  0  0  0  0  0  0
   -0.1730   -1.2054   -3.2490 H   0  0  0  0  0  0  0  0  0  0  0  0
    1.3789   -1.6226   -2.4957 H   0  0  0  0  0  0  0  0  0  0  0  0
    0.2696   -3.3252   -3.2377 C   0  0  0  0  0  0  0  0  0  0  0  0
    0.7652   -4.0461   -2.5705 H   0  0  0  0  0  0  0  0  0  0  0  0
   -0.7827   -3.6346   -3.3209 H   0  0  0  0  0  0  0  0  0  0  0  0
    0.9220   -3.2900   -4.5643 N   0  3  0  0  0  0  0  0  0  0  0  0
    1.8989   -3.0084   -4.4649 H   0  0  0  0  0  0  0  0  0  0  0  0
    0.8860   -4.2151   -4.9978 H   0  0  0  0  0  0  0  0  0  0  0  0
    0.4440   -2.6207   -5.1705 H   0  0  0  0  0  0  0  0  0  0  0  0
   -1.0918    0.9043    1.3179 C   0  0  0  0  0  0  0  0  0  0  0  0
   -2.0397    1.5655    0.9135 O   0  0  0  0  0  0  0  0  0  0  0  0
   -0.2080    1.4581    2.2257 N   0  0  0  0  0  0  0  0  0  0  0  0
    0.5161    0.8588    2.6123 H   0  0  0  0  0  0  0  0  0  0  0  0
   -0.3685    2.8030    2.7702 C   0  0  0  0  0  0  0  0  0  0  0  0
   -1.3056    2.8807    3.3323 H   0  0  0  0  0  0  0  0  0  0  0  0
    0.4598    3.0416    3.4447 H   0  0  0  0  0  0  0  0  0  0  0  0
   -0.3793    3.5452    1.9648 H   0  0  0  0  0  0  0  0  0  0  0  0
  1  2  1  0  0  0  0
  2  3  1  0  0  0  0
  2  4  1  0  0  0  0
  2  5  1  0  0  0  0
  5  6  2  0  0  0  0
  5  7  1  0  0  0  0
  7  8  1  0  0  0  0
  7  9  1  0  0  0  0
  9 10  1  0  0  0  0
  9 11  1  0  0  0  0
  9 27  1  0  0  0  0
 11 12  1  0  0  0  0
 11 13  1  0  0  0  0
 11 14  1  0  0  0  0
 14 15  1  0  0  0  0
 14 16  1  0  0  0  0
 14 17  1  0  0  0  0
 17 18  1  0  0  0  0
 17 19  1  0  0  0  0
 17 20  1  0  0  0  0
 20 21  1  0  0  0  0
 20 22  1  0  0  0  0
 20 23  1  0  0  0  0
 23 24  1  0  0  0  0
 23 25  1  0  0  0  0
 23 26  1  0  0  0  0
 27 28  2  0  0  0  0
 27 29  1  0  0  0  0
 29 30  1  0  0  0  0
 29 31  1  0  0  0  0
 31 32  1  0  0  0  0
 31 33  1  0  0  0  0
 31 34  1  0  0  0  0
M  CHG  1  23   1
M  END
$$$$

  -OEChem-02102214153D

 34 33  0     1  0  0  0  0  0999 V2000
   -3.8450   -3.9960    1.9949 H   0  0  0  0  0  0  0  0  0  0  0  0
   -3.8567   -2.9981    1.5474 C   0  0  0  0  0  0  0  0  0  0  0  0
   -4.3958   -2.3213    2.2151 H   0  0  0  0  0  0  0  0  0  0  0  0
   -4.3808   -3.0462    0.5900 H   0  0  0  0  0  0  0  0  0  0  0  0
   -2.4390   -2.5012    1.3397 C   0  0  0  0  0  0  0  0  0  0  0  0
   -1.4900   -3.2329    1.5752 O   0  0  0  0  0  0  0  0  0  0  0  0
   -2.2190   -1.2313    0.8465 N   0  0  0  0  0  0  0  0  0  0  0  0
   -3.0391   -0.6303    0.7543 H   0  0  0  0  0  0  0  0  0  0  0  0
   -0.9147   -0.5455    0.8494 C   0  0  1  0  0  0  0  0  0  0  0  0
   -0.2468   -1.0469    1.5581 H   0  0  0  0  0  0  0  0  0  0  0  0
   -0.2550   -0.5721   -0.5472 C   0  0  0  0  0  0  0  0  0  0  0  0
   -0.7510    0.1584   -1.1963 H   0  0  0  0  0  0  0  0  0  0  0  0
    0.7891   -0.2607   -0.4378 H   0  0  0  0  0  0  0  0  0  0  0  0
   -0.3201   -1.9500   -1.2273 C   0  0  0  0  0  0  0  0  0  0  0  0
   -0.0404   -2.7203   -0.5008 H   0  0  0  0  0  0  0  0  0  0  0  0
   -1.3459   -2.1508   -1.5556 H   0  0  0  0  0  0  0  0  0  0  0  0
    0.6427   -2.0333   -2.4155 C   0  0  0  0  0  0  0  0  0  0  0  0
    0.3739   -1.2706   -3.1547 H   0  0  0  0  0  0  0  0  0  0  0  0
    1.6647   -1.8344   -2.0744 H   0  0  0  0  0  0  0  0  0  0  0  0
    0.5620   -3.4249   -3.0389 C   0  0  0  0  0  0  0  0  0  0  0  0
    0.8181   -4.1762   -2.2769 H   0  0  0  0  0  0  0  0  0  0  0  0
   -0.4747   -3.6216   -3.3492 H   0  0  0  0  0  0  0  0  0  0  0  0
    1.4863   -3.4969   -4.1912 N   0  3  0  0  0  0  0  0  0  0  0  0
    2.4432   -3.3150   -3.8826 H   0  0  0  0  0  0  0  0  0  0  0  0
    1.4459   -4.4259   -4.6157 H   0  0  0  0  0  0  0  0  0  0  0  0
    1.2257   -2.8003   -4.8918 H   0  0  0  0  0  0  0  0  0  0  0  0
   -1.0781    0.9122    1.3256 C   0  0  0  0  0  0  0  0  0  0  0  0
   -2.0220    1.5708    0.9078 O   0  0  0  0  0  0  0  0  0  0  0  0
   -0.2058    1.4696    2.2422 N   0  0  0  0  0  0  0  0  0  0  0  0
    0.5059    0.8682    2.6476 H   0  0  0  0  0  0  0  0  0  0  0  0
   -0.3810    2.8117    2.7893 C   0  0  0  0  0  0  0  0  0  0  0  0
   -1.3295    2.8851    3.3323 H   0  0  0  0  0  0  0  0  0  0  0  0
    0.4327    3.0490    3.4818 H   0  0  0  0  0  0  0  0  0  0  0  0
   -0.3772    3.5575    1.9871 H   0  0  0  0  0  0  0  0  0  0  0  0
  1  2  1  0  0  0  0
  2  3  1  0  0  0  0
  2  4  1  0  0  0  0
  2  5  1  0  0  0  0
  5  6  2  0  0  0  0
  5  7  1  0  0  0  0
  7  8  1  0  0  0  0
  7  9  1  0  0  0  0
  9 10  1  0  0  0  0
  9 11  1  0  0  0  0
  9 27  1  0  0  0  0
 11 12  1  0  0  0  0
 11 13  1  0  0  0  0
 11 14  1  0  0  0  0
 14 15  1  0  0  0  0
 14 16  1  0  0  0  0
 14 17  1  0  0  0  0
 17 18  1  0  0  0  0
 17 19  1  0  0  0  0
 17 20  1  0  0  0  0
 20 21  1  0  0  0  0
 20 22  1  0  0  0  0
 20 23  1  0  0  0  0
 23 24  1  0  0  0  0
 23 25  1  0  0  0  0
 23 26  1  0  0  0  0
 27 28  2  0  0  0  0
 27 29  1  0  0  0  0
 29 30  1  0  0  0  0
 29 31  1  0  0  0  0
 31 32  1  0  0  0  0
 31 33  1  0  0  0  0
 31 34  1  0  0  0  0
M  CHG  1  23   1
M  END
$$$$

  -OEChem-02102214153D

 34 33  0     1  0  0  0  0  0999 V2000
   -3.8671   -4.0002    1.9683 H   0  0  0  0  0  0  0  0  0  0  0  0
   -3.8646   -3.0030    1.5192 C   0  0  0  0  0  0  0  0  0  0  0  0
   -4.4286   -2.3263    2.1659 H   0  0  0  0  0  0  0  0  0  0  0  0
   -4.3536   -3.0537    0.5436 H   0  0  0  0  0  0  0  0  0  0  0  0
   -2.4416   -2.5029    1.3621 C   0  0  0  0  0  0  0  0  0  0  0  0
   -1.5007   -3.2234    1.6575 O   0  0  0  0  0  0  0  0  0  0  0  0
   -2.2080   -1.2379    0.8620 N   0  0  0  0  0  0  0  0  0  0  0  0
   -3.0260   -0.6420    0.7275 H   0  0  0  0  0  0  0  0  0  0  0  0
   -0.9027   -0.5530    0.8686 C   0  0  1  0  0  0  0  0  0  0  0  0
   -0.2352   -1.0515    1.5795 H   0  0  0  0  0  0  0  0  0  0  0  0
   -0.2438   -0.5720   -0.5299 C   0  0  0  0  0  0  0  0  0  0  0  0
   -0.7325    0.1670   -1.1754 H   0  0  0  0  0  0  0  0  0  0  0  0
    0.7986   -0.2592   -0.4082 H   0  0  0  0  0  0  0  0  0  0  0  0
   -0.3028   -1.9413   -1.2319 C   0  0  0  0  0  0  0  0  0  0  0  0
   -0.2676   -2.7349   -0.4807 H   0  0  0  0  0  0  0  0  0  0  0  0
   -1.2494   -2.0339   -1.7755 H   0  0  0  0  0  0  0  0  0  0  0  0
    0.8908   -2.1511   -2.1692 C   0  0  0  0  0  0  0  0  0  0  0  0
    0.8811   -1.3810   -2.9485 H   0  0  0  0  0  0  0  0  0  0  0  0
    1.8238   -2.0544   -1.6030 H   0  0  0  0  0  0  0  0  0  0  0  0
    0.8053   -3.5412   -2.7964 C   0  0  0  0  0  0  0  0  0  0  0  0
    0.7866   -4.2959   -1.9957 H   0  0  0  0  0  0  0  0  0  0  0  0
   -0.1427   -3.6316   -3.3469 H   0  0  0  0  0  0  0  0  0  0  0  0
    1.9637   -3.7459   -3.6928 N   0  3  0  0  0  0  0  0  0  0  0  0
    2.8334   -3.6586   -3.1636 H   0  0  0  0  0  0  0  0  0  0  0  0
    1.9231   -4.6778   -4.1116 H   0  0  0  0  0  0  0  0  0  0  0  0
    1.9567   -3.0467   -4.4379 H   0  0  0  0  0  0  0  0  0  0  0  0
   -1.0713    0.9082    1.3327 C   0  0  0  0  0  0  0  0  0  0  0  0
   -2.0105    1.5646    0.9011 O   0  0  0  0  0  0  0  0  0  0  0  0
   -0.2060    1.4727    2.2517 N   0  0  0  0  0  0  0  0  0  0  0  0
    0.4992    0.8731    2.6711 H   0  0  0  0  0  0  0  0  0  0  0  0
   -0.3853    2.8198    2.7850 C   0  0  0  0  0  0  0  0  0  0  0  0
   -1.3361    2.8968    3.3234 H   0  0  0  0  0  0  0  0  0  0  0  0
    0.4252    3.0652    3.4784 H   0  0  0  0  0  0  0  0  0  0  0  0
   -0.3798    3.5577    1.9754 H   0  0  0  0  0  0  0  0  0  0  0  0
  1  2  1  0  0  0  0
  2  3  1  0  0  0  0
  2  4  1  0  0  0  0
  2  5  1  0  0  0  0
  5  6  2  0  0  0  0
  5  7  1  0  0  0  0
  7  8  1  0  0  0  0
  7  9  1  0  0  0  0
  9 10  1  0  0  0  0
  9 11  1  0  0  0  0
  9 27  1  0  0  0  0
 11 12  1  0  0  0  0
 11 13  1  0  0  0  0
 11 14  1  0  0  0  0
 14 15  1  0  0  0  0
 14 16  1  0  0  0  0
 14 17  1  0  0  0  0
 17 18  1  0  0  0  0
 17 19  1  0  0  0  0
 17 20  1  0  0  0  0
 20 21  1  0  0  0  0
 20 22  1  0  0  0  0
 20 23  1  0  0  0  0
 23 24  1  0  0  0  0
 23 25  1  0  0  0  0
 23 26  1  0  0  0  0
 27 28  2  0  0  0  0
 27 29  1  0  0  0  0
 29 30  1  0  0  0  0
 29 31  1  0  0  0  0
 31 32  1  0  0  0  0
 31 33  1  0  0  0  0
 31 34  1  0  0  0  0
M  CHG  1  23   1
M  END
$$$$

  -OEChem-02102214153D

 34 33  0     1  0  0  0  0  0999 V2000
   -3.8914   -3.9919    1.9830 H   0  0  0  0  0  0  0  0  0  0  0  0
   -3.8829   -2.9967    1.5297 C   0  0  0  0  0  0  0  0  0  0  0  0
   -4.4502   -2.3161    2.1696 H   0  0  0  0  0  0  0  0  0  0  0  0
   -4.3653   -3.0505    0.5509 H   0  0  0  0  0  0  0  0  0  0  0  0
   -2.4572   -2.5014    1.3804 C   0  0  0  0  0  0  0  0  0  0  0  0
   -1.5208   -3.2224    1.6911 O   0  0  0  0  0  0  0  0  0  0  0  0
   -2.2152   -1.2402    0.8738 N   0  0  0  0  0  0  0  0  0  0  0  0
   -3.0295   -0.6420    0.7273 H   0  0  0  0  0  0  0  0  0  0  0  0
   -0.9058   -0.5630    0.8778 C   0  0  1  0  0  0  0  0  0  0  0  0
   -0.2415   -1.0622    1.5913 H   0  0  0  0  0  0  0  0  0  0  0  0
   -0.2373   -0.5782   -0.5183 C   0  0  0  0  0  0  0  0  0  0  0  0
   -0.7276    0.1644   -1.1583 H   0  0  0  0  0  0  0  0  0  0  0  0
    0.8012   -0.2547   -0.3924 H   0  0  0  0  0  0  0  0  0  0  0  0
   -0.2838   -1.9359   -1.2499 C   0  0  0  0  0  0  0  0  0  0  0  0
   -0.5299   -2.7336   -0.5472 H   0  0  0  0  0  0  0  0  0  0  0  0
   -1.0720   -1.9111   -2.0106 H   0  0  0  0  0  0  0  0  0  0  0  0
    1.0681   -2.2894   -1.8792 C   0  0  0  0  0  0  0  0  0  0  0  0
    1.3281   -1.5401   -2.6350 H   0  0  0  0  0  0  0  0  0  0  0  0
    1.8439   -2.2803   -1.1055 H   0  0  0  0  0  0  0  0  0  0  0  0
    0.9859   -3.6769   -2.5113 C   0  0  0  0  0  0  0  0  0  0  0  0
    0.6842   -4.4032   -1.7416 H   0  0  0  0  0  0  0  0  0  0  0  0
    0.2009   -3.6781   -3.2818 H   0  0  0  0  0  0  0  0  0  0  0  0
    2.3016   -4.0300   -3.0867 N   0  3  0  0  0  0  0  0  0  0  0  0
    3.0147   -4.0214   -2.3548 H   0  0  0  0  0  0  0  0  0  0  0  0
    2.2639   -4.9638   -3.5013 H   0  0  0  0  0  0  0  0  0  0  0  0
    2.5594   -3.3556   -3.8097 H   0  0  0  0  0  0  0  0  0  0  0  0
   -1.0727    0.9011    1.3358 C   0  0  0  0  0  0  0  0  0  0  0  0
   -2.0100    1.5574    0.9001 O   0  0  0  0  0  0  0  0  0  0  0  0
   -0.2084    1.4686    2.2539 N   0  0  0  0  0  0  0  0  0  0  0  0
    0.4936    0.8694    2.6788 H   0  0  0  0  0  0  0  0  0  0  0  0
   -0.3861    2.8189    2.7799 C   0  0  0  0  0  0  0  0  0  0  0  0
   -1.3368    2.8996    3.3180 H   0  0  0  0  0  0  0  0  0  0  0  0
    0.4247    3.0671    3.4720 H   0  0  0  0  0  0  0  0  0  0  0  0
   -0.3799    3.5526    1.9665 H   0  0  0  0  0  0  0  0  0  0  0  0
  1  2  1  0  0  0  0
  2  3  1  0  0  0  0
  2  4  1  0  0  0  0
  2  5  1  0  0  0  0
  5  6  2  0  0  0  0
  5  7  1  0  0  0  0
  7  8  1  0  0  0  0
  7  9  1  0  0  0  0
  9 10  1  0  0  0  0
  9 11  1  0  0  0  0
  9 27  1  0  0  0  0
 11 12  1  0  0  0  0
 11 13  1  0  0  0  0
 11 14  1  0  0  0  0
 14 15  1  0  0  0  0
 14 16  1  0  0  0  0
 14 17  1  0  0  0  0
 17 18  1  0  0  0  0
 17 19  1  0  0  0  0
 17 20  1  0  0  0  0
 20 21  1  0  0  0  0
 20 22  1  0  0  0  0
 20 23  1  0  0  0  0
 23 24  1  0  0  0  0
 23 25  1  0  0  0  0
 23 26  1  0  0  0  0
 27 28  2  0  0  0  0
 27 29  1  0  0  0  0
 29 30  1  0  0  0  0
 29 31  1  0  0  0  0
 31 32  1  0  0  0  0
 31 33  1  0  0  0  0
 31 34  1  0  0  0  0
M  CHG  1  23   1
M  END
$$$$

  -OEChem-02102214153D

 34 33  0     1  0  0  0  0  0999 V2000
   -3.8863   -3.9940    1.9916 H   0  0  0  0  0  0  0  0  0  0  0  0
   -3.8832   -2.9956    1.5451 C   0  0  0  0  0  0  0  0  0  0  0  0
   -4.4377   -2.3181    2.1995 H   0  0  0  0  0  0  0  0  0  0  0  0
   -4.3829   -3.0414    0.5744 H   0  0  0  0  0  0  0  0  0  0  0  0
   -2.4596   -2.5012    1.3737 C   0  0  0  0  0  0  0  0  0  0  0  0
   -1.5162   -3.2289    1.6499 O   0  0  0  0  0  0  0  0  0  0  0  0
   -2.2249   -1.2373    0.8699 N   0  0  0  0  0  0  0  0  0  0  0  0
   -3.0401   -0.6357    0.7419 H   0  0  0  0  0  0  0  0  0  0  0  0
   -0.9146   -0.5624    0.8683 C   0  0  1  0  0  0  0  0  0  0  0  0
   -0.2521   -1.0626    1.5821 H   0  0  0  0  0  0  0  0  0  0  0  0
   -0.2318   -0.5699   -0.5217 C   0  0  0  0  0  0  0  0  0  0  0  0
   -0.7428    0.1656   -1.1539 H   0  0  0  0  0  0  0  0  0  0  0  0
    0.7995   -0.2203   -0.4044 H   0  0  0  0  0  0  0  0  0  0  0  0
   -0.2604   -1.9186   -1.2748 C   0  0  0  0  0  0  0  0  0  0  0  0
   -0.7950   -2.6789   -0.7058 H   0  0  0  0  0  0  0  0  0  0  0  0
   -0.8025   -1.7849   -2.2174 H   0  0  0  0  0  0  0  0  0  0  0  0
    1.1536   -2.4329   -1.5640 C   0  0  0  0  0  0  0  0  0  0  0  0
    1.6658   -1.7420   -2.2430 H   0  0  0  0  0  0  0  0  0  0  0  0
    1.7194   -2.4772   -0.6266 H   0  0  0  0  0  0  0  0  0  0  0  0
    1.0727   -3.8271   -2.1817 C   0  0  0  0  0  0  0  0  0  0  0  0
    0.4993   -4.4834   -1.5096 H   0  0  0  0  0  0  0  0  0  0  0  0
    0.5189   -3.7724   -3.1303 H   0  0  0  0  0  0  0  0  0  0  0  0
    2.4410   -4.3481   -2.3880 N   0  3  0  0  0  0  0  0  0  0  0  0
    2.9318   -4.3974   -1.4929 H   0  0  0  0  0  0  0  0  0  0  0  0
    2.4020   -5.2848   -2.7958 H   0  0  0  0  0  0  0  0  0  0  0  0
    2.9586   -3.7324   -3.0177 H   0  0  0  0  0  0  0  0  0  0  0  0
   -1.0804    0.8989    1.3345 C   0  0  0  0  0  0  0  0  0  0  0  0
   -2.0274    1.5533    0.9177 O   0  0  0  0  0  0  0  0  0  0  0  0
   -0.2104    1.4612    2.2504 N   0  0  0  0  0  0  0  0  0  0  0  0
    0.5036    0.8644    2.6580 H   0  0  0  0  0  0  0  0  0  0  0  0
   -0.3892    2.8057    2.7895 C   0  0  0  0  0  0  0  0  0  0  0  0
   -1.3397    2.8790    3.3290 H   0  0  0  0  0  0  0  0  0  0  0  0
    0.4216    3.0486    3.4835 H   0  0  0  0  0  0  0  0  0  0  0  0
   -0.3847    3.5472    1.9832 H   0  0  0  0  0  0  0  0  0  0  0  0
  1  2  1  0  0  0  0
  2  3  1  0  0  0  0
  2  4  1  0  0  0  0
  2  5  1  0  0  0  0
  5  6  2  0  0  0  0
  5  7  1  0  0  0  0
  7  8  1  0  0  0  0
  7  9  1  0  0  0  0
  9 10  1  0  0  0  0
  9 11  1  0  0  0  0
  9 27  1  0  0  0  0
 11 12  1  0  0  0  0
 11 13  1  0  0  0  0
 11 14  1  0  0  0  0
 14 15  1  0  0  0  0
 14 16  1  0  0  0  0
 14 17  1  0  0  0  0
 17 18  1  0  0  0  0
 17 19  1  0  0  0  0
 17 20  1  0  0  0  0
 20 21  1  0  0  0  0
 20 22  1  0  0  0  0
 20 23  1  0  0  0  0
 23 24  1  0  0  0  0
 23 25  1  0  0  0  0
 23 26  1  0  0  0  0
 27 28  2  0  0  0  0
 27 29  1  0  0  0  0
 29 30  1  0  0  0  0
 29 31  1  0  0  0  0
 31 32  1  0  0  0  0
 31 33  1  0  0  0  0
 31 34  1  0  0  0  0
M  CHG  1  23   1
M  END
$$$$

  -OEChem-02102214153D

 34 33  0     1  0  0  0  0  0999 V2000
   -3.7896   -4.0420    1.9495 H   0  0  0  0  0  0  0  0  0  0  0  0
   -3.8177   -3.0271    1.5432 C   0  0  0  0  0  0  0  0  0  0  0  0
   -4.3384   -2.3798    2.2535 H   0  0  0  0  0  0  0  0  0  0  0  0
   -4.3710   -3.0390    0.6011 H   0  0  0  0  0  0  0  0  0  0  0  0
   -2.4092   -2.5147    1.3123 C   0  0  0  0  0  0  0  0  0  0  0  0
   -1.4456   -3.2462    1.5024 O   0  0  0  0  0  0  0  0  0  0  0  0
   -2.2090   -1.2359    0.8308 N   0  0  0  0  0  0  0  0  0  0  0  0
   -3.0334   -0.6375    0.7553 H   0  0  0  0  0  0  0  0  0  0  0  0
   -0.9074   -0.5462    0.8333 C   0  0  1  0  0  0  0  0  0  0  0  0
   -0.2406   -1.0492    1.5412 H   0  0  0  0  0  0  0  0  0  0  0  0
   -0.2156   -0.5313   -0.5519 C   0  0  0  0  0  0  0  0  0  0  0  0
   -0.7511    0.1939   -1.1754 H   0  0  0  0  0  0  0  0  0  0  0  0
    0.8088   -0.1588   -0.4451 H   0  0  0  0  0  0  0  0  0  0  0  0
   -0.2271   -1.8759   -1.3120 C   0  0  0  0  0  0  0  0  0  0  0  0
   -0.9950   -2.5523   -0.9367 H   0  0  0  0  0  0  0  0  0  0  0  0
   -0.4787   -1.6760   -2.3597 H   0  0  0  0  0  0  0  0  0  0  0  0
    1.1451   -2.5542   -1.2667 C   0  0  0  0  0  0  0  0  0  0  0  0
    1.8714   -1.9730   -1.8454 H   0  0  0  0  0  0  0  0  0  0  0  0
    1.4864   -2.5934   -0.2260 H   0  0  0  0  0  0  0  0  0  0  0  0
    1.0255   -3.9733   -1.8168 C   0  0  0  0  0  0  0  0  0  0  0  0
    0.2039   -4.4880   -1.2955 H   0  0  0  0  0  0  0  0  0  0  0  0
    0.7575   -3.9299   -2.8826 H   0  0  0  0  0  0  0  0  0  0  0  0
    2.3039   -4.6857   -1.6089 N   0  3  0  0  0  0  0  0  0  0  0  0
    2.5044   -4.7476   -0.6084 H   0  0  0  0  0  0  0  0  0  0  0  0
    2.2454   -5.6310   -1.9933 H   0  0  0  0  0  0  0  0  0  0  0  0
    3.0642   -4.1840   -2.0708 H   0  0  0  0  0  0  0  0  0  0  0  0
   -1.0887    0.9029    1.3322 C   0  0  0  0  0  0  0  0  0  0  0  0
   -2.0572    1.5465    0.9499 O   0  0  0  0  0  0  0  0  0  0  0  0
   -0.2200    1.4584    2.2534 N   0  0  0  0  0  0  0  0  0  0  0  0
    0.5195    0.8712    2.6272 H   0  0  0  0  0  0  0  0  0  0  0  0
   -0.4138    2.7874    2.8255 C   0  0  0  0  0  0  0  0  0  0  0  0
   -1.3620    2.8358    3.3719 H   0  0  0  0  0  0  0  0  0  0  0  0
    0.3975    3.0240    3.5211 H   0  0  0  0  0  0  0  0  0  0  0  0
   -0.4233    3.5481    2.0372 H   0  0  0  0  0  0  0  0  0  0  0  0
  1  2  1  0  0  0  0
  2  3  1  0  0  0  0
  2  4  1  0  0  0  0
  2  5  1  0  0  0  0
  5  6  2  0  0  0  0
  5  7  1  0  0  0  0
  7  8  1  0  0  0  0
  7  9  1  0  0  0  0
  9 10  1  0  0  0  0
  9 11  1  0  0  0  0
  9 27  1  0  0  0  0
 11 12  1  0  0  0  0
 11 13  1  0  0  0  0
 11 14  1  0  0  0  0
 14 15  1  0  0  0  0
 14 16  1  0  0  0  0
 14 17  1  0  0  0  0
 17 18  1  0  0  0  0
 17 19  1  0  0  0  0
 17 20  1  0  0  0  0
 20 21  1  0  0  0  0
 20 22  1  0  0  0  0
 20 23  1  0  0  0  0
 23 24  1  0  0  0  0
 23 25  1  0  0  0  0
 23 26  1  0  0  0  0
 27 28  2  0  0  0  0
 27 29  1  0  0  0  0
 29 30  1  0  0  0  0
 29 31  1  0  0  0  0
 31 32  1  0  0  0  0
 31 33  1  0  0  0  0
 31 34  1  0  0  0  0
M  CHG  1  23   1
M  END
$$$$

  -OEChem-02102214153D

 34 33  0     1  0  0  0  0  0999 V2000
   -3.1939   -4.3831    2.0282 H   0  0  0  0  0  0  0  0  0  0  0  0
   -3.3351   -3.3411    1.7284 C   0  0  0  0  0  0  0  0  0  0  0  0
   -3.7427   -2.7857    2.5773 H   0  0  0  0  0  0  0  0  0  0  0  0
   -4.0529   -3.3043    0.9048 H   0  0  0  0  0  0  0  0  0  0  0  0
   -2.0159   -2.7296    1.2982 C   0  0  0  0  0  0  0  0  0  0  0  0
   -1.0000   -3.4167    1.2475 O   0  0  0  0  0  0  0  0  0  0  0  0
   -1.9747   -1.4241    0.8614 N   0  0  0  0  0  0  0  0  0  0  0  0
   -2.8494   -0.8988    0.9380 H   0  0  0  0  0  0  0  0  0  0  0  0
   -0.7628   -0.5895    0.7679 C   0  0  1  0  0  0  0  0  0  0  0  0
    0.0145   -1.0358    1.3961 H   0  0  0  0  0  0  0  0  0  0  0  0
   -0.2017   -0.4662   -0.6687 C   0  0  0  0  0  0  0  0  0  0  0  0
   -0.8724    0.2014   -1.2220 H   0  0  0  0  0  0  0  0  0  0  0  0
    0.7792    0.0208   -0.6436 H   0  0  0  0  0  0  0  0  0  0  0  0
   -0.1235   -1.7847   -1.4631 C   0  0  0  0  0  0  0  0  0  0  0  0
   -0.9551   -2.4489   -1.2201 H   0  0  0  0  0  0  0  0  0  0  0  0
   -0.2152   -1.5554   -2.5307 H   0  0  0  0  0  0  0  0  0  0  0  0
    1.2359   -2.4673   -1.2336 C   0  0  0  0  0  0  0  0  0  0  0  0
    1.9957   -1.9382   -1.8199 H   0  0  0  0  0  0  0  0  0  0  0  0
    1.5298   -2.3953   -0.1805 H   0  0  0  0  0  0  0  0  0  0  0  0
    1.2025   -3.9343   -1.6601 C   0  0  0  0  0  0  0  0  0  0  0  0
    0.5840   -4.0347   -2.5637 H   0  0  0  0  0  0  0  0  0  0  0  0
    2.2190   -4.2585   -1.9263 H   0  0  0  0  0  0  0  0  0  0  0  0
    0.6741   -4.7468   -0.5423 N   0  3  0  0  0  0  0  0  0  0  0  0
   -0.0205   -4.2022   -0.0066 H   0  0  0  0  0  0  0  0  0  0  0  0
    0.2281   -5.5949   -0.8906 H   0  0  0  0  0  0  0  0  0  0  0  0
    1.4267   -5.0026    0.0965 H   0  0  0  0  0  0  0  0  0  0  0  0
   -1.0529    0.8133    1.3434 C   0  0  0  0  0  0  0  0  0  0  0  0
   -2.1438    1.3233    1.1256 O   0  0  0  0  0  0  0  0  0  0  0  0
   -0.1659    1.4403    2.1994 N   0  0  0  0  0  0  0  0  0  0  0  0
    0.7137    0.9773    2.4080 H   0  0  0  0  0  0  0  0  0  0  0  0
   -0.4461    2.7274    2.8299 C   0  0  0  0  0  0  0  0  0  0  0  0
   -1.3242    2.6537    3.4806 H   0  0  0  0  0  0  0  0  0  0  0  0
    0.4066    3.0480    3.4368 H   0  0  0  0  0  0  0  0  0  0  0  0
   -0.6355    3.4944    2.0710 H   0  0  0  0  0  0  0  0  0  0  0  0
  1  2  1  0  0  0  0
  2  3  1  0  0  0  0
  2  4  1  0  0  0  0
  2  5  1  0  0  0  0
  5  6  2  0  0  0  0
  5  7  1  0  0  0  0
  7  8  1  0  0  0  0
  7  9  1  0  0  0  0
  9 10  1  0  0  0  0
  9 11  1  0  0  0  0
  9 27  1  0  0  0  0
 11 12  1  0  0  0  0
 11 13  1  0  0  0  0
 11 14  1  0  0  0  0
 14 15  1  0  0  0  0
 14 16  1  0  0  0  0
 14 17  1  0  0  0  0
 17 18  1  0  0  0  0
 17 19  1  0  0  0  0
 17 20  1  0  0  0  0
 20 21  1  0  0  0  0
 20 22  1  0  0  0  0
 20 23  1  0  0  0  0
 23 24  1  0  0  0  0
 23 25  1  0  0  0  0
 23 26  1  0  0  0  0
 27 28  2  0  0  0  0
 27 29  1  0  0  0  0
 29 30  1  0  0  0  0
 29 31  1  0  0  0  0
 31 32  1  0  0  0  0
 31 33  1  0  0  0  0
 31 34  1  0  0  0  0
M  CHG  1  23   1
M  END
$$$$

  -OEChem-02102214153D

 34 33  0     1  0  0  0  0  0999 V2000
   -3.2129   -4.3457    2.2661 H   0  0  0  0  0  0  0  0  0  0  0  0
   -3.3397   -3.3253    1.8938 C   0  0  0  0  0  0  0  0  0  0  0  0
   -3.7737   -2.7155    2.6909 H   0  0  0  0  0  0  0  0  0  0  0  0
   -4.0297   -3.3408    1.0462 H   0  0  0  0  0  0  0  0  0  0  0  0
   -2.0042   -2.7447    1.4701 C   0  0  0  0  0  0  0  0  0  0  0  0
   -0.9976   -3.4426    1.4942 O   0  0  0  0  0  0  0  0  0  0  0  0
   -1.9516   -1.4681    0.9574 N   0  0  0  0  0  0  0  0  0  0  0  0
   -2.8361   -0.9538    0.9741 H   0  0  0  0  0  0  0  0  0  0  0  0
   -0.7602   -0.6038    0.8495 C   0  0  1  0  0  0  0  0  0  0  0  0
    0.0098   -0.9869    1.5266 H   0  0  0  0  0  0  0  0  0  0  0  0
   -0.1686   -0.5406   -0.5810 C   0  0  0  0  0  0  0  0  0  0  0  0
   -0.8350    0.0852   -1.1859 H   0  0  0  0  0  0  0  0  0  0  0  0
    0.8020   -0.0335   -0.5491 H   0  0  0  0  0  0  0  0  0  0  0  0
   -0.0250   -1.8855   -1.3162 C   0  0  0  0  0  0  0  0  0  0  0  0
   -0.9547   -2.4555   -1.2376 H   0  0  0  0  0  0  0  0  0  0  0  0
    0.1471   -1.6950   -2.3814 H   0  0  0  0  0  0  0  0  0  0  0  0
    1.1708   -2.6764   -0.7496 C   0  0  0  0  0  0  0  0  0  0  0  0
    2.0929   -2.1725   -1.0604 H   0  0  0  0  0  0  0  0  0  0  0  0
    1.1612   -2.6672    0.3440 H   0  0  0  0  0  0  0  0  0  0  0  0
    1.2183   -4.1226   -1.2413 C   0  0  0  0  0  0  0  0  0  0  0  0
    1.1391   -4.1469   -2.3377 H   0  0  0  0  0  0  0  0  0  0  0  0
    2.1973   -4.5483   -0.9771 H   0  0  0  0  0  0  0  0  0  0  0  0
    0.1314   -4.8875   -0.5965 N   0  3  0  0  0  0  0  0  0  0  0  0
   -0.1217   -4.4361    0.2980 H   0  0  0  0  0  0  0  0  0  0  0  0
   -0.6952   -4.8995   -1.1918 H   0  0  0  0  0  0  0  0  0  0  0  0
    0.4269   -5.8454   -0.4082 H   0  0  0  0  0  0  0  0  0  0  0  0
   -1.1131    0.8214    1.3244 C   0  0  0  0  0  0  0  0  0  0  0  0
   -2.2124    1.2783    1.0401 O   0  0  0  0  0  0  0  0  0  0  0  0
   -0.2757    1.5282    2.1672 N   0  0  0  0  0  0  0  0  0  0  0  0
    0.6128    1.1102    2.4273 H   0  0  0  0  0  0  0  0  0  0  0  0
   -0.6123    2.8456    2.6986 C   0  0  0  0  0  0  0  0  0  0  0  0
   -1.5253    2.7959    3.3018 H   0  0  0  0  0  0  0  0  0  0  0  0
    0.1986    3.2187    3.3318 H   0  0  0  0  0  0  0  0  0  0  0  0
   -0.7692    3.5599    1.8831 H   0  0  0  0  0  0  0  0  0  0  0  0
  1  2  1  0  0  0  0
  2  3  1  0  0  0  0
  2  4  1  0  0  0  0
  2  5  1  0  0  0  0
  5  6  2  0  0  0  0
  5  7  1  0  0  0  0
  7  8  1  0  0  0  0
  7  9  1  0  0  0  0
  9 10  1  0  0  0  0
  9 11  1  0  0  0  0
  9 27  1  0  0  0  0
 11 12  1  0  0  0  0
 11 13  1  0  0  0  0
 11 14  1  0  0  0  0
 14 15  1  0  0  0  0
 14 16  1  0  0  0  0
 14 17  1  0  0  0  0
 17 18  1  0  0  0  0
 17 19  1  0  0  0  0
 17 20  1  0  0  0  0
 20 21  1  0  0  0  0
 20 22  1  0  0  0  0
 20 23  1  0  0  0  0
 23 24  1  0  0  0  0
 23 25  1  0  0  0  0
 23 26  1  0  0  0  0
 27 28  2  0  0  0  0
 27 29  1  0  0  0  0
 29 30  1  0  0  0  0
 29 31  1  0  0  0  0
 31 32  1  0  0  0  0
 31 33  1  0  0  0  0
 31 34  1  0  0  0  0
M  CHG  1  23   1
M  END
$$$$

  -OEChem-02102214153D

 34 33  0     1  0  0  0  0  0999 V2000
   -3.6048   -4.2173    1.9158 H   0  0  0  0  0  0  0  0  0  0  0  0
   -3.6104   -3.2075    1.4964 C   0  0  0  0  0  0  0  0  0  0  0  0
   -4.1844   -2.5573    2.1622 H   0  0  0  0  0  0  0  0  0  0  0  0
   -4.1000   -3.2325    0.5196 H   0  0  0  0  0  0  0  0  0  0  0  0
   -2.1946   -2.6813    1.3570 C   0  0  0  0  0  0  0  0  0  0  0  0
   -1.2482   -3.4079    1.6381 O   0  0  0  0  0  0  0  0  0  0  0  0
   -2.0013   -1.4001    0.8861 N   0  0  0  0  0  0  0  0  0  0  0  0
   -2.8526   -0.8495    0.7494 H   0  0  0  0  0  0  0  0  0  0  0  0
   -0.7585   -0.6028    0.8864 C   0  0  1  0  0  0  0  0  0  0  0  0
   -0.0462   -1.0400    1.5922 H   0  0  0  0  0  0  0  0  0  0  0  0
   -0.1096   -0.5065   -0.5225 C   0  0  0  0  0  0  0  0  0  0  0  0
   -0.6946    0.2034   -1.1191 H   0  0  0  0  0  0  0  0  0  0  0  0
    0.8933   -0.0803   -0.4124 H   0  0  0  0  0  0  0  0  0  0  0  0
   -0.0068   -1.8051   -1.3461 C   0  0  0  0  0  0  0  0  0  0  0  0
   -1.0229   -2.1733   -1.5225 H   0  0  0  0  0  0  0  0  0  0  0  0
    0.4295   -1.5832   -2.3264 H   0  0  0  0  0  0  0  0  0  0  0  0
    0.8344   -2.8885   -0.6466 C   0  0  0  0  0  0  0  0  0  0  0  0
    1.8817   -2.7823   -0.9492 H   0  0  0  0  0  0  0  0  0  0  0  0
    0.8142   -2.7385    0.4338 H   0  0  0  0  0  0  0  0  0  0  0  0
    0.3426   -4.2943   -0.9987 C   0  0  0  0  0  0  0  0  0  0  0  0
   -0.6979   -4.2390   -1.3486 H   0  0  0  0  0  0  0  0  0  0  0  0
    0.9425   -4.7037   -1.8242 H   0  0  0  0  0  0  0  0  0  0  0  0
    0.4247   -5.1278    0.2178 N   0  3  0  0  0  0  0  0  0  0  0  0
   -0.1313   -4.6745    0.9625 H   0  0  0  0  0  0  0  0  0  0  0  0
    0.0467   -6.0589    0.0448 H   0  0  0  0  0  0  0  0  0  0  0  0
    1.3911   -5.2051    0.5333 H   0  0  0  0  0  0  0  0  0  0  0  0
   -1.0788    0.8286    1.3695 C   0  0  0  0  0  0  0  0  0  0  0  0
   -2.1215    1.3545    1.0019 O   0  0  0  0  0  0  0  0  0  0  0  0
   -0.2757    1.4746    2.2910 N   0  0  0  0  0  0  0  0  0  0  0  0
    0.5649    1.0038    2.6125 H   0  0  0  0  0  0  0  0  0  0  0  0
   -0.5866    2.7968    2.8265 C   0  0  0  0  0  0  0  0  0  0  0  0
   -1.5584    2.7890    3.3318 H   0  0  0  0  0  0  0  0  0  0  0  0
    0.1751    3.1027    3.5506 H   0  0  0  0  0  0  0  0  0  0  0  0
   -0.6159    3.5395    2.0220 H   0  0  0  0  0  0  0  0  0  0  0  0
  1  2  1  0  0  0  0
  2  3  1  0  0  0  0
  2  4  1  0  0  0  0
  2  5  1  0  0  0  0
  5  6  2  0  0  0  0
  5  7  1  0  0  0  0
  7  8  1  0  0  0  0
  7  9  1  0  0  0  0
  9 10  1  0  0  0  0
  9 11  1  0  0  0  0
  9 27  1  0  0  0  0
 11 12  1  0  0  0  0
 11 13  1  0  0  0  0
 11 14  1  0  0  0  0
 14 15  1  0  0  0  0
 14 16  1  0  0  0  0
 14 17  1  0  0  0  0
 17 18  1  0  0  0  0
 17 19  1  0  0  0  0
 17 20  1  0  0  0  0
 20 21  1  0  0  0  0
 20 22  1  0  0  0  0
 20 23  1  0  0  0  0
 23 24  1  0  0  0  0
 23 25  1  0  0  0  0
 23 26  1  0  0  0  0
 27 28  2  0  0  0  0
 27 29  1  0  0  0  0
 29 30  1  0  0  0  0
 29 31  1  0  0  0  0
 31 32  1  0  0  0  0
 31 33  1  0  0  0  0
 31 34  1  0  0  0  0
M  CHG  1  23   1
M  END
$$$$

  -OEChem-02102214153D

 34 33  0     1  0  0  0  0  0999 V2000
   -3.7001   -4.1767    2.0401 H   0  0  0  0  0  0  0  0  0  0  0  0
   -3.6686   -3.1823    1.5858 C   0  0  0  0  0  0  0  0  0  0  0  0
   -4.2712   -2.5030    2.1951 H   0  0  0  0  0  0  0  0  0  0  0  0
   -4.1027   -3.2368    0.5842 H   0  0  0  0  0  0  0  0  0  0  0  0
   -2.2405   -2.6760    1.5094 C   0  0  0  0  0  0  0  0  0  0  0  0
   -1.3285   -3.3910    1.9055 O   0  0  0  0  0  0  0  0  0  0  0  0
   -2.0075   -1.4236    0.9836 N   0  0  0  0  0  0  0  0  0  0  0  0
   -2.8474   -0.8773    0.7764 H   0  0  0  0  0  0  0  0  0  0  0  0
   -0.7620   -0.6289    0.9722 C   0  0  1  0  0  0  0  0  0  0  0  0
   -0.0604   -1.0355    1.7073 H   0  0  0  0  0  0  0  0  0  0  0  0
   -0.0826   -0.5565   -0.4280 C   0  0  0  0  0  0  0  0  0  0  0  0
   -0.6398    0.1615   -1.0415 H   0  0  0  0  0  0  0  0  0  0  0  0
    0.9157   -0.1326   -0.2765 H   0  0  0  0  0  0  0  0  0  0  0  0
    0.0802   -1.8271   -1.2904 C   0  0  0  0  0  0  0  0  0  0  0  0
   -0.9031   -2.0559   -1.7155 H   0  0  0  0  0  0  0  0  0  0  0  0
    0.7461   -1.6071   -2.1323 H   0  0  0  0  0  0  0  0  0  0  0  0
    0.6012   -3.0601   -0.5320 C   0  0  0  0  0  0  0  0  0  0  0  0
    0.6229   -2.8572    0.5388 H   0  0  0  0  0  0  0  0  0  0  0  0
    1.6425   -3.2366   -0.8230 H   0  0  0  0  0  0  0  0  0  0  0  0
   -0.2157   -4.3163   -0.8330 C   0  0  0  0  0  0  0  0  0  0  0  0
   -1.2754   -4.0431   -0.9354 H   0  0  0  0  0  0  0  0  0  0  0  0
    0.1066   -4.7522   -1.7896 H   0  0  0  0  0  0  0  0  0  0  0  0
   -0.0353   -5.2497    0.2968 N   0  3  0  0  0  0  0  0  0  0  0  0
   -0.3895   -4.7926    1.1537 H   0  0  0  0  0  0  0  0  0  0  0  0
   -0.5580   -6.1115    0.1418 H   0  0  0  0  0  0  0  0  0  0  0  0
    0.9524   -5.4678    0.4256 H   0  0  0  0  0  0  0  0  0  0  0  0
   -1.1043    0.8232    1.3748 C   0  0  0  0  0  0  0  0  0  0  0  0
   -2.1384    1.3234    0.9504 O   0  0  0  0  0  0  0  0  0  0  0  0
   -0.3304    1.5212    2.2833 N   0  0  0  0  0  0  0  0  0  0  0  0
    0.4990    1.0696    2.6577 H   0  0  0  0  0  0  0  0  0  0  0  0
   -0.6575    2.8703    2.7359 C   0  0  0  0  0  0  0  0  0  0  0  0
   -1.6332    2.8832    3.2336 H   0  0  0  0  0  0  0  0  0  0  0  0
    0.0958    3.2264    3.4456 H   0  0  0  0  0  0  0  0  0  0  0  0
   -0.6869    3.5638    1.8885 H   0  0  0  0  0  0  0  0  0  0  0  0
  1  2  1  0  0  0  0
  2  3  1  0  0  0  0
  2  4  1  0  0  0  0
  2  5  1  0  0  0  0
  5  6  2  0  0  0  0
  5  7  1  0  0  0  0
  7  8  1  0  0  0  0
  7  9  1  0  0  0  0
  9 10  1  0  0  0  0
  9 11  1  0  0  0  0
  9 27  1  0  0  0  0
 11 12  1  0  0  0  0
 11 13  1  0  0  0  0
 11 14  1  0  0  0  0
 14 15  1  0  0  0  0
 14 16  1  0  0  0  0
 14 17  1  0  0  0  0
 17 18  1  0  0  0  0
 17 19  1  0  0  0  0
 17 20  1  0  0  0  0
 20 21  1  0  0  0  0
 20 22  1  0  0  0  0
 20 23  1  0  0  0  0
 23 24  1  0  0  0  0
 23 25  1  0  0  0  0
 23 26  1  0  0  0  0
 27 28  2  0  0  0  0
 27 29  1  0  0  0  0
 29 30  1  0  0  0  0
 29 31  1  0  0  0  0
 31 32  1  0  0  0  0
 31 33  1  0  0  0  0
 31 34  1  0  0  0  0
M  CHG  1  23   1
M  END
$$$$

  -OEChem-02102214153D

 34 33  0     1  0  0  0  0  0999 V2000
   -3.7468   -4.1139    2.3318 H   0  0  0  0  0  0  0  0  0  0  0  0
   -3.7100   -3.1470    1.8222 C   0  0  0  0  0  0  0  0  0  0  0  0
   -4.2798   -2.4231    2.4115 H   0  0  0  0  0  0  0  0  0  0  0  0
   -4.1766   -3.2460    0.8388 H   0  0  0  0  0  0  0  0  0  0  0  0
   -2.2753   -2.6761    1.6779 C   0  0  0  0  0  0  0  0  0  0  0  0
   -1.3677   -3.3910    2.0807 O   0  0  0  0  0  0  0  0  0  0  0  0
   -2.0355   -1.4571    1.0834 N   0  0  0  0  0  0  0  0  0  0  0  0
   -2.8727   -0.9048    0.8785 H   0  0  0  0  0  0  0  0  0  0  0  0
   -0.7859   -0.6704    1.0347 C   0  0  1  0  0  0  0  0  0  0  0  0
   -0.0967   -1.0441    1.7989 H   0  0  0  0  0  0  0  0  0  0  0  0
   -0.0535   -0.6239   -0.3442 C   0  0  0  0  0  0  0  0  0  0  0  0
   -0.5844    0.0942   -0.9808 H   0  0  0  0  0  0  0  0  0  0  0  0
    0.9313   -0.1881   -0.1428 H   0  0  0  0  0  0  0  0  0  0  0  0
    0.1935   -1.8634   -1.2386 C   0  0  0  0  0  0  0  0  0  0  0  0
   -0.6493   -1.9441   -1.9341 H   0  0  0  0  0  0  0  0  0  0  0  0
    1.0810   -1.6659   -1.8507 H   0  0  0  0  0  0  0  0  0  0  0  0
    0.3734   -3.2109   -0.5292 C   0  0  0  0  0  0  0  0  0  0  0  0
    0.5047   -3.0411    0.5412 H   0  0  0  0  0  0  0  0  0  0  0  0
    1.3078   -3.6616   -0.8810 H   0  0  0  0  0  0  0  0  0  0  0  0
   -0.7600   -4.1924   -0.8154 C   0  0  0  0  0  0  0  0  0  0  0  0
   -1.7224   -3.6693   -0.7295 H   0  0  0  0  0  0  0  0  0  0  0  0
   -0.6790   -4.5661   -1.8462 H   0  0  0  0  0  0  0  0  0  0  0  0
   -0.6589   -5.2791    0.1800 N   0  3  0  0  0  0  0  0  0  0  0  0
   -0.7802   -4.8689    1.1208 H   0  0  0  0  0  0  0  0  0  0  0  0
   -1.3835   -5.9804    0.0278 H   0  0  0  0  0  0  0  0  0  0  0  0
    0.2588   -5.7214    0.1324 H   0  0  0  0  0  0  0  0  0  0  0  0
   -1.1454    0.7980    1.3583 C   0  0  0  0  0  0  0  0  0  0  0  0
   -2.1866    1.2630    0.9102 O   0  0  0  0  0  0  0  0  0  0  0  0
   -0.3837    1.5474    2.2351 N   0  0  0  0  0  0  0  0  0  0  0  0
    0.4467    1.1218    2.6374 H   0  0  0  0  0  0  0  0  0  0  0  0
   -0.7333    2.9093    2.6279 C   0  0  0  0  0  0  0  0  0  0  0  0
   -1.7014    2.9253    3.1401 H   0  0  0  0  0  0  0  0  0  0  0  0
    0.0226    3.3152    3.3075 H   0  0  0  0  0  0  0  0  0  0  0  0
   -0.7904    3.5602    1.7485 H   0  0  0  0  0  0  0  0  0  0  0  0
  1  2  1  0  0  0  0
  2  3  1  0  0  0  0
  2  4  1  0  0  0  0
  2  5  1  0  0  0  0
  5  6  2  0  0  0  0
  5  7  1  0  0  0  0
  7  8  1  0  0  0  0
  7  9  1  0  0  0  0
  9 10  1  0  0  0  0
  9 11  1  0  0  0  0
  9 27  1  0  0  0  0
 11 12  1  0  0  0  0
 11 13  1  0  0  0  0
 11 14  1  0  0  0  0
 14 15  1  0  0  0  0
 14 16  1  0  0  0  0
 14 17  1  0  0  0  0
 17 18  1  0  0  0  0
 17 19  1  0  0  0  0
 17 20  1  0  0  0  0
 20 21  1  0  0  0  0
 20 22  1  0  0  0  0
 20 23  1  0  0  0  0
 23 24  1  0  0  0  0
 23 25  1  0  0  0  0
 23 26  1  0  0  0  0
 27 28  2  0  0  0  0
 27 29  1  0  0  0  0
 29 30  1  0  0  0  0
 29 31  1  0  0  0  0
 31 32  1  0  0  0  0
 31 33  1  0  0  0  0
 31 34  1  0  0  0  0
M  CHG  1  23   1
M  END
$$$$

  -OEChem-02102214153D

 34 33  0     1  0  0  0  0  0999 V2000
   -3.9426   -3.9607    2.5090 H   0  0  0  0  0  0  0  0  0  0  0  0
   -3.8580   -3.0217    1.9544 C   0  0  0  0  0  0  0  0  0  0  0  0
   -4.3650   -2.2372    2.5235 H   0  0  0  0  0  0  0  0  0  0  0  0
   -4.3564   -3.1329    0.9882 H   0  0  0  0  0  0  0  0  0  0  0  0
   -2.4008   -2.6497    1.7554 C   0  0  0  0  0  0  0  0  0  0  0  0
   -1.5314   -3.4185    2.1386 O   0  0  0  0  0  0  0  0  0  0  0  0
   -2.1040   -1.4756    1.0989 N   0  0  0  0  0  0  0  0  0  0  0  0
   -2.9171   -0.8918    0.8820 H   0  0  0  0  0  0  0  0  0  0  0  0
   -0.8326   -0.7221    1.0732 C   0  0  1  0  0  0  0  0  0  0  0  0
   -0.2110   -1.0630    1.9082 H   0  0  0  0  0  0  0  0  0  0  0  0
    0.0329   -0.7407   -0.2308 C   0  0  0  0  0  0  0  0  0  0  0  0
   -0.4383   -0.0438   -0.9346 H   0  0  0  0  0  0  0  0  0  0  0  0
    0.9896   -0.2870    0.0511 H   0  0  0  0  0  0  0  0  0  0  0  0
    0.3872   -1.9840   -1.0894 C   0  0  0  0  0  0  0  0  0  0  0  0
   -0.1730   -1.9213   -2.0292 H   0  0  0  0  0  0  0  0  0  0  0  0
    1.4455   -1.8910   -1.3593 H   0  0  0  0  0  0  0  0  0  0  0  0
    0.1835   -3.3793   -0.5040 C   0  0  0  0  0  0  0  0  0  0  0  0
    0.3388   -3.3306    0.5761 H   0  0  0  0  0  0  0  0  0  0  0  0
    0.9687   -4.0320   -0.9007 H   0  0  0  0  0  0  0  0  0  0  0  0
   -1.1586   -4.0004   -0.8712 C   0  0  0  0  0  0  0  0  0  0  0  0
   -1.9592   -3.2677   -0.7015 H   0  0  0  0  0  0  0  0  0  0  0  0
   -1.1714   -4.2586   -1.9399 H   0  0  0  0  0  0  0  0  0  0  0  0
   -1.3226   -5.1895   -0.0097 N   0  3  0  0  0  0  0  0  0  0  0  0
   -1.3035   -4.8816    0.9762 H   0  0  0  0  0  0  0  0  0  0  0  0
   -2.2099   -5.6555   -0.1975 H   0  0  0  0  0  0  0  0  0  0  0  0
   -0.5558   -5.8449   -0.1612 H   0  0  0  0  0  0  0  0  0  0  0  0
   -1.1907    0.7675    1.2876 C   0  0  0  0  0  0  0  0  0  0  0  0
   -2.2077    1.2099    0.7663 O   0  0  0  0  0  0  0  0  0  0  0  0
   -0.4705    1.5608    2.1609 N   0  0  0  0  0  0  0  0  0  0  0  0
    0.3368    1.1552    2.6263 H   0  0  0  0  0  0  0  0  0  0  0  0
   -0.8322    2.9426    2.4642 C   0  0  0  0  0  0  0  0  0  0  0  0
   -1.8163    2.9863    2.9429 H   0  0  0  0  0  0  0  0  0  0  0  0
   -0.0984    3.3875    3.1439 H   0  0  0  0  0  0  0  0  0  0  0  0
   -0.8607    3.5431    1.5484 H   0  0  0  0  0  0  0  0  0  0  0  0
  1  2  1  0  0  0  0
  2  3  1  0  0  0  0
  2  4  1  0  0  0  0
  2  5  1  0  0  0  0
  5  6  2  0  0  0  0
  5  7  1  0  0  0  0
  7  8  1  0  0  0  0
  7  9  1  0  0  0  0
  9 10  1  0  0  0  0
  9 11  1  0  0  0  0
  9 27  1  0  0  0  0
 11 12  1  0  0  0  0
 11 13  1  0  0  0  0
 11 14  1  0  0  0  0
 14 15  1  0  0  0  0
 14 16  1  0  0  0  0
 14 17  1  0  0  0  0
 17 18  1  0  0  0  0
 17 19  1  0  0  0  0
 17 20  1  0  0  0  0
 20 21  1  0  0  0  0
 20 22  1  0  0  0  0
 20 23  1  0  0  0  0
 23 24  1  0  0  0  0
 23 25  1  0  0  0  0
 23 26  1  0  0  0  0
 27 28  2  0  0  0  0
 27 29  1  0  0  0  0
 29 30  1  0  0  0  0
 29 31  1  0  0  0  0
 31 32  1  0  0  0  0
 31 33  1  0  0  0  0
 31 34  1  0  0  0  0
M  CHG  1  23   1
M  END
$$$$

  -OEChem-02102214153D

 34 33  0     1  0  0  0  0  0999 V2000
   -4.4842   -3.4541    2.5791 H   0  0  0  0  0  0  0  0  0  0  0  0
   -4.3051   -2.5083    2.0601 C   0  0  0  0  0  0  0  0  0  0  0  0
   -4.7462   -1.6991    2.6483 H   0  0  0  0  0  0  0  0  0  0  0  0
   -4.7932   -2.5428    1.0832 H   0  0  0  0  0  0  0  0  0  0  0  0
   -2.8162   -2.2700    1.8936 C   0  0  0  0  0  0  0  0  0  0  0  0
   -2.0224   -3.0786    2.3502 O   0  0  0  0  0  0  0  0  0  0  0  0
   -2.3906   -1.1403    1.2236 N   0  0  0  0  0  0  0  0  0  0  0  0
   -3.1267   -0.4756    0.9749 H   0  0  0  0  0  0  0  0  0  0  0  0
   -1.0224   -0.5880    1.1415 C   0  0  1  0  0  0  0  0  0  0  0  0
   -0.4214   -1.0285    1.9439 H   0  0  0  0  0  0  0  0  0  0  0  0
   -0.2441   -0.7532   -0.2083 C   0  0  0  0  0  0  0  0  0  0  0  0
   -0.6652   -0.0131   -0.8994 H   0  0  0  0  0  0  0  0  0  0  0  0
    0.7870   -0.4371   -0.0152 H   0  0  0  0  0  0  0  0  0  0  0  0
   -0.1670   -2.0671   -1.0341 C   0  0  0  0  0  0  0  0  0  0  0  0
   -0.5491   -1.8606   -2.0403 H   0  0  0  0  0  0  0  0  0  0  0  0
    0.8924   -2.3253   -1.1437 H   0  0  0  0  0  0  0  0  0  0  0  0
   -0.8981   -3.2832   -0.4872 C   0  0  0  0  0  0  0  0  0  0  0  0
   -0.5356   -3.4447    0.5296 H   0  0  0  0  0  0  0  0  0  0  0  0
   -1.9750   -3.0973   -0.4833 H   0  0  0  0  0  0  0  0  0  0  0  0
   -0.6132   -4.5459   -1.2868 C   0  0  0  0  0  0  0  0  0  0  0  0
   -1.0101   -4.4432   -2.3072 H   0  0  0  0  0  0  0  0  0  0  0  0
    0.4743   -4.6873   -1.3687 H   0  0  0  0  0  0  0  0  0  0  0  0
   -1.2463   -5.6663   -0.5575 N   0  3  0  0  0  0  0  0  0  0  0  0
   -2.2609   -5.6232   -0.6633 H   0  0  0  0  0  0  0  0  0  0  0  0
   -0.9095   -6.5617   -0.9159 H   0  0  0  0  0  0  0  0  0  0  0  0
   -1.0205   -5.5973    0.4392 H   0  0  0  0  0  0  0  0  0  0  0  0
   -1.1227    0.9364    1.3781 C   0  0  0  0  0  0  0  0  0  0  0  0
   -2.0525    1.5561    0.8752 O   0  0  0  0  0  0  0  0  0  0  0  0
   -0.2417    1.5907    2.2190 N   0  0  0  0  0  0  0  0  0  0  0  0
    0.4729    1.0401    2.6867 H   0  0  0  0  0  0  0  0  0  0  0  0
   -0.3556    3.0097    2.5423 C   0  0  0  0  0  0  0  0  0  0  0  0
   -1.2917    3.2079    3.0753 H   0  0  0  0  0  0  0  0  0  0  0  0
    0.4777    3.3230    3.1792 H   0  0  0  0  0  0  0  0  0  0  0  0
   -0.3364    3.6154    1.6298 H   0  0  0  0  0  0  0  0  0  0  0  0
  1  2  1  0  0  0  0
  2  3  1  0  0  0  0
  2  4  1  0  0  0  0
  2  5  1  0  0  0  0
  5  6  2  0  0  0  0
  5  7  1  0  0  0  0
  7  8  1  0  0  0  0
  7  9  1  0  0  0  0
  9 10  1  0  0  0  0
  9 11  1  0  0  0  0
  9 27  1  0  0  0  0
 11 12  1  0  0  0  0
 11 13  1  0  0  0  0
 11 14  1  0  0  0  0
 14 15  1  0  0  0  0
 14 16  1  0  0  0  0
 14 17  1  0  0  0  0
 17 18  1  0  0  0  0
 17 19  1  0  0  0  0
 17 20  1  0  0  0  0
 20 21  1  0  0  0  0
 20 22  1  0  0  0  0
 20 23  1  0  0  0  0
 23 24  1  0  0  0  0
 23 25  1  0  0  0  0
 23 26  1  0  0  0  0
 27 28  2  0  0  0  0
 27 29  1  0  0  0  0
 29 30  1  0  0  0  0
 29 31  1  0  0  0  0
 31 32  1  0  0  0  0
 31 33  1  0  0  0  0
 31 34  1  0  0  0  0
M  CHG  1  23   1
M  END
$$$$

  -OEChem-02102214153D

 34 33  0     1  0  0  0  0  0999 V2000
   -4.6426   -3.5042    2.2907 H   0  0  0  0  0  0  0  0  0  0  0  0
   -4.4345   -2.5424    1.8139 C   0  0  0  0  0  0  0  0  0  0  0  0
   -4.7824   -1.7449    2.4763 H   0  0  0  0  0  0  0  0  0  0  0  0
   -4.9877   -2.4847    0.8731 H   0  0  0  0  0  0  0  0  0  0  0  0
   -2.9480   -2.3853    1.5573 C   0  0  0  0  0  0  0  0  0  0  0  0
   -2.1921   -3.3202    1.7820 O   0  0  0  0  0  0  0  0  0  0  0  0
   -2.4812   -1.1981    1.0407 N   0  0  0  0  0  0  0  0  0  0  0  0
   -3.1826   -0.4580    0.9507 H   0  0  0  0  0  0  0  0  0  0  0  0
   -1.0908   -0.7118    0.9573 C   0  0  1  0  0  0  0  0  0  0  0  0
   -0.4791   -1.2942    1.6538 H   0  0  0  0  0  0  0  0  0  0  0  0
   -0.3833   -0.7137   -0.4384 C   0  0  0  0  0  0  0  0  0  0  0  0
   -0.8208    0.1343   -0.9796 H   0  0  0  0  0  0  0  0  0  0  0  0
    0.6651   -0.4508   -0.2596 H   0  0  0  0  0  0  0  0  0  0  0  0
   -0.3807   -1.8633   -1.4881 C   0  0  0  0  0  0  0  0  0  0  0  0
   -0.5483   -1.3857   -2.4608 H   0  0  0  0  0  0  0  0  0  0  0  0
    0.6362   -2.2700   -1.5309 H   0  0  0  0  0  0  0  0  0  0  0  0
   -1.3653   -3.0340   -1.4052 C   0  0  0  0  0  0  0  0  0  0  0  0
   -1.5837   -3.3908   -2.4176 H   0  0  0  0  0  0  0  0  0  0  0  0
   -2.3145   -2.7198   -0.9737 H   0  0  0  0  0  0  0  0  0  0  0  0
   -0.6931   -4.1699   -0.6275 C   0  0  0  0  0  0  0  0  0  0  0  0
    0.0861   -4.6249   -1.2554 H   0  0  0  0  0  0  0  0  0  0  0  0
   -0.1932   -3.7440    0.2551 H   0  0  0  0  0  0  0  0  0  0  0  0
   -1.6900   -5.1664   -0.1980 N   0  3  0  0  0  0  0  0  0  0  0  0
   -2.3769   -5.3297   -0.9326 H   0  0  0  0  0  0  0  0  0  0  0  0
   -1.2337   -6.0447    0.0494 H   0  0  0  0  0  0  0  0  0  0  0  0
   -2.1627   -4.7943    0.6395 H   0  0  0  0  0  0  0  0  0  0  0  0
   -1.0934    0.7637    1.4227 C   0  0  0  0  0  0  0  0  0  0  0  0
   -2.0255    1.4868    1.0925 O   0  0  0  0  0  0  0  0  0  0  0  0
   -0.1353    1.2432    2.2965 N   0  0  0  0  0  0  0  0  0  0  0  0
    0.5961    0.6093    2.6050 H   0  0  0  0  0  0  0  0  0  0  0  0
   -0.1513    2.6036    2.8263 C   0  0  0  0  0  0  0  0  0  0  0  0
   -1.0632    2.7804    3.4067 H   0  0  0  0  0  0  0  0  0  0  0  0
    0.7104    2.7670    3.4812 H   0  0  0  0  0  0  0  0  0  0  0  0
   -0.1072    3.3345    2.0116 H   0  0  0  0  0  0  0  0  0  0  0  0
  1  2  1  0  0  0  0
  2  3  1  0  0  0  0
  2  4  1  0  0  0  0
  2  5  1  0  0  0  0
  5  6  2  0  0  0  0
  5  7  1  0  0  0  0
  7  8  1  0  0  0  0
  7  9  1  0  0  0  0
  9 10  1  0  0  0  0
  9 11  1  0  0  0  0
  9 27  1  0  0  0  0
 11 12  1  0  0  0  0
 11 13  1  0  0  0  0
 11 14  1  0  0  0  0
 14 15  1  0  0  0  0
 14 16  1  0  0  0  0
 14 17  1  0  0  0  0
 17 18  1  0  0  0  0
 17 19  1  0  0  0  0
 17 20  1  0  0  0  0
 20 21  1  0  0  0  0
 20 22  1  0  0  0  0
 20 23  1  0  0  0  0
 23 24  1  0  0  0  0
 23 25  1  0  0  0  0
 23 26  1  0  0  0  0
 27 28  2  0  0  0  0
 27 29  1  0  0  0  0
 29 30  1  0  0  0  0
 29 31  1  0  0  0  0
 31 32  1  0  0  0  0
 31 33  1  0  0  0  0
 31 34  1  0  0  0  0
M  CHG  1  23   1
M  END
$$$$

  -OEChem-02102214153D

 34 33  0     1  0  0  0  0  0999 V2000
   -4.6218   -3.4842    2.2770 H   0  0  0  0  0  0  0  0  0  0  0  0
   -4.4316   -2.5048    1.8293 C   0  0  0  0  0  0  0  0  0  0  0  0
   -4.7218   -1.7338    2.5486 H   0  0  0  0  0  0  0  0  0  0  0  0
   -5.0463   -2.3980    0.9319 H   0  0  0  0  0  0  0  0  0  0  0  0
   -2.9629   -2.3550    1.4803 C   0  0  0  0  0  0  0  0  0  0  0  0
   -2.2168   -3.3199    1.5741 O   0  0  0  0  0  0  0  0  0  0  0  0
   -2.5138   -1.1559    0.9764 N   0  0  0  0  0  0  0  0  0  0  0  0
   -3.2131   -0.4086    0.9480 H   0  0  0  0  0  0  0  0  0  0  0  0
   -1.1257   -0.6608    0.9303 C   0  0  1  0  0  0  0  0  0  0  0  0
   -0.5421   -1.2391    1.6544 H   0  0  0  0  0  0  0  0  0  0  0  0
   -0.3471   -0.6853   -0.4238 C   0  0  0  0  0  0  0  0  0  0  0  0
   -0.7740    0.1394   -1.0073 H   0  0  0  0  0  0  0  0  0  0  0  0
    0.6890   -0.4035   -0.2062 H   0  0  0  0  0  0  0  0  0  0  0  0
   -0.2910   -1.8666   -1.4314 C   0  0  0  0  0  0  0  0  0  0  0  0
   -0.1139   -1.4234   -2.4183 H   0  0  0  0  0  0  0  0  0  0  0  0
    0.6169   -2.4328   -1.1957 H   0  0  0  0  0  0  0  0  0  0  0  0
   -1.4563   -2.8573   -1.5866 C   0  0  0  0  0  0  0  0  0  0  0  0
   -1.7055   -2.9577   -2.6487 H   0  0  0  0  0  0  0  0  0  0  0  0
   -2.3553   -2.4896   -1.0976 H   0  0  0  0  0  0  0  0  0  0  0  0
   -1.0143   -4.2281   -1.0578 C   0  0  0  0  0  0  0  0  0  0  0  0
   -0.4366   -4.7462   -1.8365 H   0  0  0  0  0  0  0  0  0  0  0  0
   -0.3417   -4.0748   -0.2008 H   0  0  0  0  0  0  0  0  0  0  0  0
   -2.1776   -5.0197   -0.6225 N   0  3  0  0  0  0  0  0  0  0  0  0
   -2.9386   -4.9405   -1.2955 H   0  0  0  0  0  0  0  0  0  0  0  0
   -1.9193   -6.0000   -0.5075 H   0  0  0  0  0  0  0  0  0  0  0  0
   -2.4837   -4.6500    0.2901 H   0  0  0  0  0  0  0  0  0  0  0  0
   -1.1418    0.8121    1.4006 C   0  0  0  0  0  0  0  0  0  0  0  0
   -2.0751    1.5296    1.0621 O   0  0  0  0  0  0  0  0  0  0  0  0
   -0.2053    1.2895    2.2986 N   0  0  0  0  0  0  0  0  0  0  0  0
    0.5293    0.6599    2.6089 H   0  0  0  0  0  0  0  0  0  0  0  0
   -0.2358    2.6472    2.8344 C   0  0  0  0  0  0  0  0  0  0  0  0
   -1.1582    2.8167    3.4002 H   0  0  0  0  0  0  0  0  0  0  0  0
    0.6143    2.8105    3.5044 H   0  0  0  0  0  0  0  0  0  0  0  0
   -0.1808    3.3820    2.0240 H   0  0  0  0  0  0  0  0  0  0  0  0
  1  2  1  0  0  0  0
  2  3  1  0  0  0  0
  2  4  1  0  0  0  0
  2  5  1  0  0  0  0
  5  6  2  0  0  0  0
  5  7  1  0  0  0  0
  7  8  1  0  0  0  0
  7  9  1  0  0  0  0
  9 10  1  0  0  0  0
  9 11  1  0  0  0  0
  9 27  1  0  0  0  0
 11 12  1  0  0  0  0
 11 13  1  0  0  0  0
 11 14  1  0  0  0  0
 14 15  1  0  0  0  0
 14 16  1  0  0  0  0
 14 17  1  0  0  0  0
 17 18  1  0  0  0  0
 17 19  1  0  0  0  0
 17 20  1  0  0  0  0
 20 21  1  0  0  0  0
 20 22  1  0  0  0  0
 20 23  1  0  0  0  0
 23 24  1  0  0  0  0
 23 25  1  0  0  0  0
 23 26  1  0  0  0  0
 27 28  2  0  0  0  0
 27 29  1  0  0  0  0
 29 30  1  0  0  0  0
 29 31  1  0  0  0  0
 31 32  1  0  0  0  0
 31 33  1  0  0  0  0
 31 34  1  0  0  0  0
M  CHG  1  23   1
M  END
$$$$

  -OEChem-02102214153D

 34 33  0     1  0  0  0  0  0999 V2000
   -4.9122   -3.3231    1.9940 H   0  0  0  0  0  0  0  0  0  0  0  0
   -4.6617   -2.3071    1.6763 C   0  0  0  0  0  0  0  0  0  0  0  0
   -4.9094   -1.6171    2.4874 H   0  0  0  0  0  0  0  0  0  0  0  0
   -5.2630   -2.0524    0.7999 H   0  0  0  0  0  0  0  0  0  0  0  0
   -3.1855   -2.2047    1.3446 C   0  0  0  0  0  0  0  0  0  0  0  0
   -2.4697   -3.2003    1.3857 O   0  0  0  0  0  0  0  0  0  0  0  0
   -2.6636   -1.0183    0.8751 N   0  0  0  0  0  0  0  0  0  0  0  0
   -3.3029   -0.2187    0.8707 H   0  0  0  0  0  0  0  0  0  0  0  0
   -1.2365   -0.6577    0.9038 C   0  0  1  0  0  0  0  0  0  0  0  0
   -0.7488   -1.2939    1.6498 H   0  0  0  0  0  0  0  0  0  0  0  0
   -0.3906   -0.7606   -0.4024 C   0  0  0  0  0  0  0  0  0  0  0  0
   -0.6834    0.1010   -1.0138 H   0  0  0  0  0  0  0  0  0  0  0  0
    0.6581   -0.6054   -0.1260 H   0  0  0  0  0  0  0  0  0  0  0  0
   -0.4357   -1.9693   -1.3750 C   0  0  0  0  0  0  0  0  0  0  0  0
    0.1128   -1.6910   -2.2823 H   0  0  0  0  0  0  0  0  0  0  0  0
    0.1554   -2.7489   -0.8867 H   0  0  0  0  0  0  0  0  0  0  0  0
   -1.7828   -2.5868   -1.8094 C   0  0  0  0  0  0  0  0  0  0  0  0
   -2.0648   -2.1267   -2.7628 H   0  0  0  0  0  0  0  0  0  0  0  0
   -2.5946   -2.3630   -1.1315 H   0  0  0  0  0  0  0  0  0  0  0  0
   -1.7028   -4.1041   -2.0061 C   0  0  0  0  0  0  0  0  0  0  0  0
   -2.6427   -4.4450   -2.4638 H   0  0  0  0  0  0  0  0  0  0  0  0
   -0.8961   -4.3404   -2.7147 H   0  0  0  0  0  0  0  0  0  0  0  0
   -1.4884   -4.7743   -0.7030 N   0  3  0  0  0  0  0  0  0  0  0  0
   -1.9005   -5.7074   -0.7052 H   0  0  0  0  0  0  0  0  0  0  0  0
   -0.4928   -4.8486   -0.5001 H   0  0  0  0  0  0  0  0  0  0  0  0
   -1.9266   -4.2227    0.0520 H   0  0  0  0  0  0  0  0  0  0  0  0
   -1.1262    0.7986    1.4099 C   0  0  0  0  0  0  0  0  0  0  0  0
   -1.9660    1.6138    1.0506 O   0  0  0  0  0  0  0  0  0  0  0  0
   -0.1878    1.1602    2.3588 N   0  0  0  0  0  0  0  0  0  0  0  0
    0.4633    0.4533    2.6877 H   0  0  0  0  0  0  0  0  0  0  0  0
   -0.1129    2.5009    2.9321 C   0  0  0  0  0  0  0  0  0  0  0  0
   -1.0319    2.7361    3.4797 H   0  0  0  0  0  0  0  0  0  0  0  0
    0.7301    2.5708    3.6267 H   0  0  0  0  0  0  0  0  0  0  0  0
    0.0279    3.2492    2.1445 H   0  0  0  0  0  0  0  0  0  0  0  0
  1  2  1  0  0  0  0
  2  3  1  0  0  0  0
  2  4  1  0  0  0  0
  2  5  1  0  0  0  0
  5  6  2  0  0  0  0
  5  7  1  0  0  0  0
  7  8  1  0  0  0  0
  7  9  1  0  0  0  0
  9 10  1  0  0  0  0
  9 11  1  0  0  0  0
  9 27  1  0  0  0  0
 11 12  1  0  0  0  0
 11 13  1  0  0  0  0
 11 14  1  0  0  0  0
 14 15  1  0  0  0  0
 14 16  1  0  0  0  0
 14 17  1  0  0  0  0
 17 18  1  0  0  0  0
 17 19  1  0  0  0  0
 17 20  1  0  0  0  0
 20 21  1  0  0  0  0
 20 22  1  0  0  0  0
 20 23  1  0  0  0  0
 23 24  1  0  0  0  0
 23 25  1  0  0  0  0
 23 26  1  0  0  0  0
 27 28  2  0  0  0  0
 27 29  1  0  0  0  0
 29 30  1  0  0  0  0
 29 31  1  0  0  0  0
 31 32  1  0  0  0  0
 31 33  1  0  0  0  0
 31 34  1  0  0  0  0
M  CHG  1  23   1
M  END
$$$$

  -OEChem-02102214153D

 34 33  0     1  0  0  0  0  0999 V2000
   -4.0690   -3.7083    2.6028 H   0  0  0  0  0  0  0  0  0  0  0  0
   -4.0431   -2.6781    2.2367 C   0  0  0  0  0  0  0  0  0  0  0  0
   -4.2211   -2.0050    3.0795 H   0  0  0  0  0  0  0  0  0  0  0  0
   -4.8385   -2.5425    1.5003 H   0  0  0  0  0  0  0  0  0  0  0  0
   -2.6942   -2.3760    1.6130 C   0  0  0  0  0  0  0  0  0  0  0  0
   -1.8581   -3.2599    1.4965 O   0  0  0  0  0  0  0  0  0  0  0  0
   -2.4515   -1.1327    1.0662 N   0  0  0  0  0  0  0  0  0  0  0  0
   -3.1917   -0.4399    1.1984 H   0  0  0  0  0  0  0  0  0  0  0  0
   -1.1045   -0.5552    0.9300 C   0  0  1  0  0  0  0  0  0  0  0  0
   -0.4508   -1.0859    1.6309 H   0  0  0  0  0  0  0  0  0  0  0  0
   -0.4035   -0.6142   -0.4566 C   0  0  0  0  0  0  0  0  0  0  0  0
   -0.8625    0.1590   -1.0831 H   0  0  0  0  0  0  0  0  0  0  0  0
    0.6421   -0.3229   -0.3080 H   0  0  0  0  0  0  0  0  0  0  0  0
   -0.4104   -1.9128   -1.2961 C   0  0  0  0  0  0  0  0  0  0  0  0
    0.1995   -1.7416   -2.1900 H   0  0  0  0  0  0  0  0  0  0  0  0
    0.1056   -2.6673   -0.6914 H   0  0  0  0  0  0  0  0  0  0  0  0
   -1.7596   -2.5023   -1.7411 C   0  0  0  0  0  0  0  0  0  0  0  0
   -2.4866   -2.5165   -0.9386 H   0  0  0  0  0  0  0  0  0  0  0  0
   -2.1760   -1.8839   -2.5436 H   0  0  0  0  0  0  0  0  0  0  0  0
   -1.5375   -3.9328   -2.2254 C   0  0  0  0  0  0  0  0  0  0  0  0
   -0.9491   -3.9175   -3.1542 H   0  0  0  0  0  0  0  0  0  0  0  0
   -0.9459   -4.4750   -1.4725 H   0  0  0  0  0  0  0  0  0  0  0  0
   -2.8479   -4.5864   -2.4200 N   0  3  0  0  0  0  0  0  0  0  0  0
   -3.4142   -4.0471   -3.0767 H   0  0  0  0  0  0  0  0  0  0  0  0
   -2.7185   -5.5319   -2.7854 H   0  0  0  0  0  0  0  0  0  0  0  0
   -3.3362   -4.6417   -1.5236 H   0  0  0  0  0  0  0  0  0  0  0  0
   -1.1522    0.9164    1.3950 C   0  0  0  0  0  0  0  0  0  0  0  0
   -2.1389    1.5896    1.1238 O   0  0  0  0  0  0  0  0  0  0  0  0
   -0.1763    1.4392    2.2231 N   0  0  0  0  0  0  0  0  0  0  0  0
    0.5991    0.8387    2.4896 H   0  0  0  0  0  0  0  0  0  0  0  0
   -0.2394    2.7885    2.7772 C   0  0  0  0  0  0  0  0  0  0  0  0
   -1.1316    2.9066    3.4016 H   0  0  0  0  0  0  0  0  0  0  0  0
    0.6417    2.9869    3.3955 H   0  0  0  0  0  0  0  0  0  0  0  0
   -0.2714    3.5331    1.9746 H   0  0  0  0  0  0  0  0  0  0  0  0
  1  2  1  0  0  0  0
  2  3  1  0  0  0  0
  2  4  1  0  0  0  0
  2  5  1  0  0  0  0
  5  6  2  0  0  0  0
  5  7  1  0  0  0  0
  7  8  1  0  0  0  0
  7  9  1  0  0  0  0
  9 10  1  0  0  0  0
  9 11  1  0  0  0  0
  9 27  1  0  0  0  0
 11 12  1  0  0  0  0
 11 13  1  0  0  0  0
 11 14  1  0  0  0  0
 14 15  1  0  0  0  0
 14 16  1  0  0  0  0
 14 17  1  0  0  0  0
 17 18  1  0  0  0  0
 17 19  1  0  0  0  0
 17 20  1  0  0  0  0
 20 21  1  0  0  0  0
 20 22  1  0  0  0  0
 20 23  1  0  0  0  0
 23 24  1  0  0  0  0
 23 25  1  0  0  0  0
 23 26  1  0  0  0  0
 27 28  2  0  0  0  0
 27 29  1  0  0  0  0
 29 30  1  0  0  0  0
 29 31  1  0  0  0  0
 31 32  1  0  0  0  0
 31 33  1  0  0  0  0
 31 34  1  0  0  0  0
M  CHG  1  23   1
M  END
$$$$

  -OEChem-02102214153D

 34 33  0     1  0  0  0  0  0999 V2000
   -3.8912   -3.9699    2.1522 H   0  0  0  0  0  0  0  0  0  0  0  0
   -3.8790   -2.8975    1.9384 C   0  0  0  0  0  0  0  0  0  0  0  0
   -4.0531   -2.3544    2.8709 H   0  0  0  0  0  0  0  0  0  0  0  0
   -4.6846   -2.6660    1.2379 H   0  0  0  0  0  0  0  0  0  0  0  0
   -2.5395   -2.4942    1.3525 C   0  0  0  0  0  0  0  0  0  0  0  0
   -1.6713   -3.3337    1.1741 O   0  0  0  0  0  0  0  0  0  0  0  0
   -2.3484   -1.2074    0.8978 N   0  0  0  0  0  0  0  0  0  0  0  0
   -3.1240   -0.5652    1.0753 H   0  0  0  0  0  0  0  0  0  0  0  0
   -1.0369   -0.5395    0.8167 C   0  0  1  0  0  0  0  0  0  0  0  0
   -0.3598   -1.0764    1.4903 H   0  0  0  0  0  0  0  0  0  0  0  0
   -0.3470   -0.5127   -0.5719 C   0  0  0  0  0  0  0  0  0  0  0  0
   -0.8315    0.2541   -1.1870 H   0  0  0  0  0  0  0  0  0  0  0  0
    0.6907   -0.1959   -0.4227 H   0  0  0  0  0  0  0  0  0  0  0  0
   -0.3372   -1.8266   -1.3756 C   0  0  0  0  0  0  0  0  0  0  0  0
    0.4200   -1.7448   -2.1631 H   0  0  0  0  0  0  0  0  0  0  0  0
   -0.0022   -2.6205   -0.6989 H   0  0  0  0  0  0  0  0  0  0  0  0
   -1.6681   -2.2245   -2.0362 C   0  0  0  0  0  0  0  0  0  0  0  0
   -2.5249   -1.8635   -1.4666 H   0  0  0  0  0  0  0  0  0  0  0  0
   -1.7249   -1.7626   -3.0277 H   0  0  0  0  0  0  0  0  0  0  0  0
   -1.7282   -3.7461   -2.1456 C   0  0  0  0  0  0  0  0  0  0  0  0
   -0.8520   -4.1048   -2.7049 H   0  0  0  0  0  0  0  0  0  0  0  0
   -1.6634   -4.1763   -1.1337 H   0  0  0  0  0  0  0  0  0  0  0  0
   -2.9866   -4.1406   -2.8122 N   0  3  0  0  0  0  0  0  0  0  0  0
   -3.0184   -3.7520   -3.7561 H   0  0  0  0  0  0  0  0  0  0  0  0
   -3.0474   -5.1592   -2.8676 H   0  0  0  0  0  0  0  0  0  0  0  0
   -3.7834   -3.7889   -2.2800 H   0  0  0  0  0  0  0  0  0  0  0  0
   -1.1578    0.8945    1.3720 C   0  0  0  0  0  0  0  0  0  0  0  0
   -2.1776    1.5299    1.1346 O   0  0  0  0  0  0  0  0  0  0  0  0
   -0.2140    1.4136    2.2384 N   0  0  0  0  0  0  0  0  0  0  0  0
    0.5963    0.8430    2.4645 H   0  0  0  0  0  0  0  0  0  0  0  0
   -0.3415    2.7284    2.8598 C   0  0  0  0  0  0  0  0  0  0  0  0
   -1.2329    2.7692    3.4951 H   0  0  0  0  0  0  0  0  0  0  0  0
    0.5341    2.9420    3.4807 H   0  0  0  0  0  0  0  0  0  0  0  0
   -0.4197    3.5093    2.0956 H   0  0  0  0  0  0  0  0  0  0  0  0
  1  2  1  0  0  0  0
  2  3  1  0  0  0  0
  2  4  1  0  0  0  0
  2  5  1  0  0  0  0
  5  6  2  0  0  0  0
  5  7  1  0  0  0  0
  7  8  1  0  0  0  0
  7  9  1  0  0  0  0
  9 10  1  0  0  0  0
  9 11  1  0  0  0  0
  9 27  1  0  0  0  0
 11 12  1  0  0  0  0
 11 13  1  0  0  0  0
 11 14  1  0  0  0  0
 14 15  1  0  0  0  0
 14 16  1  0  0  0  0
 14 17  1  0  0  0  0
 17 18  1  0  0  0  0
 17 19  1  0  0  0  0
 17 20  1  0  0  0  0
 20 21  1  0  0  0  0
 20 22  1  0  0  0  0
 20 23  1  0  0  0  0
 23 24  1  0  0  0  0
 23 25  1  0  0  0  0
 23 26  1  0  0  0  0
 27 28  2  0  0  0  0
 27 29  1  0  0  0  0
 29 30  1  0  0  0  0
 29 31  1  0  0  0  0
 31 32  1  0  0  0  0
 31 33  1  0  0  0  0
 31 34  1  0  0  0  0
M  CHG  1  23   1
M  END
$$$$

  -OEChem-02102214153D

 34 33  0     1  0  0  0  0  0999 V2000
   -3.8644   -3.9403    2.2685 H   0  0  0  0  0  0  0  0  0  0  0  0
   -3.8789   -2.9201    1.8743 C   0  0  0  0  0  0  0  0  0  0  0  0
   -4.2429   -2.2491    2.6568 H   0  0  0  0  0  0  0  0  0  0  0  0
   -4.5625   -2.8791    1.0235 H   0  0  0  0  0  0  0  0  0  0  0  0
   -2.4844   -2.5042    1.4472 C   0  0  0  0  0  0  0  0  0  0  0  0
   -1.5633   -3.3004    1.5121 O   0  0  0  0  0  0  0  0  0  0  0  0
   -2.2747   -1.2426    0.9310 N   0  0  0  0  0  0  0  0  0  0  0  0
   -3.0734   -0.6074    0.9802 H   0  0  0  0  0  0  0  0  0  0  0  0
   -0.9648   -0.5688    0.8674 C   0  0  1  0  0  0  0  0  0  0  0  0
   -0.2847   -1.0666    1.5677 H   0  0  0  0  0  0  0  0  0  0  0  0
   -0.3036   -0.5895   -0.5325 C   0  0  0  0  0  0  0  0  0  0  0  0
   -0.7796    0.1650   -1.1687 H   0  0  0  0  0  0  0  0  0  0  0  0
    0.7424   -0.2885   -0.4090 H   0  0  0  0  0  0  0  0  0  0  0  0
   -0.3359   -1.9441   -1.2627 C   0  0  0  0  0  0  0  0  0  0  0  0
    0.5443   -1.9998   -1.9126 H   0  0  0  0  0  0  0  0  0  0  0  0
   -0.2395   -2.7561   -0.5368 H   0  0  0  0  0  0  0  0  0  0  0  0
   -1.5829   -2.1335   -2.1372 C   0  0  0  0  0  0  0  0  0  0  0  0
   -2.4879   -1.9292   -1.5586 H   0  0  0  0  0  0  0  0  0  0  0  0
   -1.5515   -1.4257   -2.9726 H   0  0  0  0  0  0  0  0  0  0  0  0
   -1.6177   -3.5698   -2.6513 C   0  0  0  0  0  0  0  0  0  0  0  0
   -0.6887   -3.7806   -3.2007 H   0  0  0  0  0  0  0  0  0  0  0  0
   -1.6465   -4.2552   -1.7906 H   0  0  0  0  0  0  0  0  0  0  0  0
   -2.8022   -3.7487   -3.5178 N   0  3  0  0  0  0  0  0  0  0  0  0
   -2.7396   -3.1272   -4.3264 H   0  0  0  0  0  0  0  0  0  0  0  0
   -2.8545   -4.7160   -3.8446 H   0  0  0  0  0  0  0  0  0  0  0  0
   -3.6515   -3.5284   -2.9950 H   0  0  0  0  0  0  0  0  0  0  0  0
   -1.1205    0.8910    1.3388 C   0  0  0  0  0  0  0  0  0  0  0  0
   -2.1209    1.5131    1.0018 O   0  0  0  0  0  0  0  0  0  0  0  0
   -0.2175    1.4636    2.2146 N   0  0  0  0  0  0  0  0  0  0  0  0
    0.5637    0.8971    2.5343 H   0  0  0  0  0  0  0  0  0  0  0  0
   -0.3937    2.7970    2.7811 C   0  0  0  0  0  0  0  0  0  0  0  0
   -1.3248    2.8508    3.3555 H   0  0  0  0  0  0  0  0  0  0  0  0
    0.4382    3.0379    3.4504 H   0  0  0  0  0  0  0  0  0  0  0  0
   -0.4270    3.5510    1.9875 H   0  0  0  0  0  0  0  0  0  0  0  0
  1  2  1  0  0  0  0
  2  3  1  0  0  0  0
  2  4  1  0  0  0  0
  2  5  1  0  0  0  0
  5  6  2  0  0  0  0
  5  7  1  0  0  0  0
  7  8  1  0  0  0  0
  7  9  1  0  0  0  0
  9 10  1  0  0  0  0
  9 11  1  0  0  0  0
  9 27  1  0  0  0  0
 11 12  1  0  0  0  0
 11 13  1  0  0  0  0
 11 14  1  0  0  0  0
 14 15  1  0  0  0  0
 14 16  1  0  0  0  0
 14 17  1  0  0  0  0
 17 18  1  0  0  0  0
 17 19  1  0  0  0  0
 17 20  1  0  0  0  0
 20 21  1  0  0  0  0
 20 22  1  0  0  0  0
 20 23  1  0  0  0  0
 23 24  1  0  0  0  0
 23 25  1  0  0  0  0
 23 26  1  0  0  0  0
 27 28  2  0  0  0  0
 27 29  1  0  0  0  0
 29 30  1  0  0  0  0
 29 31  1  0  0  0  0
 31 32  1  0  0  0  0
 31 33  1  0  0  0  0
 31 34  1  0  0  0  0
M  CHG  1  23   1
M  END
$$$$

  -OEChem-02102214153D

 34 33  0     1  0  0  0  0  0999 V2000
   -3.8654   -3.9810    2.2287 H   0  0  0  0  0  0  0  0  0  0  0  0
   -3.8741   -2.9700    1.8112 C   0  0  0  0  0  0  0  0  0  0  0  0
   -4.3200   -2.2934    2.5448 H   0  0  0  0  0  0  0  0  0  0  0  0
   -4.4849   -2.9665    0.9059 H   0  0  0  0  0  0  0  0  0  0  0  0
   -2.4603   -2.5247    1.4900 C   0  0  0  0  0  0  0  0  0  0  0  0
   -1.5227   -3.2762    1.6972 O   0  0  0  0  0  0  0  0  0  0  0  0
   -2.2420   -1.2759    0.9449 N   0  0  0  0  0  0  0  0  0  0  0  0
   -3.0526   -0.6558    0.9125 H   0  0  0  0  0  0  0  0  0  0  0  0
   -0.9337   -0.5956    0.8932 C   0  0  1  0  0  0  0  0  0  0  0  0
   -0.2503   -1.0755    1.6025 H   0  0  0  0  0  0  0  0  0  0  0  0
   -0.2866   -0.6288   -0.5120 C   0  0  0  0  0  0  0  0  0  0  0  0
   -0.7650    0.1257   -1.1465 H   0  0  0  0  0  0  0  0  0  0  0  0
    0.7610   -0.3283   -0.4013 H   0  0  0  0  0  0  0  0  0  0  0  0
   -0.3297   -1.9933   -1.2271 C   0  0  0  0  0  0  0  0  0  0  0  0
    0.6529   -2.1717   -1.6779 H   0  0  0  0  0  0  0  0  0  0  0  0
   -0.4935   -2.8040   -0.5145 H   0  0  0  0  0  0  0  0  0  0  0  0
   -1.3809   -2.0213   -2.3419 C   0  0  0  0  0  0  0  0  0  0  0  0
   -2.3606   -1.7671   -1.9228 H   0  0  0  0  0  0  0  0  0  0  0  0
   -1.1295   -1.2723   -3.1006 H   0  0  0  0  0  0  0  0  0  0  0  0
   -1.4280   -3.4128   -2.9673 C   0  0  0  0  0  0  0  0  0  0  0  0
   -0.4278   -3.6750   -3.3428 H   0  0  0  0  0  0  0  0  0  0  0  0
   -1.6838   -4.1481   -2.1895 H   0  0  0  0  0  0  0  0  0  0  0  0
   -2.4257   -3.4188   -4.0591 N   0  3  0  0  0  0  0  0  0  0  0  0
   -2.1598   -2.7427   -4.7776 H   0  0  0  0  0  0  0  0  0  0  0  0
   -2.4790   -4.3484   -4.4811 H   0  0  0  0  0  0  0  0  0  0  0  0
   -3.3452   -3.1674   -3.6920 H   0  0  0  0  0  0  0  0  0  0  0  0
   -1.1064    0.8757    1.3223 C   0  0  0  0  0  0  0  0  0  0  0  0
   -2.0842    1.4955    0.9201 O   0  0  0  0  0  0  0  0  0  0  0  0
   -0.2261    1.4757    2.2028 N   0  0  0  0  0  0  0  0  0  0  0  0
    0.5286    0.9099    2.5823 H   0  0  0  0  0  0  0  0  0  0  0  0
   -0.4116    2.8299    2.7150 C   0  0  0  0  0  0  0  0  0  0  0  0
   -1.3487    2.9032    3.2775 H   0  0  0  0  0  0  0  0  0  0  0  0
    0.4132    3.0996    3.3822 H   0  0  0  0  0  0  0  0  0  0  0  0
   -0.4388    3.5526    1.8924 H   0  0  0  0  0  0  0  0  0  0  0  0
  1  2  1  0  0  0  0
  2  3  1  0  0  0  0
  2  4  1  0  0  0  0
  2  5  1  0  0  0  0
  5  6  2  0  0  0  0
  5  7  1  0  0  0  0
  7  8  1  0  0  0  0
  7  9  1  0  0  0  0
  9 10  1  0  0  0  0
  9 11  1  0  0  0  0
  9 27  1  0  0  0  0
 11 12  1  0  0  0  0
 11 13  1  0  0  0  0
 11 14  1  0  0  0  0
 14 15  1  0  0  0  0
 14 16  1  0  0  0  0
 14 17  1  0  0  0  0
 17 18  1  0  0  0  0
 17 19  1  0  0  0  0
 17 20  1  0  0  0  0
 20 21  1  0  0  0  0
 20 22  1  0  0  0  0
 20 23  1  0  0  0  0
 23 24  1  0  0  0  0
 23 25  1  0  0  0  0
 23 26  1  0  0  0  0
 27 28  2  0  0  0  0
 27 29  1  0  0  0  0
 29 30  1  0  0  0  0
 29 31  1  0  0  0  0
 31 32  1  0  0  0  0
 31 33  1  0  0  0  0
 31 34  1  0  0  0  0
M  CHG  1  23   1
M  END
$$$$

  -OEChem-02102214153D

 34 33  0     1  0  0  0  0  0999 V2000
   -3.8796   -3.9812    2.2541 H   0  0  0  0  0  0  0  0  0  0  0  0
   -3.8909   -2.9818    1.8095 C   0  0  0  0  0  0  0  0  0  0  0  0
   -4.3633   -2.2921    2.5136 H   0  0  0  0  0  0  0  0  0  0  0  0
   -4.4792   -3.0113    0.8897 H   0  0  0  0  0  0  0  0  0  0  0  0
   -2.4755   -2.5262    1.5097 C   0  0  0  0  0  0  0  0  0  0  0  0
   -1.5329   -3.2648    1.7429 O   0  0  0  0  0  0  0  0  0  0  0  0
   -2.2566   -1.2808    0.9558 N   0  0  0  0  0  0  0  0  0  0  0  0
   -3.0690   -0.6649    0.9008 H   0  0  0  0  0  0  0  0  0  0  0  0
   -0.9457   -0.6059    0.8991 C   0  0  1  0  0  0  0  0  0  0  0  0
   -0.2642   -1.0833    1.6118 H   0  0  0  0  0  0  0  0  0  0  0  0
   -0.2942   -0.6472   -0.5053 C   0  0  0  0  0  0  0  0  0  0  0  0
   -0.7898    0.1015   -1.1335 H   0  0  0  0  0  0  0  0  0  0  0  0
    0.7503   -0.3318   -0.4078 H   0  0  0  0  0  0  0  0  0  0  0  0
   -0.3317   -2.0108   -1.2290 C   0  0  0  0  0  0  0  0  0  0  0  0
    0.6996   -2.3282   -1.4193 H   0  0  0  0  0  0  0  0  0  0  0  0
   -0.7810   -2.7817   -0.6021 H   0  0  0  0  0  0  0  0  0  0  0  0
   -1.0866   -1.9258   -2.5604 C   0  0  0  0  0  0  0  0  0  0  0  0
   -2.1062   -1.5704   -2.3743 H   0  0  0  0  0  0  0  0  0  0  0  0
   -0.5881   -1.2059   -3.2190 H   0  0  0  0  0  0  0  0  0  0  0  0
   -1.1265   -3.3023   -3.2186 C   0  0  0  0  0  0  0  0  0  0  0  0
   -0.0975   -3.6555   -3.3806 H   0  0  0  0  0  0  0  0  0  0  0  0
   -1.6082   -4.0153   -2.5330 H   0  0  0  0  0  0  0  0  0  0  0  0
   -1.8659   -3.2063   -4.4957 N   0  3  0  0  0  0  0  0  0  0  0  0
   -1.3985   -2.5469   -5.1207 H   0  0  0  0  0  0  0  0  0  0  0  0
   -1.9056   -4.1220   -4.9486 H   0  0  0  0  0  0  0  0  0  0  0  0
   -2.8186   -2.8799   -4.3231 H   0  0  0  0  0  0  0  0  0  0  0  0
   -1.1105    0.8690    1.3196 C   0  0  0  0  0  0  0  0  0  0  0  0
   -2.0782    1.4966    0.9057 O   0  0  0  0  0  0  0  0  0  0  0  0
   -0.2259    1.4694    2.1955 N   0  0  0  0  0  0  0  0  0  0  0  0
    0.5219    0.9001    2.5833 H   0  0  0  0  0  0  0  0  0  0  0  0
   -0.3953    2.8333    2.6870 C   0  0  0  0  0  0  0  0  0  0  0  0
   -1.3302    2.9255    3.2502 H   0  0  0  0  0  0  0  0  0  0  0  0
    0.4340    3.1048    3.3477 H   0  0  0  0  0  0  0  0  0  0  0  0
   -0.4167    3.5431    1.8530 H   0  0  0  0  0  0  0  0  0  0  0  0
  1  2  1  0  0  0  0
  2  3  1  0  0  0  0
  2  4  1  0  0  0  0
  2  5  1  0  0  0  0
  5  6  2  0  0  0  0
  5  7  1  0  0  0  0
  7  8  1  0  0  0  0
  7  9  1  0  0  0  0
  9 10  1  0  0  0  0
  9 11  1  0  0  0  0
  9 27  1  0  0  0  0
 11 12  1  0  0  0  0
 11 13  1  0  0  0  0
 11 14  1  0  0  0  0
 14 15  1  0  0  0  0
 14 16  1  0  0  0  0
 14 17  1  0  0  0  0
 17 18  1  0  0  0  0
 17 19  1  0  0  0  0
 17 20  1  0  0  0  0
 20 21  1  0  0  0  0
 20 22  1  0  0  0  0
 20 23  1  0  0  0  0
 23 24  1  0  0  0  0
 23 25  1  0  0  0  0
 23 26  1  0  0  0  0
 27 28  2  0  0  0  0
 27 29  1  0  0  0  0
 29 30  1  0  0  0  0
 29 31  1  0  0  0  0
 31 32  1  0  0  0  0
 31 33  1  0  0  0  0
 31 34  1  0  0  0  0
M  CHG  1  23   1
M  END
$$$$

  -OEChem-02102214153D

 34 33  0     1  0  0  0  0  0999 V2000
   -3.8860   -3.9715    2.2691 H   0  0  0  0  0  0  0  0  0  0  0  0
   -3.9043   -2.9737    1.8211 C   0  0  0  0  0  0  0  0  0  0  0  0
   -4.3697   -2.2817    2.5276 H   0  0  0  0  0  0  0  0  0  0  0  0
   -4.5028   -3.0080    0.9079 H   0  0  0  0  0  0  0  0  0  0  0  0
   -2.4931   -2.5170    1.5035 C   0  0  0  0  0  0  0  0  0  0  0  0
   -1.5466   -3.2595    1.7096 O   0  0  0  0  0  0  0  0  0  0  0  0
   -2.2780   -1.2709    0.9495 N   0  0  0  0  0  0  0  0  0  0  0  0
   -3.0894   -0.6536    0.8981 H   0  0  0  0  0  0  0  0  0  0  0  0
   -0.9639   -0.6041    0.8877 C   0  0  1  0  0  0  0  0  0  0  0  0
   -0.2862   -1.0845    1.6019 H   0  0  0  0  0  0  0  0  0  0  0  0
   -0.3076   -0.6583   -0.5139 C   0  0  0  0  0  0  0  0  0  0  0  0
   -0.8273    0.0768   -1.1388 H   0  0  0  0  0  0  0  0  0  0  0  0
    0.7330   -0.3259   -0.4350 H   0  0  0  0  0  0  0  0  0  0  0  0
   -0.3462   -2.0250   -1.2341 C   0  0  0  0  0  0  0  0  0  0  0  0
    0.6419   -2.4920   -1.1563 H   0  0  0  0  0  0  0  0  0  0  0  0
   -1.0542   -2.7050   -0.7590 H   0  0  0  0  0  0  0  0  0  0  0  0
   -0.7504   -1.8724   -2.7049 C   0  0  0  0  0  0  0  0  0  0  0  0
   -1.7442   -1.4140   -2.7621 H   0  0  0  0  0  0  0  0  0  0  0  0
   -0.0387   -1.2108   -3.2110 H   0  0  0  0  0  0  0  0  0  0  0  0
   -0.7678   -3.2415   -3.3803 C   0  0  0  0  0  0  0  0  0  0  0  0
    0.2312   -3.6953   -3.3028 H   0  0  0  0  0  0  0  0  0  0  0  0
   -1.4645   -3.9008   -2.8413 H   0  0  0  0  0  0  0  0  0  0  0  0
   -1.1724   -3.0783   -4.7933 N   0  3  0  0  0  0  0  0  0  0  0  0
   -0.5094   -2.4702   -5.2778 H   0  0  0  0  0  0  0  0  0  0  0  0
   -1.1917   -3.9874   -5.2605 H   0  0  0  0  0  0  0  0  0  0  0  0
   -2.1033   -2.6598   -4.8432 H   0  0  0  0  0  0  0  0  0  0  0  0
   -1.1129    0.8717    1.3110 C   0  0  0  0  0  0  0  0  0  0  0  0
   -2.0719    1.5122    0.8972 O   0  0  0  0  0  0  0  0  0  0  0  0
   -0.2174    1.4620    2.1831 N   0  0  0  0  0  0  0  0  0  0  0  0
    0.5217    0.8821    2.5718 H   0  0  0  0  0  0  0  0  0  0  0  0
   -0.3750    2.8242    2.6831 C   0  0  0  0  0  0  0  0  0  0  0  0
   -1.3065    2.9197    3.2514 H   0  0  0  0  0  0  0  0  0  0  0  0
    0.4592    3.0858    3.3417 H   0  0  0  0  0  0  0  0  0  0  0  0
   -0.3952    3.5385    1.8530 H   0  0  0  0  0  0  0  0  0  0  0  0
  1  2  1  0  0  0  0
  2  3  1  0  0  0  0
  2  4  1  0  0  0  0
  2  5  1  0  0  0  0
  5  6  2  0  0  0  0
  5  7  1  0  0  0  0
  7  8  1  0  0  0  0
  7  9  1  0  0  0  0
  9 10  1  0  0  0  0
  9 11  1  0  0  0  0
  9 27  1  0  0  0  0
 11 12  1  0  0  0  0
 11 13  1  0  0  0  0
 11 14  1  0  0  0  0
 14 15  1  0  0  0  0
 14 16  1  0  0  0  0
 14 17  1  0  0  0  0
 17 18  1  0  0  0  0
 17 19  1  0  0  0  0
 17 20  1  0  0  0  0
 20 21  1  0  0  0  0
 20 22  1  0  0  0  0
 20 23  1  0  0  0  0
 23 24  1  0  0  0  0
 23 25  1  0  0  0  0
 23 26  1  0  0  0  0
 27 28  2  0  0  0  0
 27 29  1  0  0  0  0
 29 30  1  0  0  0  0
 29 31  1  0  0  0  0
 31 32  1  0  0  0  0
 31 33  1  0  0  0  0
 31 34  1  0  0  0  0
M  CHG  1  23   1
M  END
$$$$

  -OEChem-02102214153D

 34 33  0     1  0  0  0  0  0999 V2000
   -3.8759   -3.9747    2.2184 H   0  0  0  0  0  0  0  0  0  0  0  0
   -3.9024   -2.9708    1.7849 C   0  0  0  0  0  0  0  0  0  0  0  0
   -4.3627   -2.2907    2.5062 H   0  0  0  0  0  0  0  0  0  0  0  0
   -4.5103   -2.9939    0.8776 H   0  0  0  0  0  0  0  0  0  0  0  0
   -2.4961   -2.5063    1.4576 C   0  0  0  0  0  0  0  0  0  0  0  0
   -1.5457   -3.2532    1.6293 O   0  0  0  0  0  0  0  0  0  0  0  0
   -2.2876   -1.2523    0.9194 N   0  0  0  0  0  0  0  0  0  0  0  0
   -3.0996   -0.6347    0.8798 H   0  0  0  0  0  0  0  0  0  0  0  0
   -0.9727   -0.5879    0.8648 C   0  0  1  0  0  0  0  0  0  0  0  0
   -0.2990   -1.0775    1.5768 H   0  0  0  0  0  0  0  0  0  0  0  0
   -0.3111   -0.6447   -0.5332 C   0  0  0  0  0  0  0  0  0  0  0  0
   -0.8354    0.0825   -1.1634 H   0  0  0  0  0  0  0  0  0  0  0  0
    0.7297   -0.3129   -0.4575 H   0  0  0  0  0  0  0  0  0  0  0  0
   -0.3578   -2.0167   -1.2390 C   0  0  0  0  0  0  0  0  0  0  0  0
    0.5068   -2.6112   -0.9235 H   0  0  0  0  0  0  0  0  0  0  0  0
   -1.2541   -2.5724   -0.9551 H   0  0  0  0  0  0  0  0  0  0  0  0
   -0.3877   -1.8548   -2.7629 C   0  0  0  0  0  0  0  0  0  0  0  0
   -1.2804   -1.2896   -3.0530 H   0  0  0  0  0  0  0  0  0  0  0  0
    0.4942   -1.2906   -3.0859 H   0  0  0  0  0  0  0  0  0  0  0  0
   -0.4031   -3.2298   -3.4263 C   0  0  0  0  0  0  0  0  0  0  0  0
    0.4889   -3.7922   -3.1132 H   0  0  0  0  0  0  0  0  0  0  0  0
   -1.2796   -3.7922   -3.0716 H   0  0  0  0  0  0  0  0  0  0  0  0
   -0.4376   -3.0574   -4.8948 N   0  3  0  0  0  0  0  0  0  0  0  0
    0.3865   -2.5387   -5.2043 H   0  0  0  0  0  0  0  0  0  0  0  0
   -0.4481   -3.9698   -5.3558 H   0  0  0  0  0  0  0  0  0  0  0  0
   -1.2757   -2.5392   -5.1653 H   0  0  0  0  0  0  0  0  0  0  0  0
   -1.1109    0.8828    1.3073 C   0  0  0  0  0  0  0  0  0  0  0  0
   -2.0637    1.5370    0.9016 O   0  0  0  0  0  0  0  0  0  0  0  0
   -0.2088    1.4551    2.1846 N   0  0  0  0  0  0  0  0  0  0  0  0
    0.5163    0.8600    2.5762 H   0  0  0  0  0  0  0  0  0  0  0  0
   -0.3579    2.8107    2.7045 C   0  0  0  0  0  0  0  0  0  0  0  0
   -1.2872    2.9027    3.2769 H   0  0  0  0  0  0  0  0  0  0  0  0
    0.4797    3.0591    3.3638 H   0  0  0  0  0  0  0  0  0  0  0  0
   -0.3776    3.5371    1.8850 H   0  0  0  0  0  0  0  0  0  0  0  0
  1  2  1  0  0  0  0
  2  3  1  0  0  0  0
  2  4  1  0  0  0  0
  2  5  1  0  0  0  0
  5  6  2  0  0  0  0
  5  7  1  0  0  0  0
  7  8  1  0  0  0  0
  7  9  1  0  0  0  0
  9 10  1  0  0  0  0
  9 11  1  0  0  0  0
  9 27  1  0  0  0  0
 11 12  1  0  0  0  0
 11 13  1  0  0  0  0
 11 14  1  0  0  0  0
 14 15  1  0  0  0  0
 14 16  1  0  0  0  0
 14 17  1  0  0  0  0
 17 18  1  0  0  0  0
 17 19  1  0  0  0  0
 17 20  1  0  0  0  0
 20 21  1  0  0  0  0
 20 22  1  0  0  0  0
 20 23  1  0  0  0  0
 23 24  1  0  0  0  0
 23 25  1  0  0  0  0
 23 26  1  0  0  0  0
 27 28  2  0  0  0  0
 27 29  1  0  0  0  0
 29 30  1  0  0  0  0
 29 31  1  0  0  0  0
 31 32  1  0  0  0  0
 31 33  1  0  0  0  0
 31 34  1  0  0  0  0
M  CHG  1  23   1
M  END
$$$$

  -OEChem-02102214153D

 34 33  0     1  0  0  0  0  0999 V2000
   -3.8538   -3.9857    2.1316 H   0  0  0  0  0  0  0  0  0  0  0  0
   -3.8857   -2.9782    1.7071 C   0  0  0  0  0  0  0  0  0  0  0  0
   -4.3526   -2.3075    2.4329 H   0  0  0  0  0  0  0  0  0  0  0  0
   -4.4908   -2.9973    0.7978 H   0  0  0  0  0  0  0  0  0  0  0  0
   -2.4817   -2.5017    1.3887 C   0  0  0  0  0  0  0  0  0  0  0  0
   -1.5283   -3.2503    1.5372 O   0  0  0  0  0  0  0  0  0  0  0  0
   -2.2777   -1.2367    0.8757 N   0  0  0  0  0  0  0  0  0  0  0  0
   -3.0925   -0.6222    0.8458 H   0  0  0  0  0  0  0  0  0  0  0  0
   -0.9658   -0.5662    0.8435 C   0  0  1  0  0  0  0  0  0  0  0  0
   -0.2975   -1.0650    1.5540 H   0  0  0  0  0  0  0  0  0  0  0  0
   -0.2974   -0.6139   -0.5497 C   0  0  0  0  0  0  0  0  0  0  0  0
   -0.8143    0.1106   -1.1892 H   0  0  0  0  0  0  0  0  0  0  0  0
    0.7447   -0.2893   -0.4624 H   0  0  0  0  0  0  0  0  0  0  0  0
   -0.3515   -1.9907   -1.2386 C   0  0  0  0  0  0  0  0  0  0  0  0
    0.3384   -2.6747   -0.7315 H   0  0  0  0  0  0  0  0  0  0  0  0
   -1.3561   -2.4161   -1.1620 H   0  0  0  0  0  0  0  0  0  0  0  0
   -0.0100   -1.8751   -2.7274 C   0  0  0  0  0  0  0  0  0  0  0  0
   -0.7292   -1.2093   -3.2176 H   0  0  0  0  0  0  0  0  0  0  0  0
    0.9893   -1.4399   -2.8392 H   0  0  0  0  0  0  0  0  0  0  0  0
   -0.0541   -3.2596   -3.3696 C   0  0  0  0  0  0  0  0  0  0  0  0
    0.6636   -3.9175   -2.8576 H   0  0  0  0  0  0  0  0  0  0  0  0
   -1.0533   -3.6950   -3.2203 H   0  0  0  0  0  0  0  0  0  0  0  0
    0.2652   -3.1377   -4.8084 N   0  3  0  0  0  0  0  0  0  0  0  0
    1.1980   -2.7376   -4.9259 H   0  0  0  0  0  0  0  0  0  0  0  0
    0.2405   -4.0580   -5.2528 H   0  0  0  0  0  0  0  0  0  0  0  0
   -0.4164   -2.5296   -5.2665 H   0  0  0  0  0  0  0  0  0  0  0  0
   -1.1061    0.8964    1.3110 C   0  0  0  0  0  0  0  0  0  0  0  0
   -2.0548    1.5585    0.9095 O   0  0  0  0  0  0  0  0  0  0  0  0
   -0.2092    1.4528    2.2040 N   0  0  0  0  0  0  0  0  0  0  0  0
    0.5126    0.8508    2.5907 H   0  0  0  0  0  0  0  0  0  0  0  0
   -0.3565    2.8023    2.7403 C   0  0  0  0  0  0  0  0  0  0  0  0
   -1.2873    2.8899    3.3109 H   0  0  0  0  0  0  0  0  0  0  0  0
    0.4799    3.0402    3.4049 H   0  0  0  0  0  0  0  0  0  0  0  0
   -0.3715    3.5384    1.9294 H   0  0  0  0  0  0  0  0  0  0  0  0
  1  2  1  0  0  0  0
  2  3  1  0  0  0  0
  2  4  1  0  0  0  0
  2  5  1  0  0  0  0
  5  6  2  0  0  0  0
  5  7  1  0  0  0  0
  7  8  1  0  0  0  0
  7  9  1  0  0  0  0
  9 10  1  0  0  0  0
  9 11  1  0  0  0  0
  9 27  1  0  0  0  0
 11 12  1  0  0  0  0
 11 13  1  0  0  0  0
 11 14  1  0  0  0  0
 14 15  1  0  0  0  0
 14 16  1  0  0  0  0
 14 17  1  0  0  0  0
 17 18  1  0  0  0  0
 17 19  1  0  0  0  0
 17 20  1  0  0  0  0
 20 21  1  0  0  0  0
 20 22  1  0  0  0  0
 20 23  1  0  0  0  0
 23 24  1  0  0  0  0
 23 25  1  0  0  0  0
 23 26  1  0  0  0  0
 27 28  2  0  0  0  0
 27 29  1  0  0  0  0
 29 30  1  0  0  0  0
 29 31  1  0  0  0  0
 31 32  1  0  0  0  0
 31 33  1  0  0  0  0
 31 34  1  0  0  0  0
M  CHG  1  23   1
M  END
$$$$

  -OEChem-02102214153D

 34 33  0     1  0  0  0  0  0999 V2000
   -3.8437   -3.9754    2.1574 H   0  0  0  0  0  0  0  0  0  0  0  0
   -3.8814   -2.9838    1.6974 C   0  0  0  0  0  0  0  0  0  0  0  0
   -4.3629   -2.2933    2.3946 H   0  0  0  0  0  0  0  0  0  0  0  0
   -4.4771   -3.0405    0.7834 H   0  0  0  0  0  0  0  0  0  0  0  0
   -2.4791   -2.5034    1.3767 C   0  0  0  0  0  0  0  0  0  0  0  0
   -1.5240   -3.2509    1.5179 O   0  0  0  0  0  0  0  0  0  0  0  0
   -2.2812   -1.2328    0.8767 N   0  0  0  0  0  0  0  0  0  0  0  0
   -3.0982   -0.6210    0.8578 H   0  0  0  0  0  0  0  0  0  0  0  0
   -0.9726   -0.5559    0.8342 C   0  0  1  0  0  0  0  0  0  0  0  0
   -0.3007   -1.0615    1.5363 H   0  0  0  0  0  0  0  0  0  0  0  0
   -0.3096   -0.6034   -0.5643 C   0  0  0  0  0  0  0  0  0  0  0  0
   -0.6294    0.2789   -1.1302 H   0  0  0  0  0  0  0  0  0  0  0  0
    0.7763   -0.5373   -0.4399 H   0  0  0  0  0  0  0  0  0  0  0  0
   -0.6642   -1.8473   -1.3981 C   0  0  0  0  0  0  0  0  0  0  0  0
   -0.3585   -2.7461   -0.8506 H   0  0  0  0  0  0  0  0  0  0  0  0
   -1.7474   -1.8958   -1.5538 H   0  0  0  0  0  0  0  0  0  0  0  0
    0.0342   -1.8104   -2.7607 C   0  0  0  0  0  0  0  0  0  0  0  0
   -0.2904   -0.9215   -3.3126 H   0  0  0  0  0  0  0  0  0  0  0  0
    1.1178   -1.7444   -2.6140 H   0  0  0  0  0  0  0  0  0  0  0  0
   -0.3105   -3.0735   -3.5463 C   0  0  0  0  0  0  0  0  0  0  0  0
    0.0099   -3.9550   -2.9708 H   0  0  0  0  0  0  0  0  0  0  0  0
   -1.4026   -3.1416   -3.6591 H   0  0  0  0  0  0  0  0  0  0  0  0
    0.3593   -3.0232   -4.8639 N   0  3  0  0  0  0  0  0  0  0  0  0
    1.3721   -2.9717   -4.7382 H   0  0  0  0  0  0  0  0  0  0  0  0
    0.1342   -3.8614   -5.4045 H   0  0  0  0  0  0  0  0  0  0  0  0
    0.0470   -2.1999   -5.3824 H   0  0  0  0  0  0  0  0  0  0  0  0
   -1.1086    0.9018    1.3192 C   0  0  0  0  0  0  0  0  0  0  0  0
   -2.0654    1.5650    0.9396 O   0  0  0  0  0  0  0  0  0  0  0  0
   -0.2009    1.4523    2.2050 N   0  0  0  0  0  0  0  0  0  0  0  0
    0.5284    0.8490    2.5752 H   0  0  0  0  0  0  0  0  0  0  0  0
   -0.3476    2.7938    2.7616 C   0  0  0  0  0  0  0  0  0  0  0  0
   -1.2784    2.8730    3.3336 H   0  0  0  0  0  0  0  0  0  0  0  0
    0.4883    3.0215    3.4305 H   0  0  0  0  0  0  0  0  0  0  0  0
   -0.3618    3.5426    1.9624 H   0  0  0  0  0  0  0  0  0  0  0  0
  1  2  1  0  0  0  0
  2  3  1  0  0  0  0
  2  4  1  0  0  0  0
  2  5  1  0  0  0  0
  5  6  2  0  0  0  0
  5  7  1  0  0  0  0
  7  8  1  0  0  0  0
  7  9  1  0  0  0  0
  9 10  1  0  0  0  0
  9 11  1  0  0  0  0
  9 27  1  0  0  0  0
 11 12  1  0  0  0  0
 11 13  1  0  0  0  0
 11 14  1  0  0  0  0
 14 15  1  0  0  0  0
 14 16  1  0  0  0  0
 14 17  1  0  0  0  0
 17 18  1  0  0  0  0
 17 19  1  0  0  0  0
 17 20  1  0  0  0  0
 20 21  1  0  0  0  0
 20 22  1  0  0  0  0
 20 23  1  0  0  0  0
 23 24  1  0  0  0  0
 23 25  1  0  0  0  0
 23 26  1  0  0  0  0
 27 28  2  0  0  0  0
 27 29  1  0  0  0  0
 29 30  1  0  0  0  0
 29 31  1  0  0  0  0
 31 32  1  0  0  0  0
 31 33  1  0  0  0  0
 31 34  1  0  0  0  0
M  CHG  1  23   1
M  END
$$$$

  -OEChem-02102214153D

 34 33  0     1  0  0  0  0  0999 V2000
   -3.8714   -3.9845    2.0864 H   0  0  0  0  0  0  0  0  0  0  0  0
   -3.8901   -2.9858    1.6406 C   0  0  0  0  0  0  0  0  0  0  0  0
   -4.3981   -2.3057    2.3290 H   0  0  0  0  0  0  0  0  0  0  0  0
   -4.4497   -3.0282    0.7032 H   0  0  0  0  0  0  0  0  0  0  0  0
   -2.4763   -2.5014    1.3809 C   0  0  0  0  0  0  0  0  0  0  0  0
   -1.5257   -3.2409    1.5821 O   0  0  0  0  0  0  0  0  0  0  0  0
   -2.2625   -1.2344    0.8773 N   0  0  0  0  0  0  0  0  0  0  0  0
   -3.0796   -0.6251    0.8183 H   0  0  0  0  0  0  0  0  0  0  0  0
   -0.9527   -0.5579    0.8441 C   0  0  1  0  0  0  0  0  0  0  0  0
   -0.2820   -1.0621    1.5483 H   0  0  0  0  0  0  0  0  0  0  0  0
   -0.2906   -0.5976   -0.5551 C   0  0  0  0  0  0  0  0  0  0  0  0
   -0.5927    0.2899   -1.1231 H   0  0  0  0  0  0  0  0  0  0  0  0
    0.7942   -0.5424   -0.4164 H   0  0  0  0  0  0  0  0  0  0  0  0
   -0.6489   -1.8361   -1.3951 C   0  0  0  0  0  0  0  0  0  0  0  0
   -0.5670   -2.7313   -0.7701 H   0  0  0  0  0  0  0  0  0  0  0  0
   -1.6845   -1.7579   -1.7445 H   0  0  0  0  0  0  0  0  0  0  0  0
    0.3052   -1.9924   -2.5833 C   0  0  0  0  0  0  0  0  0  0  0  0
    0.2276   -1.1111   -3.2296 H   0  0  0  0  0  0  0  0  0  0  0  0
    1.3362   -2.0594   -2.2184 H   0  0  0  0  0  0  0  0  0  0  0  0
   -0.0527   -3.2534   -3.3659 C   0  0  0  0  0  0  0  0  0  0  0  0
    0.0001   -4.1225   -2.6933 H   0  0  0  0  0  0  0  0  0  0  0  0
   -1.0929   -3.1784   -3.7155 H   0  0  0  0  0  0  0  0  0  0  0  0
    0.8831   -3.4002   -4.5015 N   0  3  0  0  0  0  0  0  0  0  0  0
    1.8420   -3.4702   -4.1557 H   0  0  0  0  0  0  0  0  0  0  0  0
    0.6601   -4.2441   -5.0337 H   0  0  0  0  0  0  0  0  0  0  0  0
    0.8118   -2.5895   -5.1191 H   0  0  0  0  0  0  0  0  0  0  0  0
   -1.0942    0.9021    1.3199 C   0  0  0  0  0  0  0  0  0  0  0  0
   -2.0492    1.5622    0.9305 O   0  0  0  0  0  0  0  0  0  0  0  0
   -0.1949    1.4559    2.2118 N   0  0  0  0  0  0  0  0  0  0  0  0
    0.5299    0.8533    2.5917 H   0  0  0  0  0  0  0  0  0  0  0  0
   -0.3512    2.7974    2.7652 C   0  0  0  0  0  0  0  0  0  0  0  0
   -1.2863    2.8729    3.3304 H   0  0  0  0  0  0  0  0  0  0  0  0
    0.4792    3.0297    3.4393 H   0  0  0  0  0  0  0  0  0  0  0  0
   -0.3638    3.5450    1.9648 H   0  0  0  0  0  0  0  0  0  0  0  0
  1  2  1  0  0  0  0
  2  3  1  0  0  0  0
  2  4  1  0  0  0  0
  2  5  1  0  0  0  0
  5  6  2  0  0  0  0
  5  7  1  0  0  0  0
  7  8  1  0  0  0  0
  7  9  1  0  0  0  0
  9 10  1  0  0  0  0
  9 11  1  0  0  0  0
  9 27  1  0  0  0  0
 11 12  1  0  0  0  0
 11 13  1  0  0  0  0
 11 14  1  0  0  0  0
 14 15  1  0  0  0  0
 14 16  1  0  0  0  0
 14 17  1  0  0  0  0
 17 18  1  0  0  0  0
 17 19  1  0  0  0  0
 17 20  1  0  0  0  0
 20 21  1  0  0  0  0
 20 22  1  0  0  0  0
 20 23  1  0  0  0  0
 23 24  1  0  0  0  0
 23 25  1  0  0  0  0
 23 26  1  0  0  0  0
 27 28  2  0  0  0  0
 27 29  1  0  0  0  0
 29 30  1  0  0  0  0
 29 31  1  0  0  0  0
 31 32  1  0  0  0  0
 31 33  1  0  0  0  0
 31 34  1  0  0  0  0
M  CHG  1  23   1
M  END
$$$$

  -OEChem-02102214153D

 34 33  0     1  0  0  0  0  0999 V2000
   -3.8998   -3.9695    2.0917 H   0  0  0  0  0  0  0  0  0  0  0  0
   -3.9084   -2.9775    1.6310 C   0  0  0  0  0  0  0  0  0  0  0  0
   -4.4252   -2.2857    2.3010 H   0  0  0  0  0  0  0  0  0  0  0  0
   -4.4530   -3.0321    0.6854 H   0  0  0  0  0  0  0  0  0  0  0  0
   -2.4895   -2.5002    1.3881 C   0  0  0  0  0  0  0  0  0  0  0  0
   -1.5444   -3.2408    1.6125 O   0  0  0  0  0  0  0  0  0  0  0  0
   -2.2641   -1.2360    0.8816 N   0  0  0  0  0  0  0  0  0  0  0  0
   -3.0786   -0.6256    0.8015 H   0  0  0  0  0  0  0  0  0  0  0  0
   -0.9508   -0.5655    0.8542 C   0  0  1  0  0  0  0  0  0  0  0  0
   -0.2855   -1.0714    1.5623 H   0  0  0  0  0  0  0  0  0  0  0  0
   -0.2811   -0.6003   -0.5437 C   0  0  0  0  0  0  0  0  0  0  0  0
   -0.5699    0.2936   -1.1087 H   0  0  0  0  0  0  0  0  0  0  0  0
    0.8012   -0.5470   -0.3883 H   0  0  0  0  0  0  0  0  0  0  0  0
   -0.6286   -1.8279   -1.4084 C   0  0  0  0  0  0  0  0  0  0  0  0
   -0.7964   -2.6949   -0.7650 H   0  0  0  0  0  0  0  0  0  0  0  0
   -1.5533   -1.6361   -1.9637 H   0  0  0  0  0  0  0  0  0  0  0  0
    0.5204   -2.1895   -2.3558 C   0  0  0  0  0  0  0  0  0  0  0  0
    0.7035   -1.3551   -3.0419 H   0  0  0  0  0  0  0  0  0  0  0  0
    1.4329   -2.3620   -1.7743 H   0  0  0  0  0  0  0  0  0  0  0  0
    0.1603   -3.4501   -3.1384 C   0  0  0  0  0  0  0  0  0  0  0  0
   -0.0586   -4.2627   -2.4295 H   0  0  0  0  0  0  0  0  0  0  0  0
   -0.7588   -3.2679   -3.7146 H   0  0  0  0  0  0  0  0  0  0  0  0
    1.2866   -3.8098   -4.0266 N   0  3  0  0  0  0  0  0  0  0  0  0
    2.1293   -3.9713   -3.4716 H   0  0  0  0  0  0  0  0  0  0  0  0
    1.0648   -4.6610   -4.5473 H   0  0  0  0  0  0  0  0  0  0  0  0
    1.4652   -3.0523   -4.6887 H   0  0  0  0  0  0  0  0  0  0  0  0
   -1.0924    0.8968    1.3250 C   0  0  0  0  0  0  0  0  0  0  0  0
   -2.0393    1.5607    0.9228 O   0  0  0  0  0  0  0  0  0  0  0  0
   -0.1979    1.4516    2.2219 N   0  0  0  0  0  0  0  0  0  0  0  0
    0.5173    0.8466    2.6160 H   0  0  0  0  0  0  0  0  0  0  0  0
   -0.3515    2.7975    2.7659 C   0  0  0  0  0  0  0  0  0  0  0  0
   -1.2898    2.8809    3.3248 H   0  0  0  0  0  0  0  0  0  0  0  0
    0.4757    3.0307    3.4437 H   0  0  0  0  0  0  0  0  0  0  0  0
   -0.3553    3.5400    1.9608 H   0  0  0  0  0  0  0  0  0  0  0  0
  1  2  1  0  0  0  0
  2  3  1  0  0  0  0
  2  4  1  0  0  0  0
  2  5  1  0  0  0  0
  5  6  2  0  0  0  0
  5  7  1  0  0  0  0
  7  8  1  0  0  0  0
  7  9  1  0  0  0  0
  9 10  1  0  0  0  0
  9 11  1  0  0  0  0
  9 27  1  0  0  0  0
 11 12  1  0  0  0  0
 11 13  1  0  0  0  0
 11 14  1  0  0  0  0
 14 15  1  0  0  0  0
 14 16  1  0  0  0  0
 14 17  1  0  0  0  0
 17 18  1  0  0  0  0
 17 19  1  0  0  0  0
 17 20  1  0  0  0  0
 20 21  1  0  0  0  0
 20 22  1  0  0  0  0
 20 23  1  0  0  0  0
 23 24  1  0  0  0  0
 23 25  1  0  0  0  0
 23 26  1  0  0  0  0
 27 28  2  0  0  0  0
 27 29  1  0  0  0  0
 29 30  1  0  0  0  0
 29 31  1  0  0  0  0
 31 32  1  0  0  0  0
 31 33  1  0  0  0  0
 31 34  1  0  0  0  0
M  CHG  1  23   1
M  END
$$$$

  -OEChem-02102214153D

 34 33  0     1  0  0  0  0  0999 V2000
   -3.9233   -3.9672    2.0904 H   0  0  0  0  0  0  0  0  0  0  0  0
   -3.9302   -2.9627    1.6578 C   0  0  0  0  0  0  0  0  0  0  0  0
   -4.4204   -2.2831    2.3596 H   0  0  0  0  0  0  0  0  0  0  0  0
   -4.4996   -2.9835    0.7256 H   0  0  0  0  0  0  0  0  0  0  0  0
   -2.5115   -2.4973    1.3910 C   0  0  0  0  0  0  0  0  0  0  0  0
   -1.5685   -3.2498    1.5866 O   0  0  0  0  0  0  0  0  0  0  0  0
   -2.2821   -1.2338    0.8844 N   0  0  0  0  0  0  0  0  0  0  0  0
   -3.0922   -0.6158    0.8168 H   0  0  0  0  0  0  0  0  0  0  0  0
   -0.9644   -0.5728    0.8544 C   0  0  1  0  0  0  0  0  0  0  0  0
   -0.3051   -1.0818    1.5658 H   0  0  0  0  0  0  0  0  0  0  0  0
   -0.2784   -0.6060   -0.5371 C   0  0  0  0  0  0  0  0  0  0  0  0
   -0.5659    0.2918   -1.0966 H   0  0  0  0  0  0  0  0  0  0  0  0
    0.8020   -0.5395   -0.3717 H   0  0  0  0  0  0  0  0  0  0  0  0
   -0.6054   -1.8226   -1.4326 C   0  0  0  0  0  0  0  0  0  0  0  0
   -1.0560   -2.6260   -0.8482 H   0  0  0  0  0  0  0  0  0  0  0  0
   -1.3328   -1.5247   -2.1958 H   0  0  0  0  0  0  0  0  0  0  0  0
    0.6591   -2.3946   -2.0828 C   0  0  0  0  0  0  0  0  0  0  0  0
    1.1075   -1.6406   -2.7393 H   0  0  0  0  0  0  0  0  0  0  0  0
    1.3854   -2.6462   -1.3017 H   0  0  0  0  0  0  0  0  0  0  0  0
    0.3034   -3.6486   -2.8777 C   0  0  0  0  0  0  0  0  0  0  0  0
   -0.2032   -4.3635   -2.2120 H   0  0  0  0  0  0  0  0  0  0  0  0
   -0.4102   -3.3839   -3.6717 H   0  0  0  0  0  0  0  0  0  0  0  0
    1.5400   -4.2331   -3.4392 N   0  3  0  0  0  0  0  0  0  0  0  0
    2.1798   -4.4832   -2.6826 H   0  0  0  0  0  0  0  0  0  0  0  0
    1.3184   -5.0738   -3.9767 H   0  0  0  0  0  0  0  0  0  0  0  0
    1.9990   -3.5574   -4.0527 H   0  0  0  0  0  0  0  0  0  0  0  0
   -1.1014    0.8893    1.3281 C   0  0  0  0  0  0  0  0  0  0  0  0
   -2.0519    1.5537    0.9355 O   0  0  0  0  0  0  0  0  0  0  0  0
   -0.2051    1.4412    2.2246 N   0  0  0  0  0  0  0  0  0  0  0  0
    0.5168    0.8383    2.6091 H   0  0  0  0  0  0  0  0  0  0  0  0
   -0.3504    2.7907    2.7625 C   0  0  0  0  0  0  0  0  0  0  0  0
   -1.2811    2.8790    3.3334 H   0  0  0  0  0  0  0  0  0  0  0  0
    0.4863    3.0274    3.4272 H   0  0  0  0  0  0  0  0  0  0  0  0
   -0.3647    3.5282    1.9527 H   0  0  0  0  0  0  0  0  0  0  0  0
  1  2  1  0  0  0  0
  2  3  1  0  0  0  0
  2  4  1  0  0  0  0
  2  5  1  0  0  0  0
  5  6  2  0  0  0  0
  5  7  1  0  0  0  0
  7  8  1  0  0  0  0
  7  9  1  0  0  0  0
  9 10  1  0  0  0  0
  9 11  1  0  0  0  0
  9 27  1  0  0  0  0
 11 12  1  0  0  0  0
 11 13  1  0  0  0  0
 11 14  1  0  0  0  0
 14 15  1  0  0  0  0
 14 16  1  0  0  0  0
 14 17  1  0  0  0  0
 17 18  1  0  0  0  0
 17 19  1  0  0  0  0
 17 20  1  0  0  0  0
 20 21  1  0  0  0  0
 20 22  1  0  0  0  0
 20 23  1  0  0  0  0
 23 24  1  0  0  0  0
 23 25  1  0  0  0  0
 23 26  1  0  0  0  0
 27 28  2  0  0  0  0
 27 29  1  0  0  0  0
 29 30  1  0  0  0  0
 29 31  1  0  0  0  0
 31 32  1  0  0  0  0
 31 33  1  0  0  0  0
 31 34  1  0  0  0  0
M  CHG  1  23   1
M  END
$$$$

  -OEChem-02102214153D

 34 33  0     1  0  0  0  0  0999 V2000
   -3.8948   -3.9846    2.0537 H   0  0  0  0  0  0  0  0  0  0  0  0
   -3.9145   -2.9647    1.6592 C   0  0  0  0  0  0  0  0  0  0  0  0
   -4.3695   -2.3093    2.4061 H   0  0  0  0  0  0  0  0  0  0  0  0
   -4.5245   -2.9480    0.7527 H   0  0  0  0  0  0  0  0  0  0  0  0
   -2.5062   -2.4957    1.3481 C   0  0  0  0  0  0  0  0  0  0  0  0
   -1.5587   -3.2606    1.4675 O   0  0  0  0  0  0  0  0  0  0  0  0
   -2.2933   -1.2221    0.8596 N   0  0  0  0  0  0  0  0  0  0  0  0
   -3.1038   -0.6009    0.8358 H   0  0  0  0  0  0  0  0  0  0  0  0
   -0.9774   -0.5591    0.8294 C   0  0  1  0  0  0  0  0  0  0  0  0
   -0.3217   -1.0748    1.5389 H   0  0  0  0  0  0  0  0  0  0  0  0
   -0.2744   -0.5858   -0.5539 C   0  0  0  0  0  0  0  0  0  0  0  0
   -0.5896    0.3072   -1.1062 H   0  0  0  0  0  0  0  0  0  0  0  0
    0.8045   -0.4864   -0.3943 H   0  0  0  0  0  0  0  0  0  0  0  0
   -0.5777   -1.7989   -1.4670 C   0  0  0  0  0  0  0  0  0  0  0  0
   -1.2946   -2.4841   -1.0152 H   0  0  0  0  0  0  0  0  0  0  0  0
   -1.0318   -1.4356   -2.3956 H   0  0  0  0  0  0  0  0  0  0  0  0
    0.7006   -2.5774   -1.7949 C   0  0  0  0  0  0  0  0  0  0  0  0
    1.3776   -1.9502   -2.3854 H   0  0  0  0  0  0  0  0  0  0  0  0
    1.2054   -2.8423   -0.8587 H   0  0  0  0  0  0  0  0  0  0  0  0
    0.3456   -3.8496   -2.5605 C   0  0  0  0  0  0  0  0  0  0  0  0
   -0.4162   -4.4064   -1.9942 H   0  0  0  0  0  0  0  0  0  0  0  0
   -0.1018   -3.5797   -3.5283 H   0  0  0  0  0  0  0  0  0  0  0  0
    1.5677   -4.6626   -2.7379 N   0  3  0  0  0  0  0  0  0  0  0  0
    1.9418   -4.9269   -1.8239 H   0  0  0  0  0  0  0  0  0  0  0  0
    1.3517   -5.5113   -3.2651 H   0  0  0  0  0  0  0  0  0  0  0  0
    2.2744   -4.1262   -3.2442 H   0  0  0  0  0  0  0  0  0  0  0  0
   -1.1113    0.8951    1.3288 C   0  0  0  0  0  0  0  0  0  0  0  0
   -2.0763    1.5580    0.9711 O   0  0  0  0  0  0  0  0  0  0  0  0
   -0.2077    1.4338    2.2264 N   0  0  0  0  0  0  0  0  0  0  0  0
    0.5328    0.8335    2.5779 H   0  0  0  0  0  0  0  0  0  0  0  0
   -0.3558    2.7702    2.7956 C   0  0  0  0  0  0  0  0  0  0  0  0
   -1.2824    2.8408    3.3755 H   0  0  0  0  0  0  0  0  0  0  0  0
    0.4843    2.9966    3.4594 H   0  0  0  0  0  0  0  0  0  0  0  0
   -0.3803    3.5253    2.0026 H   0  0  0  0  0  0  0  0  0  0  0  0
  1  2  1  0  0  0  0
  2  3  1  0  0  0  0
  2  4  1  0  0  0  0
  2  5  1  0  0  0  0
  5  6  2  0  0  0  0
  5  7  1  0  0  0  0
  7  8  1  0  0  0  0
  7  9  1  0  0  0  0
  9 10  1  0  0  0  0
  9 11  1  0  0  0  0
  9 27  1  0  0  0  0
 11 12  1  0  0  0  0
 11 13  1  0  0  0  0
 11 14  1  0  0  0  0
 14 15  1  0  0  0  0
 14 16  1  0  0  0  0
 14 17  1  0  0  0  0
 17 18  1  0  0  0  0
 17 19  1  0  0  0  0
 17 20  1  0  0  0  0
 20 21  1  0  0  0  0
 20 22  1  0  0  0  0
 20 23  1  0  0  0  0
 23 24  1  0  0  0  0
 23 25  1  0  0  0  0
 23 26  1  0  0  0  0
 27 28  2  0  0  0  0
 27 29  1  0  0  0  0
 29 30  1  0  0  0  0
 29 31  1  0  0  0  0
 31 32  1  0  0  0  0
 31 33  1  0  0  0  0
 31 34  1  0  0  0  0
M  CHG  1  23   1
M  END
$$$$

  -OEChem-02102214153D

 34 33  0     1  0  0  0  0  0999 V2000
   -3.7670   -4.0715    1.9205 H   0  0  0  0  0  0  0  0  0  0  0  0
   -3.8162   -3.0286    1.5957 C   0  0  0  0  0  0  0  0  0  0  0  0
   -4.2323   -2.4280    2.4086 H   0  0  0  0  0  0  0  0  0  0  0  0
   -4.4772   -2.9591    0.7284 H   0  0  0  0  0  0  0  0  0  0  0  0
   -2.4321   -2.5246    1.2363 C   0  0  0  0  0  0  0  0  0  0  0  0
   -1.4715   -3.2857    1.2527 O   0  0  0  0  0  0  0  0  0  0  0  0
   -2.2620   -1.2279    0.7938 N   0  0  0  0  0  0  0  0  0  0  0  0
   -3.0825   -0.6203    0.8351 H   0  0  0  0  0  0  0  0  0  0  0  0
   -0.9605   -0.5380    0.7753 C   0  0  1  0  0  0  0  0  0  0  0  0
   -0.2963   -1.0635    1.4690 H   0  0  0  0  0  0  0  0  0  0  0  0
   -0.2508   -0.5256   -0.6039 C   0  0  0  0  0  0  0  0  0  0  0  0
   -0.6065    0.3617   -1.1403 H   0  0  0  0  0  0  0  0  0  0  0  0
    0.8267   -0.3913   -0.4609 H   0  0  0  0  0  0  0  0  0  0  0  0
   -0.5376   -1.7353   -1.5241 C   0  0  0  0  0  0  0  0  0  0  0  0
   -1.4499   -2.2672   -1.2516 H   0  0  0  0  0  0  0  0  0  0  0  0
   -0.6985   -1.3631   -2.5421 H   0  0  0  0  0  0  0  0  0  0  0  0
    0.6590   -2.6904   -1.5475 C   0  0  0  0  0  0  0  0  0  0  0  0
    1.4955   -2.2425   -2.0951 H   0  0  0  0  0  0  0  0  0  0  0  0
    0.9806   -2.8684   -0.5149 H   0  0  0  0  0  0  0  0  0  0  0  0
    0.2410   -4.0153   -2.1786 C   0  0  0  0  0  0  0  0  0  0  0  0
   -0.7265   -4.3223   -1.7532 H   0  0  0  0  0  0  0  0  0  0  0  0
    0.0931   -3.8764   -3.2593 H   0  0  0  0  0  0  0  0  0  0  0  0
    1.2754   -5.0305   -1.8911 N   0  3  0  0  0  0  0  0  0  0  0  0
    1.3362   -5.1780   -0.8807 H   0  0  0  0  0  0  0  0  0  0  0  0
    1.0345   -5.9159   -2.3405 H   0  0  0  0  0  0  0  0  0  0  0  0
    2.1827   -4.7150   -2.2369 H   0  0  0  0  0  0  0  0  0  0  0  0
   -1.1147    0.8933    1.3310 C   0  0  0  0  0  0  0  0  0  0  0  0
   -2.1076    1.5413    1.0273 O   0  0  0  0  0  0  0  0  0  0  0  0
   -0.2115    1.4162    2.2381 N   0  0  0  0  0  0  0  0  0  0  0  0
    0.5616    0.8297    2.5382 H   0  0  0  0  0  0  0  0  0  0  0  0
   -0.3793    2.7271    2.8584 C   0  0  0  0  0  0  0  0  0  0  0  0
   -1.3034    2.7591    3.4457 H   0  0  0  0  0  0  0  0  0  0  0  0
    0.4610    2.9431    3.5255 H   0  0  0  0  0  0  0  0  0  0  0  0
   -0.4221    3.5109    2.0945 H   0  0  0  0  0  0  0  0  0  0  0  0
  1  2  1  0  0  0  0
  2  3  1  0  0  0  0
  2  4  1  0  0  0  0
  2  5  1  0  0  0  0
  5  6  2  0  0  0  0
  5  7  1  0  0  0  0
  7  8  1  0  0  0  0
  7  9  1  0  0  0  0
  9 10  1  0  0  0  0
  9 11  1  0  0  0  0
  9 27  1  0  0  0  0
 11 12  1  0  0  0  0
 11 13  1  0  0  0  0
 11 14  1  0  0  0  0
 14 15  1  0  0  0  0
 14 16  1  0  0  0  0
 14 17  1  0  0  0  0
 17 18  1  0  0  0  0
 17 19  1  0  0  0  0
 17 20  1  0  0  0  0
 20 21  1  0  0  0  0
 20 22  1  0  0  0  0
 20 23  1  0  0  0  0
 23 24  1  0  0  0  0
 23 25  1  0  0  0  0
 23 26  1  0  0  0  0
 27 28  2  0  0  0  0
 27 29  1  0  0  0  0
 29 30  1  0  0  0  0
 29 31  1  0  0  0  0
 31 32  1  0  0  0  0
 31 33  1  0  0  0  0
 31 34  1  0  0  0  0
M  CHG  1  23   1
M  END
$$$$

  -OEChem-02102214153D

 34 33  0     1  0  0  0  0  0999 V2000
   -3.3552   -4.3336    2.0656 H   0  0  0  0  0  0  0  0  0  0  0  0
   -3.4743   -3.2970    1.7380 C   0  0  0  0  0  0  0  0  0  0  0  0
   -3.8485   -2.7070    2.5791 H   0  0  0  0  0  0  0  0  0  0  0  0
   -4.2081   -3.2626    0.9287 H   0  0  0  0  0  0  0  0  0  0  0  0
   -2.1477   -2.7352    1.2641 C   0  0  0  0  0  0  0  0  0  0  0  0
   -1.1749   -3.4705    1.1442 O   0  0  0  0  0  0  0  0  0  0  0  0
   -2.0705   -1.4288    0.8399 N   0  0  0  0  0  0  0  0  0  0  0  0
   -2.9283   -0.8814    0.9483 H   0  0  0  0  0  0  0  0  0  0  0  0
   -0.8454   -0.6108    0.7537 C   0  0  1  0  0  0  0  0  0  0  0  0
   -0.0933   -1.0794    1.3971 H   0  0  0  0  0  0  0  0  0  0  0  0
   -0.2259   -0.5003   -0.6641 C   0  0  0  0  0  0  0  0  0  0  0  0
   -0.7080    0.3528   -1.1554 H   0  0  0  0  0  0  0  0  0  0  0  0
    0.8378   -0.2517   -0.5814 H   0  0  0  0  0  0  0  0  0  0  0  0
   -0.4250   -1.7029   -1.6089 C   0  0  0  0  0  0  0  0  0  0  0  0
   -1.3913   -2.1862   -1.4444 H   0  0  0  0  0  0  0  0  0  0  0  0
   -0.4262   -1.3457   -2.6450 H   0  0  0  0  0  0  0  0  0  0  0  0
    0.7393   -2.6950   -1.4333 C   0  0  0  0  0  0  0  0  0  0  0  0
    1.6220   -2.2791   -1.9320 H   0  0  0  0  0  0  0  0  0  0  0  0
    0.9944   -2.8072   -0.3734 H   0  0  0  0  0  0  0  0  0  0  0  0
    0.4230   -4.0588   -2.0463 C   0  0  0  0  0  0  0  0  0  0  0  0
   -0.2680   -3.9262   -2.8913 H   0  0  0  0  0  0  0  0  0  0  0  0
    1.3470   -4.4979   -2.4497 H   0  0  0  0  0  0  0  0  0  0  0  0
   -0.1501   -4.9301   -0.9991 N   0  3  0  0  0  0  0  0  0  0  0  0
   -0.6067   -4.3507   -0.2774 H   0  0  0  0  0  0  0  0  0  0  0  0
   -0.8378   -5.5699   -1.3954 H   0  0  0  0  0  0  0  0  0  0  0  0
    0.5875   -5.4683   -0.5443 H   0  0  0  0  0  0  0  0  0  0  0  0
   -1.1112    0.7931    1.3381 C   0  0  0  0  0  0  0  0  0  0  0  0
   -2.1987    1.3156    1.1330 O   0  0  0  0  0  0  0  0  0  0  0  0
   -0.2139    1.3992    2.1979 N   0  0  0  0  0  0  0  0  0  0  0  0
    0.6627    0.9248    2.3940 H   0  0  0  0  0  0  0  0  0  0  0  0
   -0.4740    2.6839    2.8410 C   0  0  0  0  0  0  0  0  0  0  0  0
   -1.3591    2.6199    3.4832 H   0  0  0  0  0  0  0  0  0  0  0  0
    0.3793    2.9801    3.4590 H   0  0  0  0  0  0  0  0  0  0  0  0
   -0.6407    3.4635    2.0897 H   0  0  0  0  0  0  0  0  0  0  0  0
  1  2  1  0  0  0  0
  2  3  1  0  0  0  0
  2  4  1  0  0  0  0
  2  5  1  0  0  0  0
  5  6  2  0  0  0  0
  5  7  1  0  0  0  0
  7  8  1  0  0  0  0
  7  9  1  0  0  0  0
  9 10  1  0  0  0  0
  9 11  1  0  0  0  0
  9 27  1  0  0  0  0
 11 12  1  0  0  0  0
 11 13  1  0  0  0  0
 11 14  1  0  0  0  0
 14 15  1  0  0  0  0
 14 16  1  0  0  0  0
 14 17  1  0  0  0  0
 17 18  1  0  0  0  0
 17 19  1  0  0  0  0
 17 20  1  0  0  0  0
 20 21  1  0  0  0  0
 20 22  1  0  0  0  0
 20 23  1  0  0  0  0
 23 24  1  0  0  0  0
 23 25  1  0  0  0  0
 23 26  1  0  0  0  0
 27 28  2  0  0  0  0
 27 29  1  0  0  0  0
 29 30  1  0  0  0  0
 29 31  1  0  0  0  0
 31 32  1  0  0  0  0
 31 33  1  0  0  0  0
 31 34  1  0  0  0  0
M  CHG  1  23   1
M  END
$$$$

  -OEChem-02102214153D

 34 33  0     1  0  0  0  0  0999 V2000
   -3.6657   -4.2225    1.8528 H   0  0  0  0  0  0  0  0  0  0  0  0
   -3.6851   -3.1960    1.4766 C   0  0  0  0  0  0  0  0  0  0  0  0
   -4.1828   -2.5640    2.2173 H   0  0  0  0  0  0  0  0  0  0  0  0
   -4.2597   -3.1699    0.5473 H   0  0  0  0  0  0  0  0  0  0  0  0
   -2.2752   -2.6928    1.2327 C   0  0  0  0  0  0  0  0  0  0  0  0
   -1.3270   -3.4591    1.3622 O   0  0  0  0  0  0  0  0  0  0  0  0
   -2.0896   -1.3949    0.8079 N   0  0  0  0  0  0  0  0  0  0  0  0
   -2.9336   -0.8177    0.7752 H   0  0  0  0  0  0  0  0  0  0  0  0
   -0.8300   -0.6246    0.7925 C   0  0  1  0  0  0  0  0  0  0  0  0
   -0.1216   -1.1153    1.4674 H   0  0  0  0  0  0  0  0  0  0  0  0
   -0.1613   -0.5054   -0.6076 C   0  0  0  0  0  0  0  0  0  0  0  0
   -0.5726    0.3846   -1.0986 H   0  0  0  0  0  0  0  0  0  0  0  0
    0.9123   -0.3281   -0.4819 H   0  0  0  0  0  0  0  0  0  0  0  0
   -0.3852   -1.6756   -1.5831 C   0  0  0  0  0  0  0  0  0  0  0  0
   -1.4483   -1.9335   -1.6131 H   0  0  0  0  0  0  0  0  0  0  0  0
   -0.1049   -1.3652   -2.5959 H   0  0  0  0  0  0  0  0  0  0  0  0
    0.4744   -2.8840   -1.1737 C   0  0  0  0  0  0  0  0  0  0  0  0
    1.4608   -2.8064   -1.6440 H   0  0  0  0  0  0  0  0  0  0  0  0
    0.6431   -2.8579   -0.0933 H   0  0  0  0  0  0  0  0  0  0  0  0
   -0.1848   -4.2046   -1.5772 C   0  0  0  0  0  0  0  0  0  0  0  0
   -1.2475   -4.0287   -1.7955 H   0  0  0  0  0  0  0  0  0  0  0  0
    0.2778   -4.5857   -2.4991 H   0  0  0  0  0  0  0  0  0  0  0  0
   -0.0445   -5.1515   -0.4516 N   0  3  0  0  0  0  0  0  0  0  0  0
   -0.4470   -4.7170    0.3959 H   0  0  0  0  0  0  0  0  0  0  0  0
   -0.5423   -6.0202   -0.6450 H   0  0  0  0  0  0  0  0  0  0  0  0
    0.9393   -5.3542   -0.2770 H   0  0  0  0  0  0  0  0  0  0  0  0
   -1.0927    0.7906    1.3499 C   0  0  0  0  0  0  0  0  0  0  0  0
   -2.1403    1.3523    1.0571 O   0  0  0  0  0  0  0  0  0  0  0  0
   -0.2355    1.3745    2.2637 N   0  0  0  0  0  0  0  0  0  0  0  0
    0.6069    0.8706    2.5252 H   0  0  0  0  0  0  0  0  0  0  0  0
   -0.4915    2.6758    2.8742 C   0  0  0  0  0  0  0  0  0  0  0  0
   -1.4437    2.6662    3.4160 H   0  0  0  0  0  0  0  0  0  0  0  0
    0.3043    2.9271    3.5826 H   0  0  0  0  0  0  0  0  0  0  0  0
   -0.5312    3.4580    2.1083 H   0  0  0  0  0  0  0  0  0  0  0  0
  1  2  1  0  0  0  0
  2  3  1  0  0  0  0
  2  4  1  0  0  0  0
  2  5  1  0  0  0  0
  5  6  2  0  0  0  0
  5  7  1  0  0  0  0
  7  8  1  0  0  0  0
  7  9  1  0  0  0  0
  9 10  1  0  0  0  0
  9 11  1  0  0  0  0
  9 27  1  0  0  0  0
 11 12  1  0  0  0  0
 11 13  1  0  0  0  0
 11 14  1  0  0  0  0
 14 15  1  0  0  0  0
 14 16  1  0  0  0  0
 14 17  1  0  0  0  0
 17 18  1  0  0  0  0
 17 19  1  0  0  0  0
 17 20  1  0  0  0  0
 20 21  1  0  0  0  0
 20 22  1  0  0  0  0
 20 23  1  0  0  0  0
 23 24  1  0  0  0  0
 23 25  1  0  0  0  0
 23 26  1  0  0  0  0
 27 28  2  0  0  0  0
 27 29  1  0  0  0  0
 29 30  1  0  0  0  0
 29 31  1  0  0  0  0
 31 32  1  0  0  0  0
 31 33  1  0  0  0  0
 31 34  1  0  0  0  0
M  CHG  1  23   1
M  END
$$$$

  -OEChem-02102214153D

 34 33  0     1  0  0  0  0  0999 V2000
   -3.8527   -4.1194    1.8924 H   0  0  0  0  0  0  0  0  0  0  0  0
   -3.7945   -3.1140    1.4660 C   0  0  0  0  0  0  0  0  0  0  0  0
   -4.3330   -2.4261    2.1238 H   0  0  0  0  0  0  0  0  0  0  0  0
   -4.2778   -3.1157    0.4858 H   0  0  0  0  0  0  0  0  0  0  0  0
   -2.3488   -2.6736    1.3357 C   0  0  0  0  0  0  0  0  0  0  0  0
   -1.4540   -3.4549    1.6342 O   0  0  0  0  0  0  0  0  0  0  0  0
   -2.0827   -1.4088    0.8571 N   0  0  0  0  0  0  0  0  0  0  0  0
   -2.9058   -0.8180    0.7140 H   0  0  0  0  0  0  0  0  0  0  0  0
   -0.8104   -0.6569    0.8776 C   0  0  1  0  0  0  0  0  0  0  0  0
   -0.1409   -1.1204    1.6095 H   0  0  0  0  0  0  0  0  0  0  0  0
   -0.0754   -0.5700   -0.4961 C   0  0  0  0  0  0  0  0  0  0  0  0
   -0.4286    0.3286   -1.0159 H   0  0  0  0  0  0  0  0  0  0  0  0
    0.9913   -0.4192   -0.2996 H   0  0  0  0  0  0  0  0  0  0  0  0
   -0.2310   -1.7248   -1.5043 C   0  0  0  0  0  0  0  0  0  0  0  0
   -1.2905   -1.8039   -1.7703 H   0  0  0  0  0  0  0  0  0  0  0  0
    0.3147   -1.4832   -2.4232 H   0  0  0  0  0  0  0  0  0  0  0  0
    0.2791   -3.0628   -0.9433 C   0  0  0  0  0  0  0  0  0  0  0  0
    1.2740   -3.2639   -1.3553 H   0  0  0  0  0  0  0  0  0  0  0  0
    0.4135   -2.9782    0.1367 H   0  0  0  0  0  0  0  0  0  0  0  0
   -0.6475   -4.2291   -1.2835 C   0  0  0  0  0  0  0  0  0  0  0  0
   -1.6883   -3.8762   -1.2875 H   0  0  0  0  0  0  0  0  0  0  0  0
   -0.4228   -4.6043   -2.2925 H   0  0  0  0  0  0  0  0  0  0  0  0
   -0.4619   -5.2631   -0.2452 N   0  3  0  0  0  0  0  0  0  0  0  0
   -0.7078   -4.8519    0.6708 H   0  0  0  0  0  0  0  0  0  0  0  0
   -1.0662   -6.0657   -0.4207 H   0  0  0  0  0  0  0  0  0  0  0  0
    0.5106   -5.5682   -0.2162 H   0  0  0  0  0  0  0  0  0  0  0  0
   -1.1057    0.7884    1.3376 C   0  0  0  0  0  0  0  0  0  0  0  0
   -2.1293    1.3327    0.9425 O   0  0  0  0  0  0  0  0  0  0  0  0
   -0.3110    1.4237    2.2736 N   0  0  0  0  0  0  0  0  0  0  0  0
    0.5057    0.9326    2.6259 H   0  0  0  0  0  0  0  0  0  0  0  0
   -0.6091    2.7535    2.7980 C   0  0  0  0  0  0  0  0  0  0  0  0
   -1.5881    2.7622    3.2894 H   0  0  0  0  0  0  0  0  0  0  0  0
    0.1465    3.0520    3.5317 H   0  0  0  0  0  0  0  0  0  0  0  0
   -0.6155    3.4928    1.9896 H   0  0  0  0  0  0  0  0  0  0  0  0
  1  2  1  0  0  0  0
  2  3  1  0  0  0  0
  2  4  1  0  0  0  0
  2  5  1  0  0  0  0
  5  6  2  0  0  0  0
  5  7  1  0  0  0  0
  7  8  1  0  0  0  0
  7  9  1  0  0  0  0
  9 10  1  0  0  0  0
  9 11  1  0  0  0  0
  9 27  1  0  0  0  0
 11 12  1  0  0  0  0
 11 13  1  0  0  0  0
 11 14  1  0  0  0  0
 14 15  1  0  0  0  0
 14 16  1  0  0  0  0
 14 17  1  0  0  0  0
 17 18  1  0  0  0  0
 17 19  1  0  0  0  0
 17 20  1  0  0  0  0
 20 21  1  0  0  0  0
 20 22  1  0  0  0  0
 20 23  1  0  0  0  0
 23 24  1  0  0  0  0
 23 25  1  0  0  0  0
 23 26  1  0  0  0  0
 27 28  2  0  0  0  0
 27 29  1  0  0  0  0
 29 30  1  0  0  0  0
 29 31  1  0  0  0  0
 31 32  1  0  0  0  0
 31 33  1  0  0  0  0
 31 34  1  0  0  0  0
M  CHG  1  23   1
M  END
$$$$

  -OEChem-02102214153D

 34 33  0     1  0  0  0  0  0999 V2000
   -3.8384   -4.0956    2.2267 H   0  0  0  0  0  0  0  0  0  0  0  0
   -3.7889   -3.1140    1.7470 C   0  0  0  0  0  0  0  0  0  0  0  0
   -4.3002   -2.3899    2.3876 H   0  0  0  0  0  0  0  0  0  0  0  0
   -4.3067   -3.1612    0.7859 H   0  0  0  0  0  0  0  0  0  0  0  0
   -2.3461   -2.6917    1.5450 C   0  0  0  0  0  0  0  0  0  0  0  0
   -1.4493   -3.4677    1.8456 O   0  0  0  0  0  0  0  0  0  0  0  0
   -2.0919   -1.4547    0.9941 N   0  0  0  0  0  0  0  0  0  0  0  0
   -2.9191   -0.8671    0.8576 H   0  0  0  0  0  0  0  0  0  0  0  0
   -0.8255   -0.6937    0.9559 C   0  0  1  0  0  0  0  0  0  0  0  0
   -0.1442   -1.1127    1.7040 H   0  0  0  0  0  0  0  0  0  0  0  0
   -0.0817   -0.6238   -0.4183 C   0  0  0  0  0  0  0  0  0  0  0  0
   -0.4237    0.2749   -0.9457 H   0  0  0  0  0  0  0  0  0  0  0  0
    0.9769   -0.4617   -0.1889 H   0  0  0  0  0  0  0  0  0  0  0  0
   -0.1539   -1.7559   -1.4668 C   0  0  0  0  0  0  0  0  0  0  0  0
   -1.1288   -1.6894   -1.9628 H   0  0  0  0  0  0  0  0  0  0  0  0
    0.6048   -1.5684   -2.2351 H   0  0  0  0  0  0  0  0  0  0  0  0
    0.0333   -3.1734   -0.9095 C   0  0  0  0  0  0  0  0  0  0  0  0
    0.2630   -3.1121    0.1558 H   0  0  0  0  0  0  0  0  0  0  0  0
    0.9173   -3.6157   -1.3819 H   0  0  0  0  0  0  0  0  0  0  0  0
   -1.1582   -4.0890   -1.1773 C   0  0  0  0  0  0  0  0  0  0  0  0
   -2.0893   -3.5371   -0.9881 H   0  0  0  0  0  0  0  0  0  0  0  0
   -1.1649   -4.3935   -2.2339 H   0  0  0  0  0  0  0  0  0  0  0  0
   -1.0353   -5.2437   -0.2638 N   0  3  0  0  0  0  0  0  0  0  0  0
   -1.0489   -4.8933    0.7085 H   0  0  0  0  0  0  0  0  0  0  0  0
   -1.8104   -5.8937   -0.3938 H   0  0  0  0  0  0  0  0  0  0  0  0
   -0.1531   -5.7302   -0.4228 H   0  0  0  0  0  0  0  0  0  0  0  0
   -1.1503    0.7677    1.3433 C   0  0  0  0  0  0  0  0  0  0  0  0
   -2.1935    1.2657    0.9373 O   0  0  0  0  0  0  0  0  0  0  0  0
   -0.3619    1.4684    2.2366 N   0  0  0  0  0  0  0  0  0  0  0  0
    0.4735    1.0175    2.5991 H   0  0  0  0  0  0  0  0  0  0  0  0
   -0.6813    2.8194    2.6888 C   0  0  0  0  0  0  0  0  0  0  0  0
   -1.6472    2.8341    3.2053 H   0  0  0  0  0  0  0  0  0  0  0  0
    0.0852    3.1797    3.3822 H   0  0  0  0  0  0  0  0  0  0  0  0
   -0.7274    3.5083    1.8384 H   0  0  0  0  0  0  0  0  0  0  0  0
  1  2  1  0  0  0  0
  2  3  1  0  0  0  0
  2  4  1  0  0  0  0
  2  5  1  0  0  0  0
  5  6  2  0  0  0  0
  5  7  1  0  0  0  0
  7  8  1  0  0  0  0
  7  9  1  0  0  0  0
  9 10  1  0  0  0  0
  9 11  1  0  0  0  0
  9 27  1  0  0  0  0
 11 12  1  0  0  0  0
 11 13  1  0  0  0  0
 11 14  1  0  0  0  0
 14 15  1  0  0  0  0
 14 16  1  0  0  0  0
 14 17  1  0  0  0  0
 17 18  1  0  0  0  0
 17 19  1  0  0  0  0
 17 20  1  0  0  0  0
 20 21  1  0  0  0  0
 20 22  1  0  0  0  0
 20 23  1  0  0  0  0
 23 24  1  0  0  0  0
 23 25  1  0  0  0  0
 23 26  1  0  0  0  0
 27 28  2  0  0  0  0
 27 29  1  0  0  0  0
 29 30  1  0  0  0  0
 29 31  1  0  0  0  0
 31 32  1  0  0  0  0
 31 33  1  0  0  0  0
 31 34  1  0  0  0  0
M  CHG  1  23   1
M  END
$$$$

  -OEChem-02102214153D

 34 33  0     1  0  0  0  0  0999 V2000
   -3.9819   -3.9604    2.4755 H   0  0  0  0  0  0  0  0  0  0  0  0
   -3.9080   -3.0031    1.9517 C   0  0  0  0  0  0  0  0  0  0  0  0
   -4.3532   -2.2292    2.5835 H   0  0  0  0  0  0  0  0  0  0  0  0
   -4.4728   -3.0631    1.0181 H   0  0  0  0  0  0  0  0  0  0  0  0
   -2.4571   -2.6621    1.6678 C   0  0  0  0  0  0  0  0  0  0  0  0
   -1.5885   -3.4770    1.9420 O   0  0  0  0  0  0  0  0  0  0  0  0
   -2.1696   -1.4685    1.0428 N   0  0  0  0  0  0  0  0  0  0  0  0
   -2.9785   -0.8559    0.9024 H   0  0  0  0  0  0  0  0  0  0  0  0
   -0.8869   -0.7356    1.0102 C   0  0  1  0  0  0  0  0  0  0  0  0
   -0.2628   -1.1157    1.8263 H   0  0  0  0  0  0  0  0  0  0  0  0
   -0.0242   -0.7351   -0.2986 C   0  0  0  0  0  0  0  0  0  0  0  0
   -0.3010    0.1536   -0.8788 H   0  0  0  0  0  0  0  0  0  0  0  0
    1.0051   -0.5688    0.0375 H   0  0  0  0  0  0  0  0  0  0  0  0
    0.0469   -1.8710   -1.3501 C   0  0  0  0  0  0  0  0  0  0  0  0
   -0.6976   -1.6617   -2.1264 H   0  0  0  0  0  0  0  0  0  0  0  0
    1.0267   -1.8037   -1.8368 H   0  0  0  0  0  0  0  0  0  0  0  0
   -0.1523   -3.3083   -0.8688 C   0  0  0  0  0  0  0  0  0  0  0  0
    0.1069   -3.3577    0.1911 H   0  0  0  0  0  0  0  0  0  0  0  0
    0.5701   -3.9441   -1.3925 H   0  0  0  0  0  0  0  0  0  0  0  0
   -1.5418   -3.8670   -1.1487 C   0  0  0  0  0  0  0  0  0  0  0  0
   -2.2994   -3.1239   -0.8656 H   0  0  0  0  0  0  0  0  0  0  0  0
   -1.6582   -4.0596   -2.2249 H   0  0  0  0  0  0  0  0  0  0  0  0
   -1.6665   -5.1005   -0.3443 N   0  3  0  0  0  0  0  0  0  0  0  0
   -1.5460   -4.8541    0.6518 H   0  0  0  0  0  0  0  0  0  0  0  0
   -2.5823   -5.5295   -0.4750 H   0  0  0  0  0  0  0  0  0  0  0  0
   -0.9392   -5.7669   -0.6045 H   0  0  0  0  0  0  0  0  0  0  0  0
   -1.2150    0.7503    1.2889 C   0  0  0  0  0  0  0  0  0  0  0  0
   -2.2412    1.2249    0.8162 O   0  0  0  0  0  0  0  0  0  0  0  0
   -0.4589    1.4990    2.1711 N   0  0  0  0  0  0  0  0  0  0  0  0
    0.3588    1.0666    2.5924 H   0  0  0  0  0  0  0  0  0  0  0  0
   -0.7873    2.8747    2.5330 C   0  0  0  0  0  0  0  0  0  0  0  0
   -1.7623    2.9194    3.0300 H   0  0  0  0  0  0  0  0  0  0  0  0
   -0.0334    3.2781    3.2163 H   0  0  0  0  0  0  0  0  0  0  0  0
   -0.8182    3.5103    1.6414 H   0  0  0  0  0  0  0  0  0  0  0  0
  1  2  1  0  0  0  0
  2  3  1  0  0  0  0
  2  4  1  0  0  0  0
  2  5  1  0  0  0  0
  5  6  2  0  0  0  0
  5  7  1  0  0  0  0
  7  8  1  0  0  0  0
  7  9  1  0  0  0  0
  9 10  1  0  0  0  0
  9 11  1  0  0  0  0
  9 27  1  0  0  0  0
 11 12  1  0  0  0  0
 11 13  1  0  0  0  0
 11 14  1  0  0  0  0
 14 15  1  0  0  0  0
 14 16  1  0  0  0  0
 14 17  1  0  0  0  0
 17 18  1  0  0  0  0
 17 19  1  0  0  0  0
 17 20  1  0  0  0  0
 20 21  1  0  0  0  0
 20 22  1  0  0  0  0
 20 23  1  0  0  0  0
 23 24  1  0  0  0  0
 23 25  1  0  0  0  0
 23 26  1  0  0  0  0
 27 28  2  0  0  0  0
 27 29  1  0  0  0  0
 29 30  1  0  0  0  0
 29 31  1  0  0  0  0
 31 32  1  0  0  0  0
 31 33  1  0  0  0  0
 31 34  1  0  0  0  0
M  CHG  1  23   1
M  END
$$$$

  -OEChem-02102214153D

 34 33  0     1  0  0  0  0  0999 V2000
   -4.4240   -3.5859    2.3770 H   0  0  0  0  0  0  0  0  0  0  0  0
   -4.2907   -2.6257    1.8712 C   0  0  0  0  0  0  0  0  0  0  0  0
   -4.7009   -1.8382    2.5094 H   0  0  0  0  0  0  0  0  0  0  0  0
   -4.8437   -2.6386    0.9286 H   0  0  0  0  0  0  0  0  0  0  0  0
   -2.8201   -2.3622    1.6104 C   0  0  0  0  0  0  0  0  0  0  0  0
   -1.9922   -3.2350    1.8457 O   0  0  0  0  0  0  0  0  0  0  0  0
   -2.4355   -1.1480    1.0898 N   0  0  0  0  0  0  0  0  0  0  0  0
   -3.1737   -0.4459    0.9986 H   0  0  0  0  0  0  0  0  0  0  0  0
   -1.0662   -0.6113    0.9974 C   0  0  1  0  0  0  0  0  0  0  0  0
   -0.4245   -1.1746    1.6830 H   0  0  0  0  0  0  0  0  0  0  0  0
   -0.4018   -0.6187   -0.4156 C   0  0  0  0  0  0  0  0  0  0  0  0
   -0.6041    0.3520   -0.8851 H   0  0  0  0  0  0  0  0  0  0  0  0
    0.6789   -0.6490   -0.2398 H   0  0  0  0  0  0  0  0  0  0  0  0
   -0.7103   -1.6755   -1.5134 C   0  0  0  0  0  0  0  0  0  0  0  0
   -1.3334   -1.1461   -2.2488 H   0  0  0  0  0  0  0  0  0  0  0  0
    0.2280   -1.9227   -2.0264 H   0  0  0  0  0  0  0  0  0  0  0  0
   -1.4356   -2.9811   -1.1128 C   0  0  0  0  0  0  0  0  0  0  0  0
   -0.5799   -3.0972   -0.4381 H   0  0  0  0  0  0  0  0  0  0  0  0
   -1.6792   -3.0547   -2.1783 H   0  0  0  0  0  0  0  0  0  0  0  0
   -1.2473   -4.4989   -1.2925 C   0  0  0  0  0  0  0  0  0  0  0  0
   -1.8513   -4.8622   -2.1385 H   0  0  0  0  0  0  0  0  0  0  0  0
   -0.1957   -4.7010   -1.5451 H   0  0  0  0  0  0  0  0  0  0  0  0
   -1.6410   -5.2025   -0.0511 N   0  3  0  0  0  0  0  0  0  0  0  0
   -2.6162   -5.4943   -0.1022 H   0  0  0  0  0  0  0  0  0  0  0  0
   -1.0519   -6.0203    0.1050 H   0  0  0  0  0  0  0  0  0  0  0  0
   -1.5408   -4.5618    0.7535 H   0  0  0  0  0  0  0  0  0  0  0  0
   -1.1008    0.8610    1.4678 C   0  0  0  0  0  0  0  0  0  0  0  0
   -2.0503    1.5637    1.1439 O   0  0  0  0  0  0  0  0  0  0  0  0
   -0.1444    1.3612    2.3316 N   0  0  0  0  0  0  0  0  0  0  0  0
    0.6054    0.7440    2.6299 H   0  0  0  0  0  0  0  0  0  0  0  0
   -0.1859    2.7204    2.8626 C   0  0  0  0  0  0  0  0  0  0  0  0
   -1.1002    2.8774    3.4451 H   0  0  0  0  0  0  0  0  0  0  0  0
    0.6741    2.8998    3.5154 H   0  0  0  0  0  0  0  0  0  0  0  0
   -0.1582    3.4529    2.0486 H   0  0  0  0  0  0  0  0  0  0  0  0
  1  2  1  0  0  0  0
  2  3  1  0  0  0  0
  2  4  1  0  0  0  0
  2  5  1  0  0  0  0
  5  6  2  0  0  0  0
  5  7  1  0  0  0  0
  7  8  1  0  0  0  0
  7  9  1  0  0  0  0
  9 10  1  0  0  0  0
  9 11  1  0  0  0  0
  9 27  1  0  0  0  0
 11 12  1  0  0  0  0
 11 13  1  0  0  0  0
 11 14  1  0  0  0  0
 14 15  1  0  0  0  0
 14 16  1  0  0  0  0
 14 17  1  0  0  0  0
 17 18  1  0  0  0  0
 17 19  1  0  0  0  0
 17 20  1  0  0  0  0
 20 21  1  0  0  0  0
 20 22  1  0  0  0  0
 20 23  1  0  0  0  0
 23 24  1  0  0  0  0
 23 25  1  0  0  0  0
 23 26  1  0  0  0  0
 27 28  2  0  0  0  0
 27 29  1  0  0  0  0
 29 30  1  0  0  0  0
 29 31  1  0  0  0  0
 31 32  1  0  0  0  0
 31 33  1  0  0  0  0
 31 34  1  0  0  0  0
M  CHG  1  23   1
M  END
$$$$

  -OEChem-02102214153D

 34 33  0     1  0  0  0  0  0999 V2000
   -4.3354   -3.4646    2.9029 H   0  0  0  0  0  0  0  0  0  0  0  0
   -4.2207   -2.4877    2.4247 C   0  0  0  0  0  0  0  0  0  0  0  0
   -4.5577   -1.7165    3.1224 H   0  0  0  0  0  0  0  0  0  0  0  0
   -4.8478   -2.4541    1.5307 H   0  0  0  0  0  0  0  0  0  0  0  0
   -2.7684   -2.2483    2.0572 C   0  0  0  0  0  0  0  0  0  0  0  0
   -1.9190   -3.0622    2.3821 O   0  0  0  0  0  0  0  0  0  0  0  0
   -2.4277   -1.1128    1.3511 N   0  0  0  0  0  0  0  0  0  0  0  0
   -3.1764   -0.4296    1.2179 H   0  0  0  0  0  0  0  0  0  0  0  0
   -1.0670   -0.5743    1.1660 C   0  0  1  0  0  0  0  0  0  0  0  0
   -0.4236   -1.0152    1.9353 H   0  0  0  0  0  0  0  0  0  0  0  0
   -0.3531   -0.7673   -0.2155 C   0  0  0  0  0  0  0  0  0  0  0  0
   -0.5974    0.1163   -0.8175 H   0  0  0  0  0  0  0  0  0  0  0  0
    0.7223   -0.7058   -0.0158 H   0  0  0  0  0  0  0  0  0  0  0  0
   -0.5661   -1.9610   -1.1895 C   0  0  0  0  0  0  0  0  0  0  0  0
   -0.8852   -1.5467   -2.1528 H   0  0  0  0  0  0  0  0  0  0  0  0
    0.4153   -2.4204   -1.3532 H   0  0  0  0  0  0  0  0  0  0  0  0
   -1.5429   -3.0714   -0.8141 C   0  0  0  0  0  0  0  0  0  0  0  0
   -1.2072   -3.5078    0.1273 H   0  0  0  0  0  0  0  0  0  0  0  0
   -2.5524   -2.6668   -0.7000 H   0  0  0  0  0  0  0  0  0  0  0  0
   -1.5528   -4.1695   -1.8712 C   0  0  0  0  0  0  0  0  0  0  0  0
   -1.9851   -3.7805   -2.8047 H   0  0  0  0  0  0  0  0  0  0  0  0
   -0.5176   -4.4699   -2.0903 H   0  0  0  0  0  0  0  0  0  0  0  0
   -2.3317   -5.3083   -1.3391 N   0  3  0  0  0  0  0  0  0  0  0  0
   -3.3106   -5.0405   -1.2277 H   0  0  0  0  0  0  0  0  0  0  0  0
   -2.2733   -6.1058   -1.9753 H   0  0  0  0  0  0  0  0  0  0  0  0
   -1.9600   -5.5819   -0.4256 H   0  0  0  0  0  0  0  0  0  0  0  0
   -1.1343    0.9499    1.4149 C   0  0  0  0  0  0  0  0  0  0  0  0
   -2.0977    1.5780    0.9912 O   0  0  0  0  0  0  0  0  0  0  0  0
   -0.1853    1.5932    2.1872 N   0  0  0  0  0  0  0  0  0  0  0  0
    0.5692    1.0377    2.5814 H   0  0  0  0  0  0  0  0  0  0  0  0
   -0.2555    3.0141    2.5152 C   0  0  0  0  0  0  0  0  0  0  0  0
   -1.1467    3.2261    3.1154 H   0  0  0  0  0  0  0  0  0  0  0  0
    0.6265    3.3161    3.0886 H   0  0  0  0  0  0  0  0  0  0  0  0
   -0.2956    3.6184    1.6023 H   0  0  0  0  0  0  0  0  0  0  0  0
  1  2  1  0  0  0  0
  2  3  1  0  0  0  0
  2  4  1  0  0  0  0
  2  5  1  0  0  0  0
  5  6  2  0  0  0  0
  5  7  1  0  0  0  0
  7  8  1  0  0  0  0
  7  9  1  0  0  0  0
  9 10  1  0  0  0  0
  9 11  1  0  0  0  0
  9 27  1  0  0  0  0
 11 12  1  0  0  0  0
 11 13  1  0  0  0  0
 11 14  1  0  0  0  0
 14 15  1  0  0  0  0
 14 16  1  0  0  0  0
 14 17  1  0  0  0  0
 17 18  1  0  0  0  0
 17 19  1  0  0  0  0
 17 20  1  0  0  0  0
 20 21  1  0  0  0  0
 20 22  1  0  0  0  0
 20 23  1  0  0  0  0
 23 24  1  0  0  0  0
 23 25  1  0  0  0  0
 23 26  1  0  0  0  0
 27 28  2  0  0  0  0
 27 29  1  0  0  0  0
 29 30  1  0  0  0  0
 29 31  1  0  0  0  0
 31 32  1  0  0  0  0
 31 33  1  0  0  0  0
 31 34  1  0  0  0  0
M  CHG  1  23   1
M  END
$$$$

  -OEChem-02102214153D

 34 33  0     1  0  0  0  0  0999 V2000
   -4.2449   -3.4994    2.9924 H   0  0  0  0  0  0  0  0  0  0  0  0
   -4.1563   -2.5015    2.5536 C   0  0  0  0  0  0  0  0  0  0  0  0
   -4.4334   -1.7618    3.3095 H   0  0  0  0  0  0  0  0  0  0  0  0
   -4.8464   -2.4226    1.7107 H   0  0  0  0  0  0  0  0  0  0  0  0
   -2.7325   -2.2550    2.0926 C   0  0  0  0  0  0  0  0  0  0  0  0
   -1.8605   -3.0684    2.3516 O   0  0  0  0  0  0  0  0  0  0  0  0
   -2.4358   -1.1140    1.3755 N   0  0  0  0  0  0  0  0  0  0  0  0
   -3.1874   -0.4256    1.2981 H   0  0  0  0  0  0  0  0  0  0  0  0
   -1.0804   -0.5740    1.1649 C   0  0  1  0  0  0  0  0  0  0  0  0
   -0.4234   -1.0108    1.9251 H   0  0  0  0  0  0  0  0  0  0  0  0
   -0.3843   -0.7758   -0.2219 C   0  0  0  0  0  0  0  0  0  0  0  0
   -0.6669    0.0947   -0.8260 H   0  0  0  0  0  0  0  0  0  0  0  0
    0.6947   -0.6889   -0.0542 H   0  0  0  0  0  0  0  0  0  0  0  0
   -0.6091   -1.9776   -1.1811 C   0  0  0  0  0  0  0  0  0  0  0  0
   -0.6483   -1.5770   -2.2005 H   0  0  0  0  0  0  0  0  0  0  0  0
    0.2895   -2.6018   -1.1215 H   0  0  0  0  0  0  0  0  0  0  0  0
   -1.8070   -2.9049   -0.9807 C   0  0  0  0  0  0  0  0  0  0  0  0
   -1.6716   -3.4509   -0.0479 H   0  0  0  0  0  0  0  0  0  0  0  0
   -2.7331   -2.3231   -0.9356 H   0  0  0  0  0  0  0  0  0  0  0  0
   -1.8849   -3.9151   -2.1212 C   0  0  0  0  0  0  0  0  0  0  0  0
   -2.1374   -3.3942   -3.0565 H   0  0  0  0  0  0  0  0  0  0  0  0
   -0.8961   -4.3760   -2.2616 H   0  0  0  0  0  0  0  0  0  0  0  0
   -2.8960   -4.9369   -1.7764 N   0  3  0  0  0  0  0  0  0  0  0  0
   -3.8178   -4.5043   -1.7003 H   0  0  0  0  0  0  0  0  0  0  0  0
   -2.9256   -5.6617   -2.4962 H   0  0  0  0  0  0  0  0  0  0  0  0
   -2.6574   -5.3680   -0.8800 H   0  0  0  0  0  0  0  0  0  0  0  0
   -1.1416    0.9500    1.4153 C   0  0  0  0  0  0  0  0  0  0  0  0
   -2.1115    1.5799    1.0093 O   0  0  0  0  0  0  0  0  0  0  0  0
   -0.1765    1.5905    2.1696 N   0  0  0  0  0  0  0  0  0  0  0  0
    0.5771    1.0300    2.5584 H   0  0  0  0  0  0  0  0  0  0  0  0
   -0.2387    3.0098    2.5043 C   0  0  0  0  0  0  0  0  0  0  0  0
   -1.1202    3.2215    3.1190 H   0  0  0  0  0  0  0  0  0  0  0  0
    0.6529    3.3075    3.0653 H   0  0  0  0  0  0  0  0  0  0  0  0
   -0.2907    3.6172    1.5943 H   0  0  0  0  0  0  0  0  0  0  0  0
  1  2  1  0  0  0  0
  2  3  1  0  0  0  0
  2  4  1  0  0  0  0
  2  5  1  0  0  0  0
  5  6  2  0  0  0  0
  5  7  1  0  0  0  0
  7  8  1  0  0  0  0
  7  9  1  0  0  0  0
  9 10  1  0  0  0  0
  9 11  1  0  0  0  0
  9 27  1  0  0  0  0
 11 12  1  0  0  0  0
 11 13  1  0  0  0  0
 11 14  1  0  0  0  0
 14 15  1  0  0  0  0
 14 16  1  0  0  0  0
 14 17  1  0  0  0  0
 17 18  1  0  0  0  0
 17 19  1  0  0  0  0
 17 20  1  0  0  0  0
 20 21  1  0  0  0  0
 20 22  1  0  0  0  0
 20 23  1  0  0  0  0
 23 24  1  0  0  0  0
 23 25  1  0  0  0  0
 23 26  1  0  0  0  0
 27 28  2  0  0  0  0
 27 29  1  0  0  0  0
 29 30  1  0  0  0  0
 29 31  1  0  0  0  0
 31 32  1  0  0  0  0
 31 33  1  0  0  0  0
 31 34  1  0  0  0  0
M  CHG  1  23   1
M  END
$$$$

  -OEChem-02102214153D

 34 33  0     1  0  0  0  0  0999 V2000
   -4.9584   -3.1518    2.3389 H   0  0  0  0  0  0  0  0  0  0  0  0
   -4.7254   -2.1618    1.9369 C   0  0  0  0  0  0  0  0  0  0  0  0
   -4.8975   -1.4187    2.7203 H   0  0  0  0  0  0  0  0  0  0  0  0
   -5.3952   -1.9527    1.0990 H   0  0  0  0  0  0  0  0  0  0  0  0
   -3.2809   -2.1041    1.4790 C   0  0  0  0  0  0  0  0  0  0  0  0
   -2.6070   -3.1268    1.4152 O   0  0  0  0  0  0  0  0  0  0  0  0
   -2.7557   -0.9261    0.9939 N   0  0  0  0  0  0  0  0  0  0  0  0
   -3.3660   -0.1068    1.0587 H   0  0  0  0  0  0  0  0  0  0  0  0
   -1.3198   -0.6088    0.9460 C   0  0  1  0  0  0  0  0  0  0  0  0
   -0.8292   -1.2633    1.6743 H   0  0  0  0  0  0  0  0  0  0  0  0
   -0.5193   -0.7672   -0.3869 C   0  0  0  0  0  0  0  0  0  0  0  0
   -0.6195    0.2017   -0.8903 H   0  0  0  0  0  0  0  0  0  0  0  0
    0.5389   -0.8637   -0.1199 H   0  0  0  0  0  0  0  0  0  0  0  0
   -0.8064   -1.7919   -1.5237 C   0  0  0  0  0  0  0  0  0  0  0  0
   -0.3941   -1.3773   -2.4510 H   0  0  0  0  0  0  0  0  0  0  0  0
   -0.1822   -2.6570   -1.2832 H   0  0  0  0  0  0  0  0  0  0  0  0
   -2.2275   -2.3123   -1.8404 C   0  0  0  0  0  0  0  0  0  0  0  0
   -2.5759   -1.7939   -2.7405 H   0  0  0  0  0  0  0  0  0  0  0  0
   -2.9543   -2.0765   -1.0767 H   0  0  0  0  0  0  0  0  0  0  0  0
   -2.2638   -3.8210   -2.1078 C   0  0  0  0  0  0  0  0  0  0  0  0
   -3.2741   -4.0880   -2.4497 H   0  0  0  0  0  0  0  0  0  0  0  0
   -1.5725   -4.0644   -2.9275 H   0  0  0  0  0  0  0  0  0  0  0  0
   -1.9191   -4.5671   -0.8758 N   0  3  0  0  0  0  0  0  0  0  0  0
   -2.3538   -5.4898   -0.8792 H   0  0  0  0  0  0  0  0  0  0  0  0
   -0.9091   -4.6736   -0.7950 H   0  0  0  0  0  0  0  0  0  0  0  0
   -2.2512   -4.0500   -0.0461 H   0  0  0  0  0  0  0  0  0  0  0  0
   -1.1304    0.8370    1.4604 C   0  0  0  0  0  0  0  0  0  0  0  0
   -1.9642    1.6819    1.1610 O   0  0  0  0  0  0  0  0  0  0  0  0
   -0.1277    1.1574    2.3570 N   0  0  0  0  0  0  0  0  0  0  0  0
    0.5213    0.4276    2.6370 H   0  0  0  0  0  0  0  0  0  0  0  0
    0.0290    2.4905    2.9320 C   0  0  0  0  0  0  0  0  0  0  0  0
   -0.8361    2.7449    3.5538 H   0  0  0  0  0  0  0  0  0  0  0  0
    0.9270    2.5322    3.5565 H   0  0  0  0  0  0  0  0  0  0  0  0
    0.1260    3.2427    2.1414 H   0  0  0  0  0  0  0  0  0  0  0  0
  1  2  1  0  0  0  0
  2  3  1  0  0  0  0
  2  4  1  0  0  0  0
  2  5  1  0  0  0  0
  5  6  2  0  0  0  0
  5  7  1  0  0  0  0
  7  8  1  0  0  0  0
  7  9  1  0  0  0  0
  9 10  1  0  0  0  0
  9 11  1  0  0  0  0
  9 27  1  0  0  0  0
 11 12  1  0  0  0  0
 11 13  1  0  0  0  0
 11 14  1  0  0  0  0
 14 15  1  0  0  0  0
 14 16  1  0  0  0  0
 14 17  1  0  0  0  0
 17 18  1  0  0  0  0
 17 19  1  0  0  0  0
 17 20  1  0  0  0  0
 20 21  1  0  0  0  0
 20 22  1  0  0  0  0
 20 23  1  0  0  0  0
 23 24  1  0  0  0  0
 23 25  1  0  0  0  0
 23 26  1  0  0  0  0
 27 28  2  0  0  0  0
 27 29  1  0  0  0  0
 29 30  1  0  0  0  0
 29 31  1  0  0  0  0
 31 32  1  0  0  0  0
 31 33  1  0  0  0  0
 31 34  1  0  0  0  0
M  CHG  1  23   1
M  END
$$$$

  -OEChem-02102214153D

 34 33  0     1  0  0  0  0  0999 V2000
   -4.0175   -3.8105    2.4499 H   0  0  0  0  0  0  0  0  0  0  0  0
   -3.9740   -2.7410    2.2256 C   0  0  0  0  0  0  0  0  0  0  0  0
   -4.0449   -2.1856    3.1646 H   0  0  0  0  0  0  0  0  0  0  0  0
   -4.8241   -2.4749    1.5934 H   0  0  0  0  0  0  0  0  0  0  0  0
   -2.6707   -2.4020    1.5279 C   0  0  0  0  0  0  0  0  0  0  0  0
   -1.8487   -3.2750    1.3024 O   0  0  0  0  0  0  0  0  0  0  0  0
   -2.4593   -1.1277    1.0514 N   0  0  0  0  0  0  0  0  0  0  0  0
   -3.1846   -0.4457    1.2861 H   0  0  0  0  0  0  0  0  0  0  0  0
   -1.1264   -0.5308    0.8678 C   0  0  1  0  0  0  0  0  0  0  0  0
   -0.4400   -1.0988    1.5058 H   0  0  0  0  0  0  0  0  0  0  0  0
   -0.4755   -0.5154   -0.5478 C   0  0  0  0  0  0  0  0  0  0  0  0
   -0.7954    0.4225   -1.0161 H   0  0  0  0  0  0  0  0  0  0  0  0
    0.6087   -0.4405   -0.4111 H   0  0  0  0  0  0  0  0  0  0  0  0
   -0.7380   -1.5976   -1.6255 C   0  0  0  0  0  0  0  0  0  0  0  0
   -0.3095   -1.2364   -2.5672 H   0  0  0  0  0  0  0  0  0  0  0  0
   -0.1368   -2.4636   -1.3260 H   0  0  0  0  0  0  0  0  0  0  0  0
   -2.1722   -2.0855   -1.9135 C   0  0  0  0  0  0  0  0  0  0  0  0
   -2.4393   -1.7797   -2.9308 H   0  0  0  0  0  0  0  0  0  0  0  0
   -2.9028   -1.6157   -1.2581 H   0  0  0  0  0  0  0  0  0  0  0  0
   -2.2416   -3.6109   -1.8157 C   0  0  0  0  0  0  0  0  0  0  0  0
   -1.5531   -4.0503   -2.5520 H   0  0  0  0  0  0  0  0  0  0  0  0
   -1.8889   -3.9283   -0.8241 H   0  0  0  0  0  0  0  0  0  0  0  0
   -3.6298   -4.0568   -2.0512 N   0  3  0  0  0  0  0  0  0  0  0  0
   -3.9337   -3.7764   -2.9847 H   0  0  0  0  0  0  0  0  0  0  0  0
   -3.6859   -5.0740   -1.9712 H   0  0  0  0  0  0  0  0  0  0  0  0
   -4.2476   -3.6352   -1.3576 H   0  0  0  0  0  0  0  0  0  0  0  0
   -1.1528    0.9073    1.4305 C   0  0  0  0  0  0  0  0  0  0  0  0
   -2.1669    1.5778    1.2789 O   0  0  0  0  0  0  0  0  0  0  0  0
   -0.1301    1.3868    2.2275 N   0  0  0  0  0  0  0  0  0  0  0  0
    0.6782    0.7905    2.3830 H   0  0  0  0  0  0  0  0  0  0  0  0
   -0.1649    2.7000    2.8646 C   0  0  0  0  0  0  0  0  0  0  0  0
   -1.0092    2.7683    3.5592 H   0  0  0  0  0  0  0  0  0  0  0  0
    0.7581    2.8743    3.4265 H   0  0  0  0  0  0  0  0  0  0  0  0
   -0.2643    3.4902    2.1126 H   0  0  0  0  0  0  0  0  0  0  0  0
  1  2  1  0  0  0  0
  2  3  1  0  0  0  0
  2  4  1  0  0  0  0
  2  5  1  0  0  0  0
  5  6  2  0  0  0  0
  5  7  1  0  0  0  0
  7  8  1  0  0  0  0
  7  9  1  0  0  0  0
  9 10  1  0  0  0  0
  9 11  1  0  0  0  0
  9 27  1  0  0  0  0
 11 12  1  0  0  0  0
 11 13  1  0  0  0  0
 11 14  1  0  0  0  0
 14 15  1  0  0  0  0
 14 16  1  0  0  0  0
 14 17  1  0  0  0  0
 17 18  1  0  0  0  0
 17 19  1  0  0  0  0
 17 20  1  0  0  0  0
 20 21  1  0  0  0  0
 20 22  1  0  0  0  0
 20 23  1  0  0  0  0
 23 24  1  0  0  0  0
 23 25  1  0  0  0  0
 23 26  1  0  0  0  0
 27 28  2  0  0  0  0
 27 29  1  0  0  0  0
 29 30  1  0  0  0  0
 29 31  1  0  0  0  0
 31 32  1  0  0  0  0
 31 33  1  0  0  0  0
 31 34  1  0  0  0  0
M  CHG  1  23   1
M  END
$$$$

  -OEChem-02102214153D

 34 33  0     1  0  0  0  0  0999 V2000
   -3.8842   -3.8145    2.8088 H   0  0  0  0  0  0  0  0  0  0  0  0
   -3.8969   -2.7753    2.4679 C   0  0  0  0  0  0  0  0  0  0  0  0
   -4.0759   -2.1265    3.3292 H   0  0  0  0  0  0  0  0  0  0  0  0
   -4.7118   -2.6483    1.7518 H   0  0  0  0  0  0  0  0  0  0  0  0
   -2.5710   -2.4200    1.8233 C   0  0  0  0  0  0  0  0  0  0  0  0
   -1.6711   -3.2418    1.7709 O   0  0  0  0  0  0  0  0  0  0  0  0
   -2.4062   -1.1946    1.2111 N   0  0  0  0  0  0  0  0  0  0  0  0
   -3.1706   -0.5296    1.3403 H   0  0  0  0  0  0  0  0  0  0  0  0
   -1.0871   -0.5763    1.0023 C   0  0  1  0  0  0  0  0  0  0  0  0
   -0.3907   -1.0492    1.7040 H   0  0  0  0  0  0  0  0  0  0  0  0
   -0.4507   -0.7127   -0.4077 C   0  0  0  0  0  0  0  0  0  0  0  0
   -0.7614    0.1595   -0.9941 H   0  0  0  0  0  0  0  0  0  0  0  0
    0.6356   -0.6402   -0.2885 H   0  0  0  0  0  0  0  0  0  0  0  0
   -0.7514   -1.9480   -1.2852 C   0  0  0  0  0  0  0  0  0  0  0  0
   -0.1654   -1.8366   -2.2041 H   0  0  0  0  0  0  0  0  0  0  0  0
   -0.3777   -2.8387   -0.7672 H   0  0  0  0  0  0  0  0  0  0  0  0
   -2.2229   -2.1819   -1.6622 C   0  0  0  0  0  0  0  0  0  0  0  0
   -2.7688   -2.6202   -0.8261 H   0  0  0  0  0  0  0  0  0  0  0  0
   -2.6904   -1.2251   -1.9190 H   0  0  0  0  0  0  0  0  0  0  0  0
   -2.2968   -3.1399   -2.8477 C   0  0  0  0  0  0  0  0  0  0  0  0
   -1.7559   -2.7033   -3.7001 H   0  0  0  0  0  0  0  0  0  0  0  0
   -1.7859   -4.0780   -2.5838 H   0  0  0  0  0  0  0  0  0  0  0  0
   -3.7157   -3.3814   -3.1838 N   0  3  0  0  0  0  0  0  0  0  0  0
   -4.1770   -2.4959   -3.4005 H   0  0  0  0  0  0  0  0  0  0  0  0
   -3.7848   -4.0004   -3.9942 H   0  0  0  0  0  0  0  0  0  0  0  0
   -4.1898   -3.8178   -2.3910 H   0  0  0  0  0  0  0  0  0  0  0  0
   -1.1595    0.9134    1.3958 C   0  0  0  0  0  0  0  0  0  0  0  0
   -2.1621    1.5519    1.0978 O   0  0  0  0  0  0  0  0  0  0  0  0
   -0.1713    1.5037    2.1607 N   0  0  0  0  0  0  0  0  0  0  0  0
    0.6198    0.9319    2.4451 H   0  0  0  0  0  0  0  0  0  0  0  0
   -0.2416    2.8850    2.6264 C   0  0  0  0  0  0  0  0  0  0  0  0
   -1.1135    3.0289    3.2735 H   0  0  0  0  0  0  0  0  0  0  0  0
    0.6571    3.1392    3.1972 H   0  0  0  0  0  0  0  0  0  0  0  0
   -0.3165    3.5734    1.7777 H   0  0  0  0  0  0  0  0  0  0  0  0
  1  2  1  0  0  0  0
  2  3  1  0  0  0  0
  2  4  1  0  0  0  0
  2  5  1  0  0  0  0
  5  6  2  0  0  0  0
  5  7  1  0  0  0  0
  7  8  1  0  0  0  0
  7  9  1  0  0  0  0
  9 10  1  0  0  0  0
  9 11  1  0  0  0  0
  9 27  1  0  0  0  0
 11 12  1  0  0  0  0
 11 13  1  0  0  0  0
 11 14  1  0  0  0  0
 14 15  1  0  0  0  0
 14 16  1  0  0  0  0
 14 17  1  0  0  0  0
 17 18  1  0  0  0  0
 17 19  1  0  0  0  0
 17 20  1  0  0  0  0
 20 21  1  0  0  0  0
 20 22  1  0  0  0  0
 20 23  1  0  0  0  0
 23 24  1  0  0  0  0
 23 25  1  0  0  0  0
 23 26  1  0  0  0  0
 27 28  2  0  0  0  0
 27 29  1  0  0  0  0
 29 30  1  0  0  0  0
 29 31  1  0  0  0  0
 31 32  1  0  0  0  0
 31 33  1  0  0  0  0
 31 34  1  0  0  0  0
M  CHG  1  23   1
M  END
$$$$

  -OEChem-02102214153D

 34 33  0     1  0  0  0  0  0999 V2000
   -3.8406   -3.9558    2.4645 H   0  0  0  0  0  0  0  0  0  0  0  0
   -3.8566   -2.8937    2.2033 C   0  0  0  0  0  0  0  0  0  0  0  0
   -4.0637   -2.3147    3.1069 H   0  0  0  0  0  0  0  0  0  0  0  0
   -4.6552   -2.7205    1.4788 H   0  0  0  0  0  0  0  0  0  0  0  0
   -2.5188   -2.4778    1.6217 C   0  0  0  0  0  0  0  0  0  0  0  0
   -1.5958   -3.2733    1.5757 O   0  0  0  0  0  0  0  0  0  0  0  0
   -2.3609   -1.2171    1.0845 N   0  0  0  0  0  0  0  0  0  0  0  0
   -3.1435   -0.5762    1.2243 H   0  0  0  0  0  0  0  0  0  0  0  0
   -1.0530   -0.5594    0.9256 C   0  0  1  0  0  0  0  0  0  0  0  0
   -0.3497   -1.0585    1.6017 H   0  0  0  0  0  0  0  0  0  0  0  0
   -0.4240   -0.6137   -0.4916 C   0  0  0  0  0  0  0  0  0  0  0  0
   -0.7277    0.2834   -1.0426 H   0  0  0  0  0  0  0  0  0  0  0  0
    0.6630   -0.5563   -0.3698 H   0  0  0  0  0  0  0  0  0  0  0  0
   -0.7428   -1.8294   -1.3851 C   0  0  0  0  0  0  0  0  0  0  0  0
   -0.0106   -1.8403   -2.2000 H   0  0  0  0  0  0  0  0  0  0  0  0
   -0.5914   -2.7453   -0.8040 H   0  0  0  0  0  0  0  0  0  0  0  0
   -2.1512   -1.8307   -2.0027 C   0  0  0  0  0  0  0  0  0  0  0  0
   -2.9216   -1.8752   -1.2315 H   0  0  0  0  0  0  0  0  0  0  0  0
   -2.2962   -0.9047   -2.5697 H   0  0  0  0  0  0  0  0  0  0  0  0
   -2.2905   -3.0406   -2.9224 C   0  0  0  0  0  0  0  0  0  0  0  0
   -1.4996   -3.0072   -3.6860 H   0  0  0  0  0  0  0  0  0  0  0  0
   -2.1348   -3.9575   -2.3344 H   0  0  0  0  0  0  0  0  0  0  0  0
   -3.6318   -3.0263   -3.5442 N   0  3  0  0  0  0  0  0  0  0  0  0
   -3.7588   -2.1646   -4.0786 H   0  0  0  0  0  0  0  0  0  0  0  0
   -3.7362   -3.8261   -4.1722 H   0  0  0  0  0  0  0  0  0  0  0  0
   -4.3506   -3.0764   -2.8202 H   0  0  0  0  0  0  0  0  0  0  0  0
   -1.1539    0.9043    1.4004 C   0  0  0  0  0  0  0  0  0  0  0  0
   -2.1626    1.5420    1.1222 O   0  0  0  0  0  0  0  0  0  0  0  0
   -0.1836    1.4694    2.2064 N   0  0  0  0  0  0  0  0  0  0  0  0
    0.6119    0.8950    2.4726 H   0  0  0  0  0  0  0  0  0  0  0  0
   -0.2823    2.8228    2.7446 C   0  0  0  0  0  0  0  0  0  0  0  0
   -1.1415    2.9068    3.4186 H   0  0  0  0  0  0  0  0  0  0  0  0
    0.6227    3.0758    3.3059 H   0  0  0  0  0  0  0  0  0  0  0  0
   -0.3987    3.5514    1.9351 H   0  0  0  0  0  0  0  0  0  0  0  0
  1  2  1  0  0  0  0
  2  3  1  0  0  0  0
  2  4  1  0  0  0  0
  2  5  1  0  0  0  0
  5  6  2  0  0  0  0
  5  7  1  0  0  0  0
  7  8  1  0  0  0  0
  7  9  1  0  0  0  0
  9 10  1  0  0  0  0
  9 11  1  0  0  0  0
  9 27  1  0  0  0  0
 11 12  1  0  0  0  0
 11 13  1  0  0  0  0
 11 14  1  0  0  0  0
 14 15  1  0  0  0  0
 14 16  1  0  0  0  0
 14 17  1  0  0  0  0
 17 18  1  0  0  0  0
 17 19  1  0  0  0  0
 17 20  1  0  0  0  0
 20 21  1  0  0  0  0
 20 22  1  0  0  0  0
 20 23  1  0  0  0  0
 23 24  1  0  0  0  0
 23 25  1  0  0  0  0
 23 26  1  0  0  0  0
 27 28  2  0  0  0  0
 27 29  1  0  0  0  0
 29 30  1  0  0  0  0
 29 31  1  0  0  0  0
 31 32  1  0  0  0  0
 31 33  1  0  0  0  0
 31 34  1  0  0  0  0
M  CHG  1  23   1
M  END
$$$$

  -OEChem-02102214153D

 34 33  0     1  0  0  0  0  0999 V2000
   -3.7679   -4.0116    2.3704 H   0  0  0  0  0  0  0  0  0  0  0  0
   -3.8255   -2.9968    1.9656 C   0  0  0  0  0  0  0  0  0  0  0  0
   -4.2071   -2.3321    2.7449 H   0  0  0  0  0  0  0  0  0  0  0  0
   -4.5185   -2.9923    1.1215 H   0  0  0  0  0  0  0  0  0  0  0  0
   -2.4518   -2.5341    1.5191 C   0  0  0  0  0  0  0  0  0  0  0  0
   -1.4975   -3.2884    1.6002 O   0  0  0  0  0  0  0  0  0  0  0  0
   -2.2871   -1.2718    0.9857 N   0  0  0  0  0  0  0  0  0  0  0  0
   -3.0944   -0.6511    1.0577 H   0  0  0  0  0  0  0  0  0  0  0  0
   -0.9844   -0.5861    0.8868 C   0  0  1  0  0  0  0  0  0  0  0  0
   -0.2856   -1.0726    1.5767 H   0  0  0  0  0  0  0  0  0  0  0  0
   -0.3435   -0.6086   -0.5255 C   0  0  0  0  0  0  0  0  0  0  0  0
   -0.6316    0.2967   -1.0718 H   0  0  0  0  0  0  0  0  0  0  0  0
    0.7425   -0.5617   -0.3914 H   0  0  0  0  0  0  0  0  0  0  0  0
   -0.6699   -1.8304   -1.4044 C   0  0  0  0  0  0  0  0  0  0  0  0
    0.1775   -2.0003   -2.0780 H   0  0  0  0  0  0  0  0  0  0  0  0
   -0.7663   -2.7278   -0.7867 H   0  0  0  0  0  0  0  0  0  0  0  0
   -1.9260   -1.6109   -2.2584 C   0  0  0  0  0  0  0  0  0  0  0  0
   -2.7742   -1.3514   -1.6176 H   0  0  0  0  0  0  0  0  0  0  0  0
   -1.7540   -0.7742   -2.9443 H   0  0  0  0  0  0  0  0  0  0  0  0
   -2.2405   -2.8801   -3.0446 C   0  0  0  0  0  0  0  0  0  0  0  0
   -1.3612   -3.1640   -3.6412 H   0  0  0  0  0  0  0  0  0  0  0  0
   -2.4312   -3.7030   -2.3396 H   0  0  0  0  0  0  0  0  0  0  0  0
   -3.4131   -2.6307   -3.9105 N   0  3  0  0  0  0  0  0  0  0  0  0
   -3.2065   -1.8744   -4.5660 H   0  0  0  0  0  0  0  0  0  0  0  0
   -3.6459   -3.4742   -4.4391 H   0  0  0  0  0  0  0  0  0  0  0  0
   -4.2171   -2.3631   -3.3399 H   0  0  0  0  0  0  0  0  0  0  0  0
   -1.1422    0.8756    1.3524 C   0  0  0  0  0  0  0  0  0  0  0  0
   -2.1442    1.4938    1.0113 O   0  0  0  0  0  0  0  0  0  0  0  0
   -0.2256    1.4642    2.2028 N   0  0  0  0  0  0  0  0  0  0  0  0
    0.5569    0.9007    2.5255 H   0  0  0  0  0  0  0  0  0  0  0  0
   -0.3862    2.8127    2.7380 C   0  0  0  0  0  0  0  0  0  0  0  0
   -1.2965    2.8805    3.3436 H   0  0  0  0  0  0  0  0  0  0  0  0
    0.4680    3.0743    3.3701 H   0  0  0  0  0  0  0  0  0  0  0  0
   -0.4491    3.5444    1.9253 H   0  0  0  0  0  0  0  0  0  0  0  0
  1  2  1  0  0  0  0
  2  3  1  0  0  0  0
  2  4  1  0  0  0  0
  2  5  1  0  0  0  0
  5  6  2  0  0  0  0
  5  7  1  0  0  0  0
  7  8  1  0  0  0  0
  7  9  1  0  0  0  0
  9 10  1  0  0  0  0
  9 11  1  0  0  0  0
  9 27  1  0  0  0  0
 11 12  1  0  0  0  0
 11 13  1  0  0  0  0
 11 14  1  0  0  0  0
 14 15  1  0  0  0  0
 14 16  1  0  0  0  0
 14 17  1  0  0  0  0
 17 18  1  0  0  0  0
 17 19  1  0  0  0  0
 17 20  1  0  0  0  0
 20 21  1  0  0  0  0
 20 22  1  0  0  0  0
 20 23  1  0  0  0  0
 23 24  1  0  0  0  0
 23 25  1  0  0  0  0
 23 26  1  0  0  0  0
 27 28  2  0  0  0  0
 27 29  1  0  0  0  0
 29 30  1  0  0  0  0
 29 31  1  0  0  0  0
 31 32  1  0  0  0  0
 31 33  1  0  0  0  0
 31 34  1  0  0  0  0
M  CHG  1  23   1
M  END
$$$$

  -OEChem-02102214153D

 34 33  0     1  0  0  0  0  0999 V2000
   -3.7836   -4.0172    2.3538 H   0  0  0  0  0  0  0  0  0  0  0  0
   -3.8371   -3.0163    1.9158 C   0  0  0  0  0  0  0  0  0  0  0  0
   -4.2656   -2.3347    2.6550 H   0  0  0  0  0  0  0  0  0  0  0  0
   -4.4887   -3.0488    1.0400 H   0  0  0  0  0  0  0  0  0  0  0  0
   -2.4507   -2.5455    1.5198 C   0  0  0  0  0  0  0  0  0  0  0  0
   -1.4901   -3.2830    1.6624 O   0  0  0  0  0  0  0  0  0  0  0  0
   -2.2769   -1.2895    0.9731 N   0  0  0  0  0  0  0  0  0  0  0  0
   -3.0918   -0.6754    0.9972 H   0  0  0  0  0  0  0  0  0  0  0  0
   -0.9734   -0.6022    0.8863 C   0  0  1  0  0  0  0  0  0  0  0  0
   -0.2777   -1.0809    1.5845 H   0  0  0  0  0  0  0  0  0  0  0  0
   -0.3304   -0.6320   -0.5245 C   0  0  0  0  0  0  0  0  0  0  0  0
   -0.6144    0.2753   -1.0698 H   0  0  0  0  0  0  0  0  0  0  0  0
    0.7553   -0.5840   -0.3890 H   0  0  0  0  0  0  0  0  0  0  0  0
   -0.6561   -1.8599   -1.4002 C   0  0  0  0  0  0  0  0  0  0  0  0
    0.2728   -2.1914   -1.8774 H   0  0  0  0  0  0  0  0  0  0  0  0
   -1.0093   -2.7002   -0.7986 H   0  0  0  0  0  0  0  0  0  0  0  0
   -1.6654   -1.5093   -2.4996 C   0  0  0  0  0  0  0  0  0  0  0  0
   -2.5743   -1.1062   -2.0390 H   0  0  0  0  0  0  0  0  0  0  0  0
   -1.2421   -0.7369   -3.1514 H   0  0  0  0  0  0  0  0  0  0  0  0
   -2.0028   -2.7556   -3.3127 C   0  0  0  0  0  0  0  0  0  0  0  0
   -1.0784   -3.1709   -3.7404 H   0  0  0  0  0  0  0  0  0  0  0  0
   -2.4213   -3.5211   -2.6424 H   0  0  0  0  0  0  0  0  0  0  0  0
   -2.9649   -2.3888   -4.3744 N   0  3  0  0  0  0  0  0  0  0  0  0
   -2.5509   -1.6884   -4.9926 H   0  0  0  0  0  0  0  0  0  0  0  0
   -3.2125   -3.2134   -4.9254 H   0  0  0  0  0  0  0  0  0  0  0  0
   -3.8129   -2.0008   -3.9570 H   0  0  0  0  0  0  0  0  0  0  0  0
   -1.1404    0.8649    1.3311 C   0  0  0  0  0  0  0  0  0  0  0  0
   -2.1281    1.4849    0.9531 O   0  0  0  0  0  0  0  0  0  0  0  0
   -0.2374    1.4641    2.1886 N   0  0  0  0  0  0  0  0  0  0  0  0
    0.5296    0.8993    2.5443 H   0  0  0  0  0  0  0  0  0  0  0  0
   -0.4050    2.8200    2.7015 C   0  0  0  0  0  0  0  0  0  0  0  0
   -1.3290    2.8984    3.2843 H   0  0  0  0  0  0  0  0  0  0  0  0
    0.4354    3.0877    3.3496 H   0  0  0  0  0  0  0  0  0  0  0  0
   -0.4468    3.5407    1.8778 H   0  0  0  0  0  0  0  0  0  0  0  0
  1  2  1  0  0  0  0
  2  3  1  0  0  0  0
  2  4  1  0  0  0  0
  2  5  1  0  0  0  0
  5  6  2  0  0  0  0
  5  7  1  0  0  0  0
  7  8  1  0  0  0  0
  7  9  1  0  0  0  0
  9 10  1  0  0  0  0
  9 11  1  0  0  0  0
  9 27  1  0  0  0  0
 11 12  1  0  0  0  0
 11 13  1  0  0  0  0
 11 14  1  0  0  0  0
 14 15  1  0  0  0  0
 14 16  1  0  0  0  0
 14 17  1  0  0  0  0
 17 18  1  0  0  0  0
 17 19  1  0  0  0  0
 17 20  1  0  0  0  0
 20 21  1  0  0  0  0
 20 22  1  0  0  0  0
 20 23  1  0  0  0  0
 23 24  1  0  0  0  0
 23 25  1  0  0  0  0
 23 26  1  0  0  0  0
 27 28  2  0  0  0  0
 27 29  1  0  0  0  0
 29 30  1  0  0  0  0
 29 31  1  0  0  0  0
 31 32  1  0  0  0  0
 31 33  1  0  0  0  0
 31 34  1  0  0  0  0
M  CHG  1  23   1
M  END
$$$$

  -OEChem-02102214153D

 34 33  0     1  0  0  0  0  0999 V2000
   -3.7984   -4.0075    2.3847 H   0  0  0  0  0  0  0  0  0  0  0  0
   -3.8563   -3.0091    1.9418 C   0  0  0  0  0  0  0  0  0  0  0  0
   -4.2812   -2.3240    2.6798 H   0  0  0  0  0  0  0  0  0  0  0  0
   -4.5132   -3.0474    1.0701 H   0  0  0  0  0  0  0  0  0  0  0  0
   -2.4733   -2.5388    1.5335 C   0  0  0  0  0  0  0  0  0  0  0  0
   -1.5116   -3.2791    1.6582 O   0  0  0  0  0  0  0  0  0  0  0  0
   -2.3019   -1.2838    0.9838 N   0  0  0  0  0  0  0  0  0  0  0  0
   -3.1173   -0.6701    1.0017 H   0  0  0  0  0  0  0  0  0  0  0  0
   -0.9968   -0.6030    0.8830 C   0  0  1  0  0  0  0  0  0  0  0  0
   -0.3013   -1.0822    1.5810 H   0  0  0  0  0  0  0  0  0  0  0  0
   -0.3524   -0.6474   -0.5281 C   0  0  0  0  0  0  0  0  0  0  0  0
   -0.6603    0.2541   -1.0698 H   0  0  0  0  0  0  0  0  0  0  0  0
    0.7337   -0.5766   -0.4056 H   0  0  0  0  0  0  0  0  0  0  0  0
   -0.6701   -1.8787   -1.4093 C   0  0  0  0  0  0  0  0  0  0  0  0
    0.2732   -2.3846   -1.6435 H   0  0  0  0  0  0  0  0  0  0  0  0
   -1.2876   -2.6090   -0.8840 H   0  0  0  0  0  0  0  0  0  0  0  0
   -1.3606   -1.4679   -2.7152 C   0  0  0  0  0  0  0  0  0  0  0  0
   -2.2884   -0.9345   -2.4791 H   0  0  0  0  0  0  0  0  0  0  0  0
   -0.7081   -0.7878   -3.2739 H   0  0  0  0  0  0  0  0  0  0  0  0
   -1.6702   -2.7044   -3.5547 C   0  0  0  0  0  0  0  0  0  0  0  0
   -0.7339   -3.2407   -3.7689 H   0  0  0  0  0  0  0  0  0  0  0  0
   -2.3071   -3.3861   -2.9718 H   0  0  0  0  0  0  0  0  0  0  0  0
   -2.3413   -2.2809   -4.8028 N   0  3  0  0  0  0  0  0  0  0  0  0
   -1.7303   -1.6562   -5.3323 H   0  0  0  0  0  0  0  0  0  0  0  0
   -2.5614   -3.0965   -5.3784 H   0  0  0  0  0  0  0  0  0  0  0  0
   -3.2080   -1.7867   -4.5819 H   0  0  0  0  0  0  0  0  0  0  0  0
   -1.1487    0.8660    1.3275 C   0  0  0  0  0  0  0  0  0  0  0  0
   -2.1290    1.4979    0.9507 O   0  0  0  0  0  0  0  0  0  0  0  0
   -0.2314    1.4586    2.1744 N   0  0  0  0  0  0  0  0  0  0  0  0
    0.5291    0.8848    2.5296 H   0  0  0  0  0  0  0  0  0  0  0  0
   -0.3824    2.8168    2.6866 C   0  0  0  0  0  0  0  0  0  0  0  0
   -1.2989    2.9038    3.2800 H   0  0  0  0  0  0  0  0  0  0  0  0
    0.4677    3.0790    3.3242 H   0  0  0  0  0  0  0  0  0  0  0  0
   -0.4281    3.5359    1.8617 H   0  0  0  0  0  0  0  0  0  0  0  0
  1  2  1  0  0  0  0
  2  3  1  0  0  0  0
  2  4  1  0  0  0  0
  2  5  1  0  0  0  0
  5  6  2  0  0  0  0
  5  7  1  0  0  0  0
  7  8  1  0  0  0  0
  7  9  1  0  0  0  0
  9 10  1  0  0  0  0
  9 11  1  0  0  0  0
  9 27  1  0  0  0  0
 11 12  1  0  0  0  0
 11 13  1  0  0  0  0
 11 14  1  0  0  0  0
 14 15  1  0  0  0  0
 14 16  1  0  0  0  0
 14 17  1  0  0  0  0
 17 18  1  0  0  0  0
 17 19  1  0  0  0  0
 17 20  1  0  0  0  0
 20 21  1  0  0  0  0
 20 22  1  0  0  0  0
 20 23  1  0  0  0  0
 23 24  1  0  0  0  0
 23 25  1  0  0  0  0
 23 26  1  0  0  0  0
 27 28  2  0  0  0  0
 27 29  1  0  0  0  0
 29 30  1  0  0  0  0
 29 31  1  0  0  0  0
 31 32  1  0  0  0  0
 31 33  1  0  0  0  0
 31 34  1  0  0  0  0
M  CHG  1  23   1
M  END
$$$$

  -OEChem-02102214153D

 34 33  0     1  0  0  0  0  0999 V2000
   -3.8125   -4.0049    2.3600 H   0  0  0  0  0  0  0  0  0  0  0  0
   -3.8732   -3.0018    1.9283 C   0  0  0  0  0  0  0  0  0  0  0  0
   -4.2942   -2.3246    2.6757 H   0  0  0  0  0  0  0  0  0  0  0  0
   -4.5345   -3.0311    1.0594 H   0  0  0  0  0  0  0  0  0  0  0  0
   -2.4932   -2.5259    1.5167 C   0  0  0  0  0  0  0  0  0  0  0  0
   -1.5309   -3.2699    1.6138 O   0  0  0  0  0  0  0  0  0  0  0  0
   -2.3259   -1.2661    0.9774 N   0  0  0  0  0  0  0  0  0  0  0  0
   -3.1414   -0.6529    1.0015 H   0  0  0  0  0  0  0  0  0  0  0  0
   -1.0202   -0.5895    0.8691 C   0  0  1  0  0  0  0  0  0  0  0  0
   -0.3266   -1.0760    1.5637 H   0  0  0  0  0  0  0  0  0  0  0  0
   -0.3743   -0.6470   -0.5407 C   0  0  0  0  0  0  0  0  0  0  0  0
   -0.7136    0.2428   -1.0832 H   0  0  0  0  0  0  0  0  0  0  0  0
    0.7117   -0.5534   -0.4350 H   0  0  0  0  0  0  0  0  0  0  0  0
   -0.6905   -1.8845   -1.4155 C   0  0  0  0  0  0  0  0  0  0  0  0
    0.1753   -2.5557   -1.3981 H   0  0  0  0  0  0  0  0  0  0  0  0
   -1.5363   -2.4528   -1.0251 H   0  0  0  0  0  0  0  0  0  0  0  0
   -1.0233   -1.4781   -2.8561 C   0  0  0  0  0  0  0  0  0  0  0  0
   -1.9012   -0.8219   -2.8549 H   0  0  0  0  0  0  0  0  0  0  0  0
   -0.1800   -0.9211   -3.2794 H   0  0  0  0  0  0  0  0  0  0  0  0
   -1.3040   -2.7216   -3.6960 C   0  0  0  0  0  0  0  0  0  0  0  0
   -0.4223   -3.3791   -3.6748 H   0  0  0  0  0  0  0  0  0  0  0  0
   -2.1358   -3.2823   -3.2447 H   0  0  0  0  0  0  0  0  0  0  0  0
   -1.6277   -2.3053   -5.0779 N   0  3  0  0  0  0  0  0  0  0  0  0
   -0.8437   -1.7866   -5.4783 H   0  0  0  0  0  0  0  0  0  0  0  0
   -1.8137   -3.1261   -5.6582 H   0  0  0  0  0  0  0  0  0  0  0  0
   -2.4550   -1.7054   -5.0763 H   0  0  0  0  0  0  0  0  0  0  0  0
   -1.1505    0.8777    1.3267 C   0  0  0  0  0  0  0  0  0  0  0  0
   -2.1272    1.5240    0.9672 O   0  0  0  0  0  0  0  0  0  0  0  0
   -0.2158    1.4537    2.1666 N   0  0  0  0  0  0  0  0  0  0  0  0
    0.5396    0.8672    2.5116 H   0  0  0  0  0  0  0  0  0  0  0  0
   -0.3466    2.8086    2.6935 C   0  0  0  0  0  0  0  0  0  0  0  0
   -1.2540    2.8986    3.3003 H   0  0  0  0  0  0  0  0  0  0  0  0
    0.5145    3.0564    3.3221 H   0  0  0  0  0  0  0  0  0  0  0  0
   -0.3967    3.5365    1.8766 H   0  0  0  0  0  0  0  0  0  0  0  0
  1  2  1  0  0  0  0
  2  3  1  0  0  0  0
  2  4  1  0  0  0  0
  2  5  1  0  0  0  0
  5  6  2  0  0  0  0
  5  7  1  0  0  0  0
  7  8  1  0  0  0  0
  7  9  1  0  0  0  0
  9 10  1  0  0  0  0
  9 11  1  0  0  0  0
  9 27  1  0  0  0  0
 11 12  1  0  0  0  0
 11 13  1  0  0  0  0
 11 14  1  0  0  0  0
 14 15  1  0  0  0  0
 14 16  1  0  0  0  0
 14 17  1  0  0  0  0
 17 18  1  0  0  0  0
 17 19  1  0  0  0  0
 17 20  1  0  0  0  0
 20 21  1  0  0  0  0
 20 22  1  0  0  0  0
 20 23  1  0  0  0  0
 23 24  1  0  0  0  0
 23 25  1  0  0  0  0
 23 26  1  0  0  0  0
 27 28  2  0  0  0  0
 27 29  1  0  0  0  0
 29 30  1  0  0  0  0
 29 31  1  0  0  0  0
 31 32  1  0  0  0  0
 31 33  1  0  0  0  0
 31 34  1  0  0  0  0
M  CHG  1  23   1
M  END
$$$$

  -OEChem-02102214153D

 34 33  0     1  0  0  0  0  0999 V2000
   -3.8218   -3.9981    2.3009 H   0  0  0  0  0  0  0  0  0  0  0  0
   -3.8817   -2.9916    1.8769 C   0  0  0  0  0  0  0  0  0  0  0  0
   -4.3021   -2.3200    2.6295 H   0  0  0  0  0  0  0  0  0  0  0  0
   -4.5434   -3.0131    1.0079 H   0  0  0  0  0  0  0  0  0  0  0  0
   -2.5012   -2.5139    1.4691 C   0  0  0  0  0  0  0  0  0  0  0  0
   -1.5405   -3.2622    1.5524 O   0  0  0  0  0  0  0  0  0  0  0  0
   -2.3302   -1.2483    0.9453 N   0  0  0  0  0  0  0  0  0  0  0  0
   -3.1449   -0.6338    0.9715 H   0  0  0  0  0  0  0  0  0  0  0  0
   -1.0225   -0.5750    0.8498 C   0  0  1  0  0  0  0  0  0  0  0  0
   -0.3364   -1.0708    1.5452 H   0  0  0  0  0  0  0  0  0  0  0  0
   -0.3709   -0.6374   -0.5562 C   0  0  0  0  0  0  0  0  0  0  0  0
   -0.7193    0.2449   -1.1049 H   0  0  0  0  0  0  0  0  0  0  0  0
    0.7152   -0.5414   -0.4550 H   0  0  0  0  0  0  0  0  0  0  0  0
   -0.6981   -1.8799   -1.4157 C   0  0  0  0  0  0  0  0  0  0  0  0
    0.0138   -2.6776   -1.1748 H   0  0  0  0  0  0  0  0  0  0  0  0
   -1.6988   -2.2603   -1.1980 H   0  0  0  0  0  0  0  0  0  0  0  0
   -0.6607   -1.5404   -2.9103 C   0  0  0  0  0  0  0  0  0  0  0  0
   -1.4112   -0.7726   -3.1293 H   0  0  0  0  0  0  0  0  0  0  0  0
    0.3254   -1.1371   -3.1656 H   0  0  0  0  0  0  0  0  0  0  0  0
   -0.9431   -2.7945   -3.7338 C   0  0  0  0  0  0  0  0  0  0  0  0
   -0.1943   -3.5628   -3.4905 H   0  0  0  0  0  0  0  0  0  0  0  0
   -1.9254   -3.1996   -3.4489 H   0  0  0  0  0  0  0  0  0  0  0  0
   -0.9056   -2.4484   -5.1715 N   0  3  0  0  0  0  0  0  0  0  0  0
    0.0139   -2.0764   -5.4168 H   0  0  0  0  0  0  0  0  0  0  0  0
   -1.0893   -3.2793   -5.7381 H   0  0  0  0  0  0  0  0  0  0  0  0
   -1.6146   -1.7422   -5.3786 H   0  0  0  0  0  0  0  0  0  0  0  0
   -1.1418    0.8882    1.3221 C   0  0  0  0  0  0  0  0  0  0  0  0
   -2.1097    1.5478    0.9636 O   0  0  0  0  0  0  0  0  0  0  0  0
   -0.2046    1.4482    2.1701 N   0  0  0  0  0  0  0  0  0  0  0  0
    0.5392    0.8497    2.5196 H   0  0  0  0  0  0  0  0  0  0  0  0
   -0.3305    2.7974    2.7127 C   0  0  0  0  0  0  0  0  0  0  0  0
   -1.2375    2.8836    3.3208 H   0  0  0  0  0  0  0  0  0  0  0  0
    0.5315    3.0359    3.3435 H   0  0  0  0  0  0  0  0  0  0  0  0
   -0.3788    3.5344    1.9038 H   0  0  0  0  0  0  0  0  0  0  0  0
  1  2  1  0  0  0  0
  2  3  1  0  0  0  0
  2  4  1  0  0  0  0
  2  5  1  0  0  0  0
  5  6  2  0  0  0  0
  5  7  1  0  0  0  0
  7  8  1  0  0  0  0
  7  9  1  0  0  0  0
  9 10  1  0  0  0  0
  9 11  1  0  0  0  0
  9 27  1  0  0  0  0
 11 12  1  0  0  0  0
 11 13  1  0  0  0  0
 11 14  1  0  0  0  0
 14 15  1  0  0  0  0
 14 16  1  0  0  0  0
 14 17  1  0  0  0  0
 17 18  1  0  0  0  0
 17 19  1  0  0  0  0
 17 20  1  0  0  0  0
 20 21  1  0  0  0  0
 20 22  1  0  0  0  0
 20 23  1  0  0  0  0
 23 24  1  0  0  0  0
 23 25  1  0  0  0  0
 23 26  1  0  0  0  0
 27 28  2  0  0  0  0
 27 29  1  0  0  0  0
 29 30  1  0  0  0  0
 29 31  1  0  0  0  0
 31 32  1  0  0  0  0
 31 33  1  0  0  0  0
 31 34  1  0  0  0  0
M  CHG  1  23   1
M  END
$$$$

  -OEChem-02102214153D

 34 33  0     1  0  0  0  0  0999 V2000
   -3.8329   -3.9985    2.2024 H   0  0  0  0  0  0  0  0  0  0  0  0
   -3.8833   -2.9900    1.7819 C   0  0  0  0  0  0  0  0  0  0  0  0
   -4.3278   -2.3231    2.5252 H   0  0  0  0  0  0  0  0  0  0  0  0
   -4.5195   -3.0090    0.8939 H   0  0  0  0  0  0  0  0  0  0  0  0
   -2.4923   -2.5071    1.4169 C   0  0  0  0  0  0  0  0  0  0  0  0
   -1.5331   -3.2554    1.5187 O   0  0  0  0  0  0  0  0  0  0  0  0
   -2.3097   -1.2372    0.9083 N   0  0  0  0  0  0  0  0  0  0  0  0
   -3.1258   -0.6242    0.9171 H   0  0  0  0  0  0  0  0  0  0  0  0
   -1.0014   -0.5616    0.8367 C   0  0  1  0  0  0  0  0  0  0  0  0
   -0.3213   -1.0636    1.5335 H   0  0  0  0  0  0  0  0  0  0  0  0
   -0.3441   -0.6170   -0.5654 C   0  0  0  0  0  0  0  0  0  0  0  0
   -0.6842    0.2630   -1.1230 H   0  0  0  0  0  0  0  0  0  0  0  0
    0.7425   -0.5335   -0.4572 H   0  0  0  0  0  0  0  0  0  0  0  0
   -0.6869   -1.8620   -1.4074 C   0  0  0  0  0  0  0  0  0  0  0  0
   -0.1688   -2.7320   -0.9882 H   0  0  0  0  0  0  0  0  0  0  0  0
   -1.7617   -2.0636   -1.3736 H   0  0  0  0  0  0  0  0  0  0  0  0
   -0.3011   -1.6532   -2.8754 C   0  0  0  0  0  0  0  0  0  0  0  0
   -0.8573   -0.8016   -3.2828 H   0  0  0  0  0  0  0  0  0  0  0  0
    0.7685   -1.4254   -2.9406 H   0  0  0  0  0  0  0  0  0  0  0  0
   -0.6161   -2.9151   -3.6747 C   0  0  0  0  0  0  0  0  0  0  0  0
   -0.0679   -3.7641   -3.2398 H   0  0  0  0  0  0  0  0  0  0  0  0
   -1.6885   -3.1430   -3.5840 H   0  0  0  0  0  0  0  0  0  0  0  0
   -0.2336   -2.6989   -5.0869 N   0  3  0  0  0  0  0  0  0  0  0  0
    0.7650   -2.4919   -5.1496 H   0  0  0  0  0  0  0  0  0  0  0  0
   -0.4341   -3.5365   -5.6376 H   0  0  0  0  0  0  0  0  0  0  0  0
   -0.7597   -1.9131   -5.4743 H   0  0  0  0  0  0  0  0  0  0  0  0
   -1.1257    0.8972    1.3200 C   0  0  0  0  0  0  0  0  0  0  0  0
   -2.0884    1.5606    0.9555 O   0  0  0  0  0  0  0  0  0  0  0  0
   -0.1993    1.4490    2.1850 N   0  0  0  0  0  0  0  0  0  0  0  0
    0.5377    0.8462    2.5411 H   0  0  0  0  0  0  0  0  0  0  0  0
   -0.3318    2.7934    2.7378 C   0  0  0  0  0  0  0  0  0  0  0  0
   -1.2461    2.8753    3.3353 H   0  0  0  0  0  0  0  0  0  0  0  0
    0.5226    3.0257    3.3811 H   0  0  0  0  0  0  0  0  0  0  0  0
   -0.3701    3.5374    1.9350 H   0  0  0  0  0  0  0  0  0  0  0  0
  1  2  1  0  0  0  0
  2  3  1  0  0  0  0
  2  4  1  0  0  0  0
  2  5  1  0  0  0  0
  5  6  2  0  0  0  0
  5  7  1  0  0  0  0
  7  8  1  0  0  0  0
  7  9  1  0  0  0  0
  9 10  1  0  0  0  0
  9 11  1  0  0  0  0
  9 27  1  0  0  0  0
 11 12  1  0  0  0  0
 11 13  1  0  0  0  0
 11 14  1  0  0  0  0
 14 15  1  0  0  0  0
 14 16  1  0  0  0  0
 14 17  1  0  0  0  0
 17 18  1  0  0  0  0
 17 19  1  0  0  0  0
 17 20  1  0  0  0  0
 20 21  1  0  0  0  0
 20 22  1  0  0  0  0
 20 23  1  0  0  0  0
 23 24  1  0  0  0  0
 23 25  1  0  0  0  0
 23 26  1  0  0  0  0
 27 28  2  0  0  0  0
 27 29  1  0  0  0  0
 29 30  1  0  0  0  0
 29 31  1  0  0  0  0
 31 32  1  0  0  0  0
 31 33  1  0  0  0  0
 31 34  1  0  0  0  0
M  CHG  1  23   1
M  END
$$$$

  -OEChem-02102214153D

 34 33  0     1  0  0  0  0  0999 V2000
   -3.8072   -3.9898    2.2042 H   0  0  0  0  0  0  0  0  0  0  0  0
   -3.8637   -3.0029    1.7360 C   0  0  0  0  0  0  0  0  0  0  0  0
   -4.3436   -2.3119    2.4336 H   0  0  0  0  0  0  0  0  0  0  0  0
   -4.4708   -3.0755    0.8305 H   0  0  0  0  0  0  0  0  0  0  0  0
   -2.4723   -2.5087    1.3909 C   0  0  0  0  0  0  0  0  0  0  0  0
   -1.5096   -3.2512    1.4997 O   0  0  0  0  0  0  0  0  0  0  0  0
   -2.2936   -1.2342    0.8942 N   0  0  0  0  0  0  0  0  0  0  0  0
   -3.1123   -0.6248    0.9049 H   0  0  0  0  0  0  0  0  0  0  0  0
   -0.9871   -0.5536    0.8330 C   0  0  1  0  0  0  0  0  0  0  0  0
   -0.3060   -1.0566    1.5282 H   0  0  0  0  0  0  0  0  0  0  0  0
   -0.3327   -0.5998   -0.5729 C   0  0  0  0  0  0  0  0  0  0  0  0
   -0.4195    0.3895   -1.0364 H   0  0  0  0  0  0  0  0  0  0  0  0
    0.7352   -0.8084   -0.4508 H   0  0  0  0  0  0  0  0  0  0  0  0
   -0.9478   -1.6265   -1.5402 C   0  0  0  0  0  0  0  0  0  0  0  0
   -0.8646   -2.6283   -1.1036 H   0  0  0  0  0  0  0  0  0  0  0  0
   -2.0107   -1.4042   -1.6861 H   0  0  0  0  0  0  0  0  0  0  0  0
   -0.2359   -1.5967   -2.8962 C   0  0  0  0  0  0  0  0  0  0  0  0
   -0.3419   -0.6015   -3.3420 H   0  0  0  0  0  0  0  0  0  0  0  0
    0.8320   -1.7946   -2.7517 H   0  0  0  0  0  0  0  0  0  0  0  0
   -0.8412   -2.6531   -3.8170 C   0  0  0  0  0  0  0  0  0  0  0  0
   -0.7439   -3.6418   -3.3441 H   0  0  0  0  0  0  0  0  0  0  0  0
   -1.9169   -2.4558   -3.9351 H   0  0  0  0  0  0  0  0  0  0  0  0
   -0.1453   -2.6146   -5.1214 N   0  3  0  0  0  0  0  0  0  0  0  0
    0.8491   -2.8115   -4.9916 H   0  0  0  0  0  0  0  0  0  0  0  0
   -0.5424   -3.3142   -5.7523 H   0  0  0  0  0  0  0  0  0  0  0  0
   -0.2478   -1.6898   -5.5442 H   0  0  0  0  0  0  0  0  0  0  0  0
   -1.1224    0.9002    1.3297 C   0  0  0  0  0  0  0  0  0  0  0  0
   -2.0843    1.5628    0.9616 O   0  0  0  0  0  0  0  0  0  0  0  0
   -0.2035    1.4504    2.2042 N   0  0  0  0  0  0  0  0  0  0  0  0
    0.5340    0.8484    2.5607 H   0  0  0  0  0  0  0  0  0  0  0  0
   -0.3423    2.7921    2.7623 C   0  0  0  0  0  0  0  0  0  0  0  0
   -1.2703    2.8746    3.3382 H   0  0  0  0  0  0  0  0  0  0  0  0
    0.4977    3.0159    3.4277 H   0  0  0  0  0  0  0  0  0  0  0  0
   -0.3576    3.5414    1.9635 H   0  0  0  0  0  0  0  0  0  0  0  0
  1  2  1  0  0  0  0
  2  3  1  0  0  0  0
  2  4  1  0  0  0  0
  2  5  1  0  0  0  0
  5  6  2  0  0  0  0
  5  7  1  0  0  0  0
  7  8  1  0  0  0  0
  7  9  1  0  0  0  0
  9 10  1  0  0  0  0
  9 11  1  0  0  0  0
  9 27  1  0  0  0  0
 11 12  1  0  0  0  0
 11 13  1  0  0  0  0
 11 14  1  0  0  0  0
 14 15  1  0  0  0  0
 14 16  1  0  0  0  0
 14 17  1  0  0  0  0
 17 18  1  0  0  0  0
 17 19  1  0  0  0  0
 17 20  1  0  0  0  0
 20 21  1  0  0  0  0
 20 22  1  0  0  0  0
 20 23  1  0  0  0  0
 23 24  1  0  0  0  0
 23 25  1  0  0  0  0
 23 26  1  0  0  0  0
 27 28  2  0  0  0  0
 27 29  1  0  0  0  0
 29 30  1  0  0  0  0
 29 31  1  0  0  0  0
 31 32  1  0  0  0  0
 31 33  1  0  0  0  0
 31 34  1  0  0  0  0
M  CHG  1  23   1
M  END
$$$$

  -OEChem-02102214153D

 34 33  0     1  0  0  0  0  0999 V2000
   -3.8444   -3.9708    2.1951 H   0  0  0  0  0  0  0  0  0  0  0  0
   -3.8865   -2.9822    1.7291 C   0  0  0  0  0  0  0  0  0  0  0  0
   -4.3590   -2.2868    2.4272 H   0  0  0  0  0  0  0  0  0  0  0  0
   -4.4925   -3.0436    0.8222 H   0  0  0  0  0  0  0  0  0  0  0  0
   -2.4880   -2.5050    1.3885 C   0  0  0  0  0  0  0  0  0  0  0  0
   -1.5325   -3.2553    1.5103 O   0  0  0  0  0  0  0  0  0  0  0  0
   -2.2941   -1.2335    0.8888 N   0  0  0  0  0  0  0  0  0  0  0  0
   -3.1088   -0.6182    0.8859 H   0  0  0  0  0  0  0  0  0  0  0  0
   -0.9827   -0.5613    0.8353 C   0  0  1  0  0  0  0  0  0  0  0  0
   -0.3080   -1.0672    1.5348 H   0  0  0  0  0  0  0  0  0  0  0  0
   -0.3226   -0.6037   -0.5684 C   0  0  0  0  0  0  0  0  0  0  0  0
   -0.3862    0.3873   -1.0321 H   0  0  0  0  0  0  0  0  0  0  0  0
    0.7400   -0.8274   -0.4279 H   0  0  0  0  0  0  0  0  0  0  0  0
   -0.9356   -1.6201   -1.5492 C   0  0  0  0  0  0  0  0  0  0  0  0
   -1.0737   -2.5794   -1.0402 H   0  0  0  0  0  0  0  0  0  0  0  0
   -1.9181   -1.2654   -1.8805 H   0  0  0  0  0  0  0  0  0  0  0  0
   -0.0112   -1.8518   -2.7490 C   0  0  0  0  0  0  0  0  0  0  0  0
    0.1260   -0.9096   -3.2911 H   0  0  0  0  0  0  0  0  0  0  0  0
    0.9693   -2.1884   -2.3944 H   0  0  0  0  0  0  0  0  0  0  0  0
   -0.6181   -2.9076   -3.6696 C   0  0  0  0  0  0  0  0  0  0  0  0
   -0.7802   -3.8331   -3.0971 H   0  0  0  0  0  0  0  0  0  0  0  0
   -1.6043   -2.5637   -4.0148 H   0  0  0  0  0  0  0  0  0  0  0  0
    0.2964   -3.1403   -4.8084 N   0  3  0  0  0  0  0  0  0  0  0  0
    1.2042   -3.4607   -4.4656 H   0  0  0  0  0  0  0  0  0  0  0  0
   -0.0921   -3.8514   -5.4318 H   0  0  0  0  0  0  0  0  0  0  0  0
    0.4274   -2.2738   -5.3337 H   0  0  0  0  0  0  0  0  0  0  0  0
   -1.1167    0.8948    1.3266 C   0  0  0  0  0  0  0  0  0  0  0  0
   -2.0766    1.5584    0.9554 O   0  0  0  0  0  0  0  0  0  0  0  0
   -0.2028    1.4436    2.2070 N   0  0  0  0  0  0  0  0  0  0  0  0
    0.5323    0.8413    2.5675 H   0  0  0  0  0  0  0  0  0  0  0  0
   -0.3428    2.7862    2.7626 C   0  0  0  0  0  0  0  0  0  0  0  0
   -1.2722    2.8699    3.3363 H   0  0  0  0  0  0  0  0  0  0  0  0
    0.4953    3.0111    3.4297 H   0  0  0  0  0  0  0  0  0  0  0  0
   -0.3553    3.5338    1.9622 H   0  0  0  0  0  0  0  0  0  0  0  0
  1  2  1  0  0  0  0
  2  3  1  0  0  0  0
  2  4  1  0  0  0  0
  2  5  1  0  0  0  0
  5  6  2  0  0  0  0
  5  7  1  0  0  0  0
  7  8  1  0  0  0  0
  7  9  1  0  0  0  0
  9 10  1  0  0  0  0
  9 11  1  0  0  0  0
  9 27  1  0  0  0  0
 11 12  1  0  0  0  0
 11 13  1  0  0  0  0
 11 14  1  0  0  0  0
 14 15  1  0  0  0  0
 14 16  1  0  0  0  0
 14 17  1  0  0  0  0
 17 18  1  0  0  0  0
 17 19  1  0  0  0  0
 17 20  1  0  0  0  0
 20 21  1  0  0  0  0
 20 22  1  0  0  0  0
 20 23  1  0  0  0  0
 23 24  1  0  0  0  0
 23 25  1  0  0  0  0
 23 26  1  0  0  0  0
 27 28  2  0  0  0  0
 27 29  1  0  0  0  0
 29 30  1  0  0  0  0
 29 31  1  0  0  0  0
 31 32  1  0  0  0  0
 31 33  1  0  0  0  0
 31 34  1  0  0  0  0
M  CHG  1  23   1
M  END
$$$$

  -OEChem-02102214153D

 34 33  0     1  0  0  0  0  0999 V2000
   -3.8812   -3.9674    2.1864 H   0  0  0  0  0  0  0  0  0  0  0  0
   -3.9157   -2.9662    1.7474 C   0  0  0  0  0  0  0  0  0  0  0  0
   -4.3728   -2.2841    2.4684 H   0  0  0  0  0  0  0  0  0  0  0  0
   -4.5316   -2.9962    0.8456 H   0  0  0  0  0  0  0  0  0  0  0  0
   -2.5151   -2.4960    1.4056 C   0  0  0  0  0  0  0  0  0  0  0  0
   -1.5637   -3.2527    1.5244 O   0  0  0  0  0  0  0  0  0  0  0  0
   -2.3136   -1.2281    0.8992 N   0  0  0  0  0  0  0  0  0  0  0  0
   -3.1243   -0.6073    0.8918 H   0  0  0  0  0  0  0  0  0  0  0  0
   -0.9978   -0.5655    0.8380 C   0  0  1  0  0  0  0  0  0  0  0  0
   -0.3284   -1.0719    1.5421 H   0  0  0  0  0  0  0  0  0  0  0  0
   -0.3259   -0.6118   -0.5610 C   0  0  0  0  0  0  0  0  0  0  0  0
   -0.3736    0.3804   -1.0242 H   0  0  0  0  0  0  0  0  0  0  0  0
    0.7336   -0.8356   -0.3984 H   0  0  0  0  0  0  0  0  0  0  0  0
   -0.9188   -1.6219   -1.5660 C   0  0  0  0  0  0  0  0  0  0  0  0
   -1.3004   -2.4997   -1.0381 H   0  0  0  0  0  0  0  0  0  0  0  0
   -1.7568   -1.1600   -2.1001 H   0  0  0  0  0  0  0  0  0  0  0  0
    0.1523   -2.1228   -2.5410 C   0  0  0  0  0  0  0  0  0  0  0  0
    0.5476   -1.2778   -3.1156 H   0  0  0  0  0  0  0  0  0  0  0  0
    0.9778   -2.5690   -1.9752 H   0  0  0  0  0  0  0  0  0  0  0  0
   -0.4523   -3.1652   -3.4782 C   0  0  0  0  0  0  0  0  0  0  0  0
   -0.8880   -3.9775   -2.8773 H   0  0  0  0  0  0  0  0  0  0  0  0
   -1.2742   -2.7079   -4.0486 H   0  0  0  0  0  0  0  0  0  0  0  0
    0.6034   -3.6783   -4.3775 N   0  3  0  0  0  0  0  0  0  0  0  0
    1.3530   -4.1018   -3.8267 H   0  0  0  0  0  0  0  0  0  0  0  0
    0.2157   -4.3840   -5.0075 H   0  0  0  0  0  0  0  0  0  0  0  0
    0.9911   -2.9135   -4.9332 H   0  0  0  0  0  0  0  0  0  0  0  0
   -1.1225    0.8930    1.3235 C   0  0  0  0  0  0  0  0  0  0  0  0
   -2.0844    1.5583    0.9609 O   0  0  0  0  0  0  0  0  0  0  0  0
   -0.2014    1.4378    2.1986 N   0  0  0  0  0  0  0  0  0  0  0  0
    0.5415    0.8365    2.5441 H   0  0  0  0  0  0  0  0  0  0  0  0
   -0.3341    2.7794    2.7575 C   0  0  0  0  0  0  0  0  0  0  0  0
   -1.2569    2.8623    3.3418 H   0  0  0  0  0  0  0  0  0  0  0  0
    0.5119    3.0027    3.4149 H   0  0  0  0  0  0  0  0  0  0  0  0
   -0.3556    3.5283    1.9585 H   0  0  0  0  0  0  0  0  0  0  0  0
  1  2  1  0  0  0  0
  2  3  1  0  0  0  0
  2  4  1  0  0  0  0
  2  5  1  0  0  0  0
  5  6  2  0  0  0  0
  5  7  1  0  0  0  0
  7  8  1  0  0  0  0
  7  9  1  0  0  0  0
  9 10  1  0  0  0  0
  9 11  1  0  0  0  0
  9 27  1  0  0  0  0
 11 12  1  0  0  0  0
 11 13  1  0  0  0  0
 11 14  1  0  0  0  0
 14 15  1  0  0  0  0
 14 16  1  0  0  0  0
 14 17  1  0  0  0  0
 17 18  1  0  0  0  0
 17 19  1  0  0  0  0
 17 20  1  0  0  0  0
 20 21  1  0  0  0  0
 20 22  1  0  0  0  0
 20 23  1  0  0  0  0
 23 24  1  0  0  0  0
 23 25  1  0  0  0  0
 23 26  1  0  0  0  0
 27 28  2  0  0  0  0
 27 29  1  0  0  0  0
 29 30  1  0  0  0  0
 29 31  1  0  0  0  0
 31 32  1  0  0  0  0
 31 33  1  0  0  0  0
 31 34  1  0  0  0  0
M  CHG  1  23   1
M  END
$$$$

  -OEChem-02102214153D

 34 33  0     1  0  0  0  0  0999 V2000
   -3.8981   -3.9576    2.1861 H   0  0  0  0  0  0  0  0  0  0  0  0
   -3.9336   -2.9448    1.7747 C   0  0  0  0  0  0  0  0  0  0  0  0
   -4.3522   -2.2754    2.5304 H   0  0  0  0  0  0  0  0  0  0  0  0
   -4.5841   -2.9420    0.8970 H   0  0  0  0  0  0  0  0  0  0  0  0
   -2.5396   -2.4865    1.3915 C   0  0  0  0  0  0  0  0  0  0  0  0
   -1.5947   -3.2589    1.4568 O   0  0  0  0  0  0  0  0  0  0  0  0
   -2.3384   -1.2151    0.8939 N   0  0  0  0  0  0  0  0  0  0  0  0
   -3.1433   -0.5868    0.9136 H   0  0  0  0  0  0  0  0  0  0  0  0
   -1.0191   -0.5607    0.8299 C   0  0  1  0  0  0  0  0  0  0  0  0
   -0.3561   -1.0747    1.5343 H   0  0  0  0  0  0  0  0  0  0  0  0
   -0.3319   -0.6116   -0.5634 C   0  0  0  0  0  0  0  0  0  0  0  0
   -0.3839    0.3825   -1.0223 H   0  0  0  0  0  0  0  0  0  0  0  0
    0.7296   -0.8175   -0.3905 H   0  0  0  0  0  0  0  0  0  0  0  0
   -0.8998   -1.6168   -1.5953 C   0  0  0  0  0  0  0  0  0  0  0  0
   -1.5386   -2.3615   -1.1177 H   0  0  0  0  0  0  0  0  0  0  0  0
   -1.5157   -1.0777   -2.3237 H   0  0  0  0  0  0  0  0  0  0  0  0
    0.2289   -2.3810   -2.2971 C   0  0  0  0  0  0  0  0  0  0  0  0
    0.8603   -1.6782   -2.8520 H   0  0  0  0  0  0  0  0  0  0  0  0
    0.8489   -2.8770   -1.5416 H   0  0  0  0  0  0  0  0  0  0  0  0
   -0.3601   -3.4253   -3.2422 C   0  0  0  0  0  0  0  0  0  0  0  0
   -1.0504   -4.0710   -2.6788 H   0  0  0  0  0  0  0  0  0  0  0  0
   -0.9506   -2.9196   -4.0203 H   0  0  0  0  0  0  0  0  0  0  0  0
    0.7416   -4.2165   -3.8309 N   0  3  0  0  0  0  0  0  0  0  0  0
    1.2641   -4.6879   -3.0894 H   0  0  0  0  0  0  0  0  0  0  0  0
    0.3666   -4.9202   -4.4706 H   0  0  0  0  0  0  0  0  0  0  0  0
    1.3762   -3.6032   -4.3455 H   0  0  0  0  0  0  0  0  0  0  0  0
   -1.1326    0.8948    1.3286 C   0  0  0  0  0  0  0  0  0  0  0  0
   -2.0980    1.5649    0.9855 O   0  0  0  0  0  0  0  0  0  0  0  0
   -0.2041    1.4289    2.2028 N   0  0  0  0  0  0  0  0  0  0  0  0
    0.5333    0.8196    2.5455 H   0  0  0  0  0  0  0  0  0  0  0  0
   -0.3264    2.7681    2.7709 C   0  0  0  0  0  0  0  0  0  0  0  0
   -1.2406    2.8496    3.3690 H   0  0  0  0  0  0  0  0  0  0  0  0
    0.5295    2.9862    3.4174 H   0  0  0  0  0  0  0  0  0  0  0  0
   -0.3576    3.5217    1.9764 H   0  0  0  0  0  0  0  0  0  0  0  0
  1  2  1  0  0  0  0
  2  3  1  0  0  0  0
  2  4  1  0  0  0  0
  2  5  1  0  0  0  0
  5  6  2  0  0  0  0
  5  7  1  0  0  0  0
  7  8  1  0  0  0  0
  7  9  1  0  0  0  0
  9 10  1  0  0  0  0
  9 11  1  0  0  0  0
  9 27  1  0  0  0  0
 11 12  1  0  0  0  0
 11 13  1  0  0  0  0
 11 14  1  0  0  0  0
 14 15  1  0  0  0  0
 14 16  1  0  0  0  0
 14 17  1  0  0  0  0
 17 18  1  0  0  0  0
 17 19  1  0  0  0  0
 17 20  1  0  0  0  0
 20 21  1  0  0  0  0
 20 22  1  0  0  0  0
 20 23  1  0  0  0  0
 23 24  1  0  0  0  0
 23 25  1  0  0  0  0
 23 26  1  0  0  0  0
 27 28  2  0  0  0  0
 27 29  1  0  0  0  0
 29 30  1  0  0  0  0
 29 31  1  0  0  0  0
 31 32  1  0  0  0  0
 31 33  1  0  0  0  0
 31 34  1  0  0  0  0
M  CHG  1  23   1
M  END
$$$$

  -OEChem-02102214153D

 34 33  0     1  0  0  0  0  0999 V2000
   -3.8713   -3.9804    2.1105 H   0  0  0  0  0  0  0  0  0  0  0  0
   -3.9140   -2.9501    1.7464 C   0  0  0  0  0  0  0  0  0  0  0  0
   -4.2920   -2.3112    2.5488 H   0  0  0  0  0  0  0  0  0  0  0  0
   -4.6025   -2.9023    0.8993 H   0  0  0  0  0  0  0  0  0  0  0  0
   -2.5340   -2.4861    1.3220 C   0  0  0  0  0  0  0  0  0  0  0  0
   -1.5937   -3.2686    1.3054 O   0  0  0  0  0  0  0  0  0  0  0  0
   -2.3478   -1.2009    0.8564 N   0  0  0  0  0  0  0  0  0  0  0  0
   -3.1514   -0.5736    0.9231 H   0  0  0  0  0  0  0  0  0  0  0  0
   -1.0323   -0.5403    0.8002 C   0  0  1  0  0  0  0  0  0  0  0  0
   -0.3743   -1.0665    1.5004 H   0  0  0  0  0  0  0  0  0  0  0  0
   -0.3265   -0.5823   -0.5835 C   0  0  0  0  0  0  0  0  0  0  0  0
   -0.4140    0.4131   -1.0343 H   0  0  0  0  0  0  0  0  0  0  0  0
    0.7427   -0.7480   -0.4158 H   0  0  0  0  0  0  0  0  0  0  0  0
   -0.8699   -1.5871   -1.6314 C   0  0  0  0  0  0  0  0  0  0  0  0
   -1.7382   -2.1417   -1.2739 H   0  0  0  0  0  0  0  0  0  0  0  0
   -1.1981   -1.0296   -2.5157 H   0  0  0  0  0  0  0  0  0  0  0  0
    0.2201   -2.5855   -2.0351 C   0  0  0  0  0  0  0  0  0  0  0  0
    1.0350   -2.0628   -2.5478 H   0  0  0  0  0  0  0  0  0  0  0  0
    0.6252   -3.0482   -1.1276 H   0  0  0  0  0  0  0  0  0  0  0  0
   -0.3719   -3.6666   -2.9344 C   0  0  0  0  0  0  0  0  0  0  0  0
   -1.2695   -4.0813   -2.4518 H   0  0  0  0  0  0  0  0  0  0  0  0
   -0.6922   -3.2160   -3.8852 H   0  0  0  0  0  0  0  0  0  0  0  0
    0.6428   -4.7206   -3.1462 N   0  3  0  0  0  0  0  0  0  0  0  0
    0.8936   -5.1416   -2.2487 H   0  0  0  0  0  0  0  0  0  0  0  0
    0.2723   -5.4479   -3.7612 H   0  0  0  0  0  0  0  0  0  0  0  0
    1.4808   -4.3195   -3.5706 H   0  0  0  0  0  0  0  0  0  0  0  0
   -1.1423    0.9020    1.3364 C   0  0  0  0  0  0  0  0  0  0  0  0
   -2.1222    1.5710    1.0353 O   0  0  0  0  0  0  0  0  0  0  0  0
   -0.2078    1.4166    2.2160 N   0  0  0  0  0  0  0  0  0  0  0  0
    0.5537    0.8129    2.5133 H   0  0  0  0  0  0  0  0  0  0  0  0
   -0.3284    2.7417    2.8167 C   0  0  0  0  0  0  0  0  0  0  0  0
   -1.2373    2.8071    3.4244 H   0  0  0  0  0  0  0  0  0  0  0  0
    0.5326    2.9477    3.4600 H   0  0  0  0  0  0  0  0  0  0  0  0
   -0.3702    3.5131    2.0402 H   0  0  0  0  0  0  0  0  0  0  0  0
  1  2  1  0  0  0  0
  2  3  1  0  0  0  0
  2  4  1  0  0  0  0
  2  5  1  0  0  0  0
  5  6  2  0  0  0  0
  5  7  1  0  0  0  0
  7  8  1  0  0  0  0
  7  9  1  0  0  0  0
  9 10  1  0  0  0  0
  9 11  1  0  0  0  0
  9 27  1  0  0  0  0
 11 12  1  0  0  0  0
 11 13  1  0  0  0  0
 11 14  1  0  0  0  0
 14 15  1  0  0  0  0
 14 16  1  0  0  0  0
 14 17  1  0  0  0  0
 17 18  1  0  0  0  0
 17 19  1  0  0  0  0
 17 20  1  0  0  0  0
 20 21  1  0  0  0  0
 20 22  1  0  0  0  0
 20 23  1  0  0  0  0
 23 24  1  0  0  0  0
 23 25  1  0  0  0  0
 23 26  1  0  0  0  0
 27 28  2  0  0  0  0
 27 29  1  0  0  0  0
 29 30  1  0  0  0  0
 29 31  1  0  0  0  0
 31 32  1  0  0  0  0
 31 33  1  0  0  0  0
 31 34  1  0  0  0  0
M  CHG  1  23   1
M  END
$$$$

  -OEChem-02102214153D

 34 33  0     1  0  0  0  0  0999 V2000
   -3.4044   -4.3695    1.8509 H   0  0  0  0  0  0  0  0  0  0  0  0
   -3.5129   -3.2984    1.6588 C   0  0  0  0  0  0  0  0  0  0  0  0
   -3.7530   -2.7983    2.6010 H   0  0  0  0  0  0  0  0  0  0  0  0
   -4.3377   -3.1457    0.9580 H   0  0  0  0  0  0  0  0  0  0  0  0
   -2.2284   -2.7296    1.0874 C   0  0  0  0  0  0  0  0  0  0  0  0
   -1.2969   -3.4709    0.7952 O   0  0  0  0  0  0  0  0  0  0  0  0
   -2.1607   -1.4031    0.7302 N   0  0  0  0  0  0  0  0  0  0  0  0
   -2.9948   -0.8499    0.9440 H   0  0  0  0  0  0  0  0  0  0  0  0
   -0.9207   -0.6061    0.6673 C   0  0  1  0  0  0  0  0  0  0  0  0
   -0.1854   -1.1207    1.2953 H   0  0  0  0  0  0  0  0  0  0  0  0
   -0.2671   -0.4628   -0.7349 C   0  0  0  0  0  0  0  0  0  0  0  0
   -0.5083    0.5432   -1.0981 H   0  0  0  0  0  0  0  0  0  0  0  0
    0.8226   -0.4923   -0.6300 H   0  0  0  0  0  0  0  0  0  0  0  0
   -0.7358   -1.4337   -1.8432 C   0  0  0  0  0  0  0  0  0  0  0  0
   -1.7015   -1.8879   -1.6128 H   0  0  0  0  0  0  0  0  0  0  0  0
   -0.8778   -0.8705   -2.7724 H   0  0  0  0  0  0  0  0  0  0  0  0
    0.3406   -2.5086   -2.0859 C   0  0  0  0  0  0  0  0  0  0  0  0
    1.1057   -2.0886   -2.7484 H   0  0  0  0  0  0  0  0  0  0  0  0
    0.8389   -2.7756   -1.1466 H   0  0  0  0  0  0  0  0  0  0  0  0
   -0.2460   -3.7641   -2.7278 C   0  0  0  0  0  0  0  0  0  0  0  0
   -1.0755   -3.4808   -3.3917 H   0  0  0  0  0  0  0  0  0  0  0  0
    0.5197   -4.2449   -3.3537 H   0  0  0  0  0  0  0  0  0  0  0  0
   -0.6866   -4.6779   -1.6518 N   0  3  0  0  0  0  0  0  0  0  0  0
   -0.9645   -4.1324   -0.8205 H   0  0  0  0  0  0  0  0  0  0  0  0
   -1.4789   -5.2420   -1.9572 H   0  0  0  0  0  0  0  0  0  0  0  0
    0.0782   -5.2942   -1.3766 H   0  0  0  0  0  0  0  0  0  0  0  0
   -1.1485    0.7693    1.3306 C   0  0  0  0  0  0  0  0  0  0  0  0
   -2.2311    1.3188    1.1774 O   0  0  0  0  0  0  0  0  0  0  0  0
   -0.2262    1.3113    2.2065 N   0  0  0  0  0  0  0  0  0  0  0  0
    0.6515    0.8195    2.3488 H   0  0  0  0  0  0  0  0  0  0  0  0
   -0.4461    2.5703    2.9127 C   0  0  0  0  0  0  0  0  0  0  0  0
   -1.3319    2.5031    3.5536 H   0  0  0  0  0  0  0  0  0  0  0  0
    0.4166    2.8089    3.5426 H   0  0  0  0  0  0  0  0  0  0  0  0
   -0.5896    3.3902    2.2006 H   0  0  0  0  0  0  0  0  0  0  0  0
  1  2  1  0  0  0  0
  2  3  1  0  0  0  0
  2  4  1  0  0  0  0
  2  5  1  0  0  0  0
  5  6  2  0  0  0  0
  5  7  1  0  0  0  0
  7  8  1  0  0  0  0
  7  9  1  0  0  0  0
  9 10  1  0  0  0  0
  9 11  1  0  0  0  0
  9 27  1  0  0  0  0
 11 12  1  0  0  0  0
 11 13  1  0  0  0  0
 11 14  1  0  0  0  0
 14 15  1  0  0  0  0
 14 16  1  0  0  0  0
 14 17  1  0  0  0  0
 17 18  1  0  0  0  0
 17 19  1  0  0  0  0
 17 20  1  0  0  0  0
 20 21  1  0  0  0  0
 20 22  1  0  0  0  0
 20 23  1  0  0  0  0
 23 24  1  0  0  0  0
 23 25  1  0  0  0  0
 23 26  1  0  0  0  0
 27 28  2  0  0  0  0
 27 29  1  0  0  0  0
 29 30  1  0  0  0  0
 29 31  1  0  0  0  0
 31 32  1  0  0  0  0
 31 33  1  0  0  0  0
 31 34  1  0  0  0  0
M  CHG  1  23   1
M  END
$$$$

  -OEChem-02102214153D

 34 33  0     1  0  0  0  0  0999 V2000
   -3.6783   -4.2437    1.7595 H   0  0  0  0  0  0  0  0  0  0  0  0
   -3.7197   -3.1875    1.4794 C   0  0  0  0  0  0  0  0  0  0  0  0
   -4.1003   -2.6168    2.3308 H   0  0  0  0  0  0  0  0  0  0  0  0
   -4.4091   -3.0702    0.6395 H   0  0  0  0  0  0  0  0  0  0  0  0
   -2.3406   -2.6849    1.0976 C   0  0  0  0  0  0  0  0  0  0  0  0
   -1.4049   -3.4727    1.0128 O   0  0  0  0  0  0  0  0  0  0  0  0
   -2.1788   -1.3682    0.7286 N   0  0  0  0  0  0  0  0  0  0  0  0
   -3.0103   -0.7797    0.8256 H   0  0  0  0  0  0  0  0  0  0  0  0
   -0.9106   -0.6133    0.7076 C   0  0  1  0  0  0  0  0  0  0  0  0
   -0.2089   -1.1442    1.3595 H   0  0  0  0  0  0  0  0  0  0  0  0
   -0.2238   -0.4826   -0.6823 C   0  0  0  0  0  0  0  0  0  0  0  0
   -0.4205    0.5320   -1.0485 H   0  0  0  0  0  0  0  0  0  0  0  0
    0.8623   -0.5610   -0.5652 H   0  0  0  0  0  0  0  0  0  0  0  0
   -0.7171   -1.4333   -1.7918 C   0  0  0  0  0  0  0  0  0  0  0  0
   -1.7889   -1.6287   -1.6983 H   0  0  0  0  0  0  0  0  0  0  0  0
   -0.5742   -0.9537   -2.7667 H   0  0  0  0  0  0  0  0  0  0  0  0
    0.1116   -2.7300   -1.7597 C   0  0  0  0  0  0  0  0  0  0  0  0
    0.9965   -2.6112   -2.3944 H   0  0  0  0  0  0  0  0  0  0  0  0
    0.4754   -2.9000   -0.7406 H   0  0  0  0  0  0  0  0  0  0  0  0
   -0.7024   -3.9356   -2.2337 C   0  0  0  0  0  0  0  0  0  0  0  0
   -1.7487   -3.6348   -2.3843 H   0  0  0  0  0  0  0  0  0  0  0  0
   -0.3211   -4.2786   -3.2064 H   0  0  0  0  0  0  0  0  0  0  0  0
   -0.6076   -4.9916   -1.2033 N   0  3  0  0  0  0  0  0  0  0  0  0
   -0.8631   -4.5888   -0.2862 H   0  0  0  0  0  0  0  0  0  0  0  0
   -1.2418   -5.7616   -1.4142 H   0  0  0  0  0  0  0  0  0  0  0  0
    0.3471   -5.3447   -1.1445 H   0  0  0  0  0  0  0  0  0  0  0  0
   -1.1262    0.7775    1.3412 C   0  0  0  0  0  0  0  0  0  0  0  0
   -2.1778    1.3639    1.1214 O   0  0  0  0  0  0  0  0  0  0  0  0
   -0.2266    1.3033    2.2498 N   0  0  0  0  0  0  0  0  0  0  0  0
    0.6228    0.7811    2.4451 H   0  0  0  0  0  0  0  0  0  0  0  0
   -0.4313    2.5841    2.9198 C   0  0  0  0  0  0  0  0  0  0  0  0
   -1.3484    2.5628    3.5182 H   0  0  0  0  0  0  0  0  0  0  0  0
    0.4094    2.8039    3.5855 H   0  0  0  0  0  0  0  0  0  0  0  0
   -0.5100    3.3931    2.1856 H   0  0  0  0  0  0  0  0  0  0  0  0
  1  2  1  0  0  0  0
  2  3  1  0  0  0  0
  2  4  1  0  0  0  0
  2  5  1  0  0  0  0
  5  6  2  0  0  0  0
  5  7  1  0  0  0  0
  7  8  1  0  0  0  0
  7  9  1  0  0  0  0
  9 10  1  0  0  0  0
  9 11  1  0  0  0  0
  9 27  1  0  0  0  0
 11 12  1  0  0  0  0
 11 13  1  0  0  0  0
 11 14  1  0  0  0  0
 14 15  1  0  0  0  0
 14 16  1  0  0  0  0
 14 17  1  0  0  0  0
 17 18  1  0  0  0  0
 17 19  1  0  0  0  0
 17 20  1  0  0  0  0
 20 21  1  0  0  0  0
 20 22  1  0  0  0  0
 20 23  1  0  0  0  0
 23 24  1  0  0  0  0
 23 25  1  0  0  0  0
 23 26  1  0  0  0  0
 27 28  2  0  0  0  0
 27 29  1  0  0  0  0
 29 30  1  0  0  0  0
 29 31  1  0  0  0  0
 31 32  1  0  0  0  0
 31 33  1  0  0  0  0
 31 34  1  0  0  0  0
M  CHG  1  23   1
M  END
$$$$

  -OEChem-02102214153D

 34 33  0     1  0  0  0  0  0999 V2000
   -3.8834   -4.1192    1.8064 H   0  0  0  0  0  0  0  0  0  0  0  0
   -3.8468   -3.0904    1.4376 C   0  0  0  0  0  0  0  0  0  0  0  0
   -4.2939   -2.4366    2.1915 H   0  0  0  0  0  0  0  0  0  0  0  0
   -4.4339   -3.0212    0.5184 H   0  0  0  0  0  0  0  0  0  0  0  0
   -2.4130   -2.6693    1.1773 C   0  0  0  0  0  0  0  0  0  0  0  0
   -1.5136   -3.4939    1.2856 O   0  0  0  0  0  0  0  0  0  0  0  0
   -2.1621   -1.3830    0.7516 N   0  0  0  0  0  0  0  0  0  0  0  0
   -2.9782   -0.7658    0.7298 H   0  0  0  0  0  0  0  0  0  0  0  0
   -0.8743   -0.6586    0.7752 C   0  0  1  0  0  0  0  0  0  0  0  0
   -0.2123   -1.1694    1.4824 H   0  0  0  0  0  0  0  0  0  0  0  0
   -0.1262   -0.5510   -0.5896 C   0  0  0  0  0  0  0  0  0  0  0  0
   -0.2583    0.4688   -0.9701 H   0  0  0  0  0  0  0  0  0  0  0  0
    0.9477   -0.6794   -0.4171 H   0  0  0  0  0  0  0  0  0  0  0  0
   -0.5789   -1.4855   -1.7268 C   0  0  0  0  0  0  0  0  0  0  0  0
   -1.6698   -1.4515   -1.8154 H   0  0  0  0  0  0  0  0  0  0  0  0
   -0.1703   -1.1263   -2.6781 H   0  0  0  0  0  0  0  0  0  0  0  0
   -0.0766   -2.9179   -1.4752 C   0  0  0  0  0  0  0  0  0  0  0  0
    0.8252   -3.0955   -2.0711 H   0  0  0  0  0  0  0  0  0  0  0  0
    0.2234   -3.0134   -0.4277 H   0  0  0  0  0  0  0  0  0  0  0  0
   -1.1288   -3.9699   -1.8206 C   0  0  0  0  0  0  0  0  0  0  0  0
   -2.1309   -3.5449   -1.6692 H   0  0  0  0  0  0  0  0  0  0  0  0
   -1.0470   -4.2485   -2.8812 H   0  0  0  0  0  0  0  0  0  0  0  0
   -0.9186   -5.1202   -0.9175 N   0  3  0  0  0  0  0  0  0  0  0  0
   -1.0183   -4.7920    0.0579 H   0  0  0  0  0  0  0  0  0  0  0  0
   -1.6082   -5.8505   -1.0938 H   0  0  0  0  0  0  0  0  0  0  0  0
    0.0196   -5.5010   -1.0391 H   0  0  0  0  0  0  0  0  0  0  0  0
   -1.1244    0.7661    1.3176 C   0  0  0  0  0  0  0  0  0  0  0  0
   -2.1520    1.3455    0.9890 O   0  0  0  0  0  0  0  0  0  0  0  0
   -0.2903    1.3350    2.2618 N   0  0  0  0  0  0  0  0  0  0  0  0
    0.5369    0.8189    2.5480 H   0  0  0  0  0  0  0  0  0  0  0  0
   -0.5408    2.6434    2.8593 C   0  0  0  0  0  0  0  0  0  0  0  0
   -1.5053    2.6514    3.3786 H   0  0  0  0  0  0  0  0  0  0  0  0
    0.2420    2.8865    3.5847 H   0  0  0  0  0  0  0  0  0  0  0  0
   -0.5505    3.4221    2.0890 H   0  0  0  0  0  0  0  0  0  0  0  0
  1  2  1  0  0  0  0
  2  3  1  0  0  0  0
  2  4  1  0  0  0  0
  2  5  1  0  0  0  0
  5  6  2  0  0  0  0
  5  7  1  0  0  0  0
  7  8  1  0  0  0  0
  7  9  1  0  0  0  0
  9 10  1  0  0  0  0
  9 11  1  0  0  0  0
  9 27  1  0  0  0  0
 11 12  1  0  0  0  0
 11 13  1  0  0  0  0
 11 14  1  0  0  0  0
 14 15  1  0  0  0  0
 14 16  1  0  0  0  0
 14 17  1  0  0  0  0
 17 18  1  0  0  0  0
 17 19  1  0  0  0  0
 17 20  1  0  0  0  0
 20 21  1  0  0  0  0
 20 22  1  0  0  0  0
 20 23  1  0  0  0  0
 23 24  1  0  0  0  0
 23 25  1  0  0  0  0
 23 26  1  0  0  0  0
 27 28  2  0  0  0  0
 27 29  1  0  0  0  0
 29 30  1  0  0  0  0
 29 31  1  0  0  0  0
 31 32  1  0  0  0  0
 31 33  1  0  0  0  0
 31 34  1  0  0  0  0
M  CHG  1  23   1
M  END
$$$$

  -OEChem-02102214153D

 34 33  0     1  0  0  0  0  0999 V2000
   -4.0438   -4.0005    1.9731 H   0  0  0  0  0  0  0  0  0  0  0  0
   -3.9496   -2.9977    1.5472 C   0  0  0  0  0  0  0  0  0  0  0  0
   -4.3970   -2.2827    2.2434 H   0  0  0  0  0  0  0  0  0  0  0  0
   -4.4977   -2.9594    0.6025 H   0  0  0  0  0  0  0  0  0  0  0  0
   -2.4903   -2.6497    1.3229 C   0  0  0  0  0  0  0  0  0  0  0  0
   -1.6324   -3.4966    1.5328 O   0  0  0  0  0  0  0  0  0  0  0  0
   -2.1766   -1.4069    0.8184 N   0  0  0  0  0  0  0  0  0  0  0  0
   -2.9714   -0.7686    0.7226 H   0  0  0  0  0  0  0  0  0  0  0  0
   -0.8750   -0.7087    0.8634 C   0  0  1  0  0  0  0  0  0  0  0  0
   -0.2599   -1.1778    1.6391 H   0  0  0  0  0  0  0  0  0  0  0  0
   -0.0388   -0.6539   -0.4578 C   0  0  0  0  0  0  0  0  0  0  0  0
   -0.0981    0.3632   -0.8639 H   0  0  0  0  0  0  0  0  0  0  0  0
    1.0104   -0.8139   -0.1872 H   0  0  0  0  0  0  0  0  0  0  0  0
   -0.3706   -1.5862   -1.6404 C   0  0  0  0  0  0  0  0  0  0  0  0
   -1.3848   -1.3590   -1.9869 H   0  0  0  0  0  0  0  0  0  0  0  0
    0.3095   -1.3605   -2.4696 H   0  0  0  0  0  0  0  0  0  0  0  0
   -0.2516   -3.0758   -1.2837 C   0  0  0  0  0  0  0  0  0  0  0  0
    0.5680   -3.5094   -1.8668 H   0  0  0  0  0  0  0  0  0  0  0  0
    0.0413   -3.1686   -0.2352 H   0  0  0  0  0  0  0  0  0  0  0  0
   -1.5222   -3.8700   -1.5703 C   0  0  0  0  0  0  0  0  0  0  0  0
   -2.3979   -3.2677   -1.2915 H   0  0  0  0  0  0  0  0  0  0  0  0
   -1.5976   -4.0831   -2.6463 H   0  0  0  0  0  0  0  0  0  0  0  0
   -1.4523   -5.1020   -0.7573 N   0  3  0  0  0  0  0  0  0  0  0  0
   -1.4042   -4.8335    0.2397 H   0  0  0  0  0  0  0  0  0  0  0  0
   -2.2767   -5.6835   -0.9065 H   0  0  0  0  0  0  0  0  0  0  0  0
   -0.6142   -5.6340   -0.9918 H   0  0  0  0  0  0  0  0  0  0  0  0
   -1.1537    0.7527    1.2848 C   0  0  0  0  0  0  0  0  0  0  0  0
   -2.1575    1.3067    0.8527 O   0  0  0  0  0  0  0  0  0  0  0  0
   -0.3794    1.3884    2.2371 N   0  0  0  0  0  0  0  0  0  0  0  0
    0.4222    0.8923    2.6167 H   0  0  0  0  0  0  0  0  0  0  0  0
   -0.6675    2.7330    2.7280 C   0  0  0  0  0  0  0  0  0  0  0  0
   -1.6584    2.7685    3.1934 H   0  0  0  0  0  0  0  0  0  0  0  0
    0.0742    3.0322    3.4751 H   0  0  0  0  0  0  0  0  0  0  0  0
   -0.6397    3.4564    1.9061 H   0  0  0  0  0  0  0  0  0  0  0  0
  1  2  1  0  0  0  0
  2  3  1  0  0  0  0
  2  4  1  0  0  0  0
  2  5  1  0  0  0  0
  5  6  2  0  0  0  0
  5  7  1  0  0  0  0
  7  8  1  0  0  0  0
  7  9  1  0  0  0  0
  9 10  1  0  0  0  0
  9 11  1  0  0  0  0
  9 27  1  0  0  0  0
 11 12  1  0  0  0  0
 11 13  1  0  0  0  0
 11 14  1  0  0  0  0
 14 15  1  0  0  0  0
 14 16  1  0  0  0  0
 14 17  1  0  0  0  0
 17 18  1  0  0  0  0
 17 19  1  0  0  0  0
 17 20  1  0  0  0  0
 20 21  1  0  0  0  0
 20 22  1  0  0  0  0
 20 23  1  0  0  0  0
 23 24  1  0  0  0  0
 23 25  1  0  0  0  0
 23 26  1  0  0  0  0
 27 28  2  0  0  0  0
 27 29  1  0  0  0  0
 29 30  1  0  0  0  0
 29 31  1  0  0  0  0
 31 32  1  0  0  0  0
 31 33  1  0  0  0  0
 31 34  1  0  0  0  0
M  CHG  1  23   1
M  END
$$$$

  -OEChem-02102214153D

 34 33  0     1  0  0  0  0  0999 V2000
   -4.0231   -3.9446    2.3820 H   0  0  0  0  0  0  0  0  0  0  0  0
   -3.9542   -2.9688    1.8928 C   0  0  0  0  0  0  0  0  0  0  0  0
   -4.3258   -2.2090    2.5861 H   0  0  0  0  0  0  0  0  0  0  0  0
   -4.5866   -2.9710    1.0018 H   0  0  0  0  0  0  0  0  0  0  0  0
   -2.5159   -2.6624    1.5198 C   0  0  0  0  0  0  0  0  0  0  0  0
   -1.6655   -3.5296    1.6562 O   0  0  0  0  0  0  0  0  0  0  0  0
   -2.2245   -1.4492    0.9353 N   0  0  0  0  0  0  0  0  0  0  0  0
   -3.0182   -0.8042    0.8733 H   0  0  0  0  0  0  0  0  0  0  0  0
   -0.9229   -0.7498    0.9289 C   0  0  1  0  0  0  0  0  0  0  0  0
   -0.3120   -1.1705    1.7353 H   0  0  0  0  0  0  0  0  0  0  0  0
   -0.0513   -0.7312   -0.3744 C   0  0  0  0  0  0  0  0  0  0  0  0
   -0.0786    0.2814   -0.7945 H   0  0  0  0  0  0  0  0  0  0  0  0
    0.9797   -0.8907   -0.0409 H   0  0  0  0  0  0  0  0  0  0  0  0
   -0.2626   -1.6680   -1.5870 C   0  0  0  0  0  0  0  0  0  0  0  0
   -1.1165   -1.2954   -2.1636 H   0  0  0  0  0  0  0  0  0  0  0  0
    0.6175   -1.5772   -2.2336 H   0  0  0  0  0  0  0  0  0  0  0  0
   -0.4832   -3.1499   -1.2710 C   0  0  0  0  0  0  0  0  0  0  0  0
   -0.1342   -3.3421   -0.2535 H   0  0  0  0  0  0  0  0  0  0  0  0
    0.1611   -3.7391   -1.9326 H   0  0  0  0  0  0  0  0  0  0  0  0
   -1.9158   -3.6252   -1.4791 C   0  0  0  0  0  0  0  0  0  0  0  0
   -2.6118   -2.8801   -1.0707 H   0  0  0  0  0  0  0  0  0  0  0  0
   -2.1282   -3.7170   -2.5541 H   0  0  0  0  0  0  0  0  0  0  0  0
   -2.0337   -4.9178   -0.7720 N   0  3  0  0  0  0  0  0  0  0  0  0
   -1.8095   -4.7672    0.2252 H   0  0  0  0  0  0  0  0  0  0  0  0
   -2.9796   -5.2904   -0.8505 H   0  0  0  0  0  0  0  0  0  0  0  0
   -1.3708   -5.5918   -1.1557 H   0  0  0  0  0  0  0  0  0  0  0  0
   -1.2203    0.7300    1.2702 C   0  0  0  0  0  0  0  0  0  0  0  0
   -2.2407    1.2423    0.8248 O   0  0  0  0  0  0  0  0  0  0  0  0
   -0.4495    1.4275    2.1811 N   0  0  0  0  0  0  0  0  0  0  0  0
    0.3716    0.9700    2.5681 H   0  0  0  0  0  0  0  0  0  0  0  0
   -0.7513    2.7943    2.5974 C   0  0  0  0  0  0  0  0  0  0  0  0
   -1.7283    2.8394    3.0906 H   0  0  0  0  0  0  0  0  0  0  0  0
    0.0064    3.1542    3.3005 H   0  0  0  0  0  0  0  0  0  0  0  0
   -0.7636    3.4658    1.7321 H   0  0  0  0  0  0  0  0  0  0  0  0
  1  2  1  0  0  0  0
  2  3  1  0  0  0  0
  2  4  1  0  0  0  0
  2  5  1  0  0  0  0
  5  6  2  0  0  0  0
  5  7  1  0  0  0  0
  7  8  1  0  0  0  0
  7  9  1  0  0  0  0
  9 10  1  0  0  0  0
  9 11  1  0  0  0  0
  9 27  1  0  0  0  0
 11 12  1  0  0  0  0
 11 13  1  0  0  0  0
 11 14  1  0  0  0  0
 14 15  1  0  0  0  0
 14 16  1  0  0  0  0
 14 17  1  0  0  0  0
 17 18  1  0  0  0  0
 17 19  1  0  0  0  0
 17 20  1  0  0  0  0
 20 21  1  0  0  0  0
 20 22  1  0  0  0  0
 20 23  1  0  0  0  0
 23 24  1  0  0  0  0
 23 25  1  0  0  0  0
 23 26  1  0  0  0  0
 27 28  2  0  0  0  0
 27 29  1  0  0  0  0
 29 30  1  0  0  0  0
 29 31  1  0  0  0  0
 31 32  1  0  0  0  0
 31 33  1  0  0  0  0
 31 34  1  0  0  0  0
M  CHG  1  23   1
M  END
$$$$

  -OEChem-02102214153D

 34 33  0     1  0  0  0  0  0999 V2000
   -3.8677   -3.9579    2.7641 H   0  0  0  0  0  0  0  0  0  0  0  0
   -3.8379   -2.9573    2.3230 C   0  0  0  0  0  0  0  0  0  0  0  0
   -4.0246   -2.2263    3.1146 H   0  0  0  0  0  0  0  0  0  0  0  0
   -4.6292   -2.8743    1.5742 H   0  0  0  0  0  0  0  0  0  0  0  0
   -2.4831   -2.6948    1.6928 C   0  0  0  0  0  0  0  0  0  0  0  0
   -1.6690   -3.6017    1.6282 O   0  0  0  0  0  0  0  0  0  0  0  0
   -2.2626   -1.4867    1.0677 N   0  0  0  0  0  0  0  0  0  0  0  0
   -3.0506   -0.8348    1.1323 H   0  0  0  0  0  0  0  0  0  0  0  0
   -0.9727   -0.7771    0.9432 C   0  0  1  0  0  0  0  0  0  0  0  0
   -0.3107   -1.1794    1.7184 H   0  0  0  0  0  0  0  0  0  0  0  0
   -0.1546   -0.7638   -0.3975 C   0  0  0  0  0  0  0  0  0  0  0  0
   -0.2049    0.2489   -0.8151 H   0  0  0  0  0  0  0  0  0  0  0  0
    0.8861   -0.9037   -0.0849 H   0  0  0  0  0  0  0  0  0  0  0  0
   -0.3403   -1.6952   -1.6243 C   0  0  0  0  0  0  0  0  0  0  0  0
   -1.0269   -1.2005   -2.3204 H   0  0  0  0  0  0  0  0  0  0  0  0
    0.6288   -1.7520   -2.1333 H   0  0  0  0  0  0  0  0  0  0  0  0
   -0.8427   -3.1212   -1.4086 C   0  0  0  0  0  0  0  0  0  0  0  0
   -0.4359   -3.4782   -0.4601 H   0  0  0  0  0  0  0  0  0  0  0  0
   -0.4039   -3.7528   -2.1885 H   0  0  0  0  0  0  0  0  0  0  0  0
   -2.3530   -3.2935   -1.4868 C   0  0  0  0  0  0  0  0  0  0  0  0
   -2.8506   -2.4745   -0.9519 H   0  0  0  0  0  0  0  0  0  0  0  0
   -2.6832   -3.2460   -2.5345 H   0  0  0  0  0  0  0  0  0  0  0  0
   -2.6395   -4.6042   -0.8667 N   0  3  0  0  0  0  0  0  0  0  0  0
   -3.6437   -4.7758   -0.8269 H   0  0  0  0  0  0  0  0  0  0  0  0
   -2.1889   -5.3500   -1.3973 H   0  0  0  0  0  0  0  0  0  0  0  0
   -2.2540   -4.6043    0.0912 H   0  0  0  0  0  0  0  0  0  0  0  0
   -1.2604    0.7036    1.2889 C   0  0  0  0  0  0  0  0  0  0  0  0
   -2.3266    1.1932    0.9346 O   0  0  0  0  0  0  0  0  0  0  0  0
   -0.4245    1.4203    2.1240 N   0  0  0  0  0  0  0  0  0  0  0  0
    0.4354    0.9790    2.4394 H   0  0  0  0  0  0  0  0  0  0  0  0
   -0.7048    2.7884    2.5497 C   0  0  0  0  0  0  0  0  0  0  0  0
   -1.6432    2.8316    3.1130 H   0  0  0  0  0  0  0  0  0  0  0  0
    0.0998    3.1587    3.1928 H   0  0  0  0  0  0  0  0  0  0  0  0
   -0.7850    3.4526    1.6823 H   0  0  0  0  0  0  0  0  0  0  0  0
  1  2  1  0  0  0  0
  2  3  1  0  0  0  0
  2  4  1  0  0  0  0
  2  5  1  0  0  0  0
  5  6  2  0  0  0  0
  5  7  1  0  0  0  0
  7  8  1  0  0  0  0
  7  9  1  0  0  0  0
  9 10  1  0  0  0  0
  9 11  1  0  0  0  0
  9 27  1  0  0  0  0
 11 12  1  0  0  0  0
 11 13  1  0  0  0  0
 11 14  1  0  0  0  0
 14 15  1  0  0  0  0
 14 16  1  0  0  0  0
 14 17  1  0  0  0  0
 17 18  1  0  0  0  0
 17 19  1  0  0  0  0
 17 20  1  0  0  0  0
 20 21  1  0  0  0  0
 20 22  1  0  0  0  0
 20 23  1  0  0  0  0
 23 24  1  0  0  0  0
 23 25  1  0  0  0  0
 23 26  1  0  0  0  0
 27 28  2  0  0  0  0
 27 29  1  0  0  0  0
 29 30  1  0  0  0  0
 29 31  1  0  0  0  0
 31 32  1  0  0  0  0
 31 33  1  0  0  0  0
 31 34  1  0  0  0  0
M  CHG  1  23   1
M  END
$$$$

  -OEChem-02102214153D

 34 33  0     1  0  0  0  0  0999 V2000
   -4.1890   -3.5283    3.0030 H   0  0  0  0  0  0  0  0  0  0  0  0
   -4.1084   -2.5214    2.5838 C   0  0  0  0  0  0  0  0  0  0  0  0
   -4.3451   -1.7970    3.3677 H   0  0  0  0  0  0  0  0  0  0  0  0
   -4.8332   -2.4151    1.7735 H   0  0  0  0  0  0  0  0  0  0  0  0
   -2.7037   -2.2772    2.0665 C   0  0  0  0  0  0  0  0  0  0  0  0
   -1.8361   -3.1179    2.2393 O   0  0  0  0  0  0  0  0  0  0  0  0
   -2.4273   -1.1167    1.3735 N   0  0  0  0  0  0  0  0  0  0  0  0
   -3.1770   -0.4222    1.3501 H   0  0  0  0  0  0  0  0  0  0  0  0
   -1.0801   -0.5714    1.1298 C   0  0  1  0  0  0  0  0  0  0  0  0
   -0.4018   -1.0217    1.8629 H   0  0  0  0  0  0  0  0  0  0  0  0
   -0.4237   -0.7484   -0.2830 C   0  0  0  0  0  0  0  0  0  0  0  0
   -0.4012    0.2336   -0.7706 H   0  0  0  0  0  0  0  0  0  0  0  0
    0.6223   -1.0036   -0.0826 H   0  0  0  0  0  0  0  0  0  0  0  0
   -0.9039   -1.7344   -1.3851 C   0  0  0  0  0  0  0  0  0  0  0  0
   -1.3930   -1.1387   -2.1642 H   0  0  0  0  0  0  0  0  0  0  0  0
   -0.0080   -2.1745   -1.8374 H   0  0  0  0  0  0  0  0  0  0  0  0
   -1.8669   -2.8609   -1.0132 C   0  0  0  0  0  0  0  0  0  0  0  0
   -1.4454   -3.4007   -0.1630 H   0  0  0  0  0  0  0  0  0  0  0  0
   -2.8449   -2.4521   -0.7449 H   0  0  0  0  0  0  0  0  0  0  0  0
   -2.0293   -3.8387   -2.1716 C   0  0  0  0  0  0  0  0  0  0  0  0
   -2.5456   -3.3417   -3.0059 H   0  0  0  0  0  0  0  0  0  0  0  0
   -1.0349   -4.1368   -2.5349 H   0  0  0  0  0  0  0  0  0  0  0  0
   -2.7848   -5.0103   -1.6786 N   0  3  0  0  0  0  0  0  0  0  0  0
   -3.7363   -4.7337   -1.4322 H   0  0  0  0  0  0  0  0  0  0  0  0
   -2.8229   -5.7358   -2.3971 H   0  0  0  0  0  0  0  0  0  0  0  0
   -2.3262   -5.3893   -0.8460 H   0  0  0  0  0  0  0  0  0  0  0  0
   -1.1369    0.9443    1.4270 C   0  0  0  0  0  0  0  0  0  0  0  0
   -2.1219    1.5821    1.0737 O   0  0  0  0  0  0  0  0  0  0  0  0
   -0.1471    1.5653    2.1656 N   0  0  0  0  0  0  0  0  0  0  0  0
    0.6262    0.9978    2.5021 H   0  0  0  0  0  0  0  0  0  0  0  0
   -0.2003    2.9734    2.5462 C   0  0  0  0  0  0  0  0  0  0  0  0
   -1.0671    3.1665    3.1874 H   0  0  0  0  0  0  0  0  0  0  0  0
    0.7042    3.2523    3.0959 H   0  0  0  0  0  0  0  0  0  0  0  0
   -0.2720    3.6099    1.6577 H   0  0  0  0  0  0  0  0  0  0  0  0
  1  2  1  0  0  0  0
  2  3  1  0  0  0  0
  2  4  1  0  0  0  0
  2  5  1  0  0  0  0
  5  6  2  0  0  0  0
  5  7  1  0  0  0  0
  7  8  1  0  0  0  0
  7  9  1  0  0  0  0
  9 10  1  0  0  0  0
  9 11  1  0  0  0  0
  9 27  1  0  0  0  0
 11 12  1  0  0  0  0
 11 13  1  0  0  0  0
 11 14  1  0  0  0  0
 14 15  1  0  0  0  0
 14 16  1  0  0  0  0
 14 17  1  0  0  0  0
 17 18  1  0  0  0  0
 17 19  1  0  0  0  0
 17 20  1  0  0  0  0
 20 21  1  0  0  0  0
 20 22  1  0  0  0  0
 20 23  1  0  0  0  0
 23 24  1  0  0  0  0
 23 25  1  0  0  0  0
 23 26  1  0  0  0  0
 27 28  2  0  0  0  0
 27 29  1  0  0  0  0
 29 30  1  0  0  0  0
 29 31  1  0  0  0  0
 31 32  1  0  0  0  0
 31 33  1  0  0  0  0
 31 34  1  0  0  0  0
M  CHG  1  23   1
M  END
$$$$

  -OEChem-02102214153D

 34 33  0     1  0  0  0  0  0999 V2000
   -4.0314   -3.5716    3.1606 H   0  0  0  0  0  0  0  0  0  0  0  0
   -4.0007   -2.5681    2.7264 C   0  0  0  0  0  0  0  0  0  0  0  0
   -4.1973   -1.8396    3.5174 H   0  0  0  0  0  0  0  0  0  0  0  0
   -4.7815   -2.4868    1.9670 H   0  0  0  0  0  0  0  0  0  0  0  0
   -2.6391   -2.3028    2.1127 C   0  0  0  0  0  0  0  0  0  0  0  0
   -1.7540   -3.1373    2.2069 O   0  0  0  0  0  0  0  0  0  0  0  0
   -2.4166   -1.1302    1.4204 N   0  0  0  0  0  0  0  0  0  0  0  0
   -3.1676   -0.4381    1.4623 H   0  0  0  0  0  0  0  0  0  0  0  0
   -1.0824   -0.5696    1.1427 C   0  0  1  0  0  0  0  0  0  0  0  0
   -0.3816   -1.0169    1.8566 H   0  0  0  0  0  0  0  0  0  0  0  0
   -0.4508   -0.7382   -0.2817 C   0  0  0  0  0  0  0  0  0  0  0  0
   -0.4834    0.2453   -0.7655 H   0  0  0  0  0  0  0  0  0  0  0  0
    0.6111   -0.9493   -0.1160 H   0  0  0  0  0  0  0  0  0  0  0  0
   -0.9346   -1.7288   -1.3801 C   0  0  0  0  0  0  0  0  0  0  0  0
   -1.1692   -1.1340   -2.2703 H   0  0  0  0  0  0  0  0  0  0  0  0
   -0.0775   -2.3604   -1.6398 H   0  0  0  0  0  0  0  0  0  0  0  0
   -2.1248   -2.6516   -1.1169 C   0  0  0  0  0  0  0  0  0  0  0  0
   -1.8863   -3.2963   -0.2699 H   0  0  0  0  0  0  0  0  0  0  0  0
   -3.0177   -2.0610   -0.8903 H   0  0  0  0  0  0  0  0  0  0  0  0
   -2.3876   -3.5303   -2.3356 C   0  0  0  0  0  0  0  0  0  0  0  0
   -2.7085   -2.9013   -3.1789 H   0  0  0  0  0  0  0  0  0  0  0  0
   -1.4501   -4.0222   -2.6339 H   0  0  0  0  0  0  0  0  0  0  0  0
   -3.4173   -4.5299   -1.9809 N   0  3  0  0  0  0  0  0  0  0  0  0
   -4.2941   -4.0603   -1.7497 H   0  0  0  0  0  0  0  0  0  0  0  0
   -3.5760   -5.1667   -2.7644 H   0  0  0  0  0  0  0  0  0  0  0  0
   -3.1070   -5.0707   -1.1699 H   0  0  0  0  0  0  0  0  0  0  0  0
   -1.1456    0.9427    1.4555 C   0  0  0  0  0  0  0  0  0  0  0  0
   -2.1498    1.5712    1.1406 O   0  0  0  0  0  0  0  0  0  0  0  0
   -0.1421    1.5691    2.1706 N   0  0  0  0  0  0  0  0  0  0  0  0
    0.6521    1.0105    2.4725 H   0  0  0  0  0  0  0  0  0  0  0  0
   -0.2000    2.9744    2.5610 C   0  0  0  0  0  0  0  0  0  0  0  0
   -1.0544    3.1552    3.2221 H   0  0  0  0  0  0  0  0  0  0  0  0
    0.7135    3.2590    3.0923 H   0  0  0  0  0  0  0  0  0  0  0  0
   -0.2976    3.6148    1.6778 H   0  0  0  0  0  0  0  0  0  0  0  0
  1  2  1  0  0  0  0
  2  3  1  0  0  0  0
  2  4  1  0  0  0  0
  2  5  1  0  0  0  0
  5  6  2  0  0  0  0
  5  7  1  0  0  0  0
  7  8  1  0  0  0  0
  7  9  1  0  0  0  0
  9 10  1  0  0  0  0
  9 11  1  0  0  0  0
  9 27  1  0  0  0  0
 11 12  1  0  0  0  0
 11 13  1  0  0  0  0
 11 14  1  0  0  0  0
 14 15  1  0  0  0  0
 14 16  1  0  0  0  0
 14 17  1  0  0  0  0
 17 18  1  0  0  0  0
 17 19  1  0  0  0  0
 17 20  1  0  0  0  0
 20 21  1  0  0  0  0
 20 22  1  0  0  0  0
 20 23  1  0  0  0  0
 23 24  1  0  0  0  0
 23 25  1  0  0  0  0
 23 26  1  0  0  0  0
 27 28  2  0  0  0  0
 27 29  1  0  0  0  0
 29 30  1  0  0  0  0
 29 31  1  0  0  0  0
 31 32  1  0  0  0  0
 31 33  1  0  0  0  0
 31 34  1  0  0  0  0
M  CHG  1  23   1
M  END
$$$$

  -OEChem-02102214153D

 34 33  0     1  0  0  0  0  0999 V2000
   -4.4144   -3.5163    2.6084 H   0  0  0  0  0  0  0  0  0  0  0  0
   -4.2639   -2.4704    2.3266 C   0  0  0  0  0  0  0  0  0  0  0  0
   -4.2358   -1.8678    3.2390 H   0  0  0  0  0  0  0  0  0  0  0  0
   -5.1070   -2.1422    1.7136 H   0  0  0  0  0  0  0  0  0  0  0  0
   -2.9627   -2.3071    1.5641 C   0  0  0  0  0  0  0  0  0  0  0  0
   -2.3229   -3.2952    1.2369 O   0  0  0  0  0  0  0  0  0  0  0  0
   -2.6093   -1.0659    1.0918 N   0  0  0  0  0  0  0  0  0  0  0  0
   -3.2584   -0.3144    1.3420 H   0  0  0  0  0  0  0  0  0  0  0  0
   -1.2347   -0.5771    0.8876 C   0  0  1  0  0  0  0  0  0  0  0  0
   -0.5950   -1.2018    1.5211 H   0  0  0  0  0  0  0  0  0  0  0  0
   -0.5613   -0.5769   -0.5275 C   0  0  0  0  0  0  0  0  0  0  0  0
   -0.5598    0.4718   -0.8489 H   0  0  0  0  0  0  0  0  0  0  0  0
    0.4905   -0.8382   -0.3693 H   0  0  0  0  0  0  0  0  0  0  0  0
   -1.0245   -1.3430   -1.8019 C   0  0  0  0  0  0  0  0  0  0  0  0
   -0.9280   -0.6342   -2.6329 H   0  0  0  0  0  0  0  0  0  0  0  0
   -0.2756   -2.1189   -1.9975 H   0  0  0  0  0  0  0  0  0  0  0  0
   -2.4248   -1.9664   -1.9298 C   0  0  0  0  0  0  0  0  0  0  0  0
   -2.8337   -1.7339   -2.9192 H   0  0  0  0  0  0  0  0  0  0  0  0
   -3.1229   -1.5469   -1.2088 H   0  0  0  0  0  0  0  0  0  0  0  0
   -2.2829   -3.4897   -1.8143 C   0  0  0  0  0  0  0  0  0  0  0  0
   -2.0854   -3.9078   -2.8117 H   0  0  0  0  0  0  0  0  0  0  0  0
   -1.4058   -3.7149   -1.1890 H   0  0  0  0  0  0  0  0  0  0  0  0
   -3.4761   -4.0934   -1.1989 N   0  3  0  0  0  0  0  0  0  0  0  0
   -4.3183   -3.5997   -1.4916 H   0  0  0  0  0  0  0  0  0  0  0  0
   -3.5477   -5.0790   -1.4533 H   0  0  0  0  0  0  0  0  0  0  0  0
   -3.3691   -4.0226   -0.1772 H   0  0  0  0  0  0  0  0  0  0  0  0
   -1.1658    0.8560    1.4655 C   0  0  0  0  0  0  0  0  0  0  0  0
   -2.1429    1.5851    1.3457 O   0  0  0  0  0  0  0  0  0  0  0  0
   -0.1072    1.2611    2.2567 N   0  0  0  0  0  0  0  0  0  0  0  0
    0.6779    0.6263    2.3729 H   0  0  0  0  0  0  0  0  0  0  0  0
   -0.0519    2.5687    2.9039 C   0  0  0  0  0  0  0  0  0  0  0  0
   -0.8998    2.6971    3.5852 H   0  0  0  0  0  0  0  0  0  0  0  0
    0.8717    2.6676    3.4830 H   0  0  0  0  0  0  0  0  0  0  0  0
   -0.0779    3.3690    2.1566 H   0  0  0  0  0  0  0  0  0  0  0  0
  1  2  1  0  0  0  0
  2  3  1  0  0  0  0
  2  4  1  0  0  0  0
  2  5  1  0  0  0  0
  5  6  2  0  0  0  0
  5  7  1  0  0  0  0
  7  8  1  0  0  0  0
  7  9  1  0  0  0  0
  9 10  1  0  0  0  0
  9 11  1  0  0  0  0
  9 27  1  0  0  0  0
 11 12  1  0  0  0  0
 11 13  1  0  0  0  0
 11 14  1  0  0  0  0
 14 15  1  0  0  0  0
 14 16  1  0  0  0  0
 14 17  1  0  0  0  0
 17 18  1  0  0  0  0
 17 19  1  0  0  0  0
 17 20  1  0  0  0  0
 20 21  1  0  0  0  0
 20 22  1  0  0  0  0
 20 23  1  0  0  0  0
 23 24  1  0  0  0  0
 23 25  1  0  0  0  0
 23 26  1  0  0  0  0
 27 28  2  0  0  0  0
 27 29  1  0  0  0  0
 29 30  1  0  0  0  0
 29 31  1  0  0  0  0
 31 32  1  0  0  0  0
 31 33  1  0  0  0  0
 31 34  1  0  0  0  0
M  CHG  1  23   1
M  END
$$$$

  -OEChem-02102214153D

 34 33  0     1  0  0  0  0  0999 V2000
   -3.6226   -3.7931    3.2198 H   0  0  0  0  0  0  0  0  0  0  0  0
   -3.7337   -2.8019    2.7702 C   0  0  0  0  0  0  0  0  0  0  0  0
   -3.9163   -2.0761    3.5670 H   0  0  0  0  0  0  0  0  0  0  0  0
   -4.5920   -2.8134    2.0952 H   0  0  0  0  0  0  0  0  0  0  0  0
   -2.4750   -2.4292    2.0110 C   0  0  0  0  0  0  0  0  0  0  0  0
   -1.5721   -3.2387    1.8821 O   0  0  0  0  0  0  0  0  0  0  0  0
   -2.3797   -1.2018    1.3880 N   0  0  0  0  0  0  0  0  0  0  0  0
   -3.1353   -0.5443    1.5877 H   0  0  0  0  0  0  0  0  0  0  0  0
   -1.0884   -0.5690    1.0716 C   0  0  1  0  0  0  0  0  0  0  0  0
   -0.3369   -1.0269    1.7248 H   0  0  0  0  0  0  0  0  0  0  0  0
   -0.5259   -0.6794   -0.3803 C   0  0  0  0  0  0  0  0  0  0  0  0
   -0.6733    0.3048   -0.8400 H   0  0  0  0  0  0  0  0  0  0  0  0
    0.5575   -0.8191   -0.3018 H   0  0  0  0  0  0  0  0  0  0  0  0
   -1.0480   -1.6813   -1.4430 C   0  0  0  0  0  0  0  0  0  0  0  0
   -0.8304   -1.2481   -2.4258 H   0  0  0  0  0  0  0  0  0  0  0  0
   -0.4429   -2.5906   -1.3535 H   0  0  0  0  0  0  0  0  0  0  0  0
   -2.5178   -2.1169   -1.4044 C   0  0  0  0  0  0  0  0  0  0  0  0
   -2.6692   -2.8315   -0.5929 H   0  0  0  0  0  0  0  0  0  0  0  0
   -3.1572   -1.2430   -1.2372 H   0  0  0  0  0  0  0  0  0  0  0  0
   -2.8871   -2.7894   -2.7236 C   0  0  0  0  0  0  0  0  0  0  0  0
   -2.7647   -2.0679   -3.5445 H   0  0  0  0  0  0  0  0  0  0  0  0
   -2.1895   -3.6187   -2.9123 H   0  0  0  0  0  0  0  0  0  0  0  0
   -4.2801   -3.2763   -2.6426 N   0  3  0  0  0  0  0  0  0  0  0  0
   -4.9109   -2.4949   -2.4544 H   0  0  0  0  0  0  0  0  0  0  0  0
   -4.5500   -3.7180   -3.5240 H   0  0  0  0  0  0  0  0  0  0  0  0
   -4.3637   -3.9610   -1.8885 H   0  0  0  0  0  0  0  0  0  0  0  0
   -1.1654    0.9182    1.4792 C   0  0  0  0  0  0  0  0  0  0  0  0
   -2.2026    1.5348    1.2637 O   0  0  0  0  0  0  0  0  0  0  0  0
   -0.1336    1.5286    2.1671 N   0  0  0  0  0  0  0  0  0  0  0  0
    0.6967    0.9786    2.3719 H   0  0  0  0  0  0  0  0  0  0  0  0
   -0.1842    2.9158    2.6179 C   0  0  0  0  0  0  0  0  0  0  0  0
   -1.0263    3.0686    3.3012 H   0  0  0  0  0  0  0  0  0  0  0  0
    0.7386    3.1769    3.1455 H   0  0  0  0  0  0  0  0  0  0  0  0
   -0.2967    3.5929    1.7644 H   0  0  0  0  0  0  0  0  0  0  0  0
  1  2  1  0  0  0  0
  2  3  1  0  0  0  0
  2  4  1  0  0  0  0
  2  5  1  0  0  0  0
  5  6  2  0  0  0  0
  5  7  1  0  0  0  0
  7  8  1  0  0  0  0
  7  9  1  0  0  0  0
  9 10  1  0  0  0  0
  9 11  1  0  0  0  0
  9 27  1  0  0  0  0
 11 12  1  0  0  0  0
 11 13  1  0  0  0  0
 11 14  1  0  0  0  0
 14 15  1  0  0  0  0
 14 16  1  0  0  0  0
 14 17  1  0  0  0  0
 17 18  1  0  0  0  0
 17 19  1  0  0  0  0
 17 20  1  0  0  0  0
 20 21  1  0  0  0  0
 20 22  1  0  0  0  0
 20 23  1  0  0  0  0
 23 24  1  0  0  0  0
 23 25  1  0  0  0  0
 23 26  1  0  0  0  0
 27 28  2  0  0  0  0
 27 29  1  0  0  0  0
 29 30  1  0  0  0  0
 29 31  1  0  0  0  0
 31 32  1  0  0  0  0
 31 33  1  0  0  0  0
 31 34  1  0  0  0  0
M  CHG  1  23   1
M  END
$$$$

  -OEChem-02102214153D

 34 33  0     1  0  0  0  0  0999 V2000
   -3.5712   -3.8847    3.0858 H   0  0  0  0  0  0  0  0  0  0  0  0
   -3.7015   -2.8949    2.6386 C   0  0  0  0  0  0  0  0  0  0  0  0
   -3.9227   -2.1796    3.4347 H   0  0  0  0  0  0  0  0  0  0  0  0
   -4.5441   -2.9287    1.9449 H   0  0  0  0  0  0  0  0  0  0  0  0
   -2.4375   -2.4824    1.9089 C   0  0  0  0  0  0  0  0  0  0  0  0
   -1.5120   -3.2668    1.7891 O   0  0  0  0  0  0  0  0  0  0  0  0
   -2.3558   -1.2436    1.3067 N   0  0  0  0  0  0  0  0  0  0  0  0
   -3.1240   -0.6028    1.5101 H   0  0  0  0  0  0  0  0  0  0  0  0
   -1.0699   -0.5875    1.0194 C   0  0  1  0  0  0  0  0  0  0  0  0
   -0.3181   -1.0429    1.6741 H   0  0  0  0  0  0  0  0  0  0  0  0
   -0.5062   -0.6917   -0.4290 C   0  0  0  0  0  0  0  0  0  0  0  0
   -0.6474    0.2885   -0.8984 H   0  0  0  0  0  0  0  0  0  0  0  0
    0.5757   -0.8442   -0.3522 H   0  0  0  0  0  0  0  0  0  0  0  0
   -1.0519   -1.7154   -1.4536 C   0  0  0  0  0  0  0  0  0  0  0  0
   -0.6398   -1.4398   -2.4307 H   0  0  0  0  0  0  0  0  0  0  0  0
   -0.6438   -2.6998   -1.1967 H   0  0  0  0  0  0  0  0  0  0  0  0
   -2.5777   -1.8555   -1.5679 C   0  0  0  0  0  0  0  0  0  0  0  0
   -2.9540   -2.5151   -0.7823 H   0  0  0  0  0  0  0  0  0  0  0  0
   -3.0424   -0.8697   -1.4544 H   0  0  0  0  0  0  0  0  0  0  0  0
   -2.9437   -2.4498   -2.9248 C   0  0  0  0  0  0  0  0  0  0  0  0
   -2.5502   -1.8018   -3.7215 H   0  0  0  0  0  0  0  0  0  0  0  0
   -2.4570   -3.4303   -3.0331 H   0  0  0  0  0  0  0  0  0  0  0  0
   -4.4146   -2.5690   -3.0136 N   0  3  0  0  0  0  0  0  0  0  0  0
   -4.8460   -1.6530   -2.8744 H   0  0  0  0  0  0  0  0  0  0  0  0
   -4.6841   -2.9277   -3.9321 H   0  0  0  0  0  0  0  0  0  0  0  0
   -4.7550   -3.2091   -2.2938 H   0  0  0  0  0  0  0  0  0  0  0  0
   -1.1673    0.8924    1.4448 C   0  0  0  0  0  0  0  0  0  0  0  0
   -2.2059    1.5012    1.2132 O   0  0  0  0  0  0  0  0  0  0  0  0
   -0.1533    1.5067    2.1550 N   0  0  0  0  0  0  0  0  0  0  0  0
    0.6695    0.9563    2.3877 H   0  0  0  0  0  0  0  0  0  0  0  0
   -0.2394    2.8792    2.6438 C   0  0  0  0  0  0  0  0  0  0  0  0
   -1.0485    2.9767    3.3755 H   0  0  0  0  0  0  0  0  0  0  0  0
    0.6992    3.1697    3.1262 H   0  0  0  0  0  0  0  0  0  0  0  0
   -0.4287    3.5715    1.8164 H   0  0  0  0  0  0  0  0  0  0  0  0
  1  2  1  0  0  0  0
  2  3  1  0  0  0  0
  2  4  1  0  0  0  0
  2  5  1  0  0  0  0
  5  6  2  0  0  0  0
  5  7  1  0  0  0  0
  7  8  1  0  0  0  0
  7  9  1  0  0  0  0
  9 10  1  0  0  0  0
  9 11  1  0  0  0  0
  9 27  1  0  0  0  0
 11 12  1  0  0  0  0
 11 13  1  0  0  0  0
 11 14  1  0  0  0  0
 14 15  1  0  0  0  0
 14 16  1  0  0  0  0
 14 17  1  0  0  0  0
 17 18  1  0  0  0  0
 17 19  1  0  0  0  0
 17 20  1  0  0  0  0
 20 21  1  0  0  0  0
 20 22  1  0  0  0  0
 20 23  1  0  0  0  0
 23 24  1  0  0  0  0
 23 25  1  0  0  0  0
 23 26  1  0  0  0  0
 27 28  2  0  0  0  0
 27 29  1  0  0  0  0
 29 30  1  0  0  0  0
 29 31  1  0  0  0  0
 31 32  1  0  0  0  0
 31 33  1  0  0  0  0
 31 34  1  0  0  0  0
M  CHG  1  23   1
M  END
$$$$

  -OEChem-02102214153D

 34 33  0     1  0  0  0  0  0999 V2000
   -3.6398   -3.9985    2.7539 H   0  0  0  0  0  0  0  0  0  0  0  0
   -3.7259   -2.9578    2.4280 C   0  0  0  0  0  0  0  0  0  0  0  0
   -3.9467   -2.3352    3.2987 H   0  0  0  0  0  0  0  0  0  0  0  0
   -4.5491   -2.8791    1.7148 H   0  0  0  0  0  0  0  0  0  0  0  0
   -2.4297   -2.5046    1.7842 C   0  0  0  0  0  0  0  0  0  0  0  0
   -1.4822   -3.2676    1.7060 O   0  0  0  0  0  0  0  0  0  0  0  0
   -2.3392   -1.2509    1.2153 N   0  0  0  0  0  0  0  0  0  0  0  0
   -3.1238   -0.6240    1.3979 H   0  0  0  0  0  0  0  0  0  0  0  0
   -1.0537   -0.5774    0.9725 C   0  0  1  0  0  0  0  0  0  0  0  0
   -0.3071   -1.0437    1.6257 H   0  0  0  0  0  0  0  0  0  0  0  0
   -0.4903   -0.6607   -0.4736 C   0  0  0  0  0  0  0  0  0  0  0  0
   -0.6077    0.3235   -0.9409 H   0  0  0  0  0  0  0  0  0  0  0  0
    0.5871   -0.8422   -0.3953 H   0  0  0  0  0  0  0  0  0  0  0  0
   -1.0692   -1.6892   -1.4711 C   0  0  0  0  0  0  0  0  0  0  0  0
   -0.5000   -1.5886   -2.4018 H   0  0  0  0  0  0  0  0  0  0  0  0
   -0.8829   -2.6973   -1.0826 H   0  0  0  0  0  0  0  0  0  0  0  0
   -2.5698   -1.5456   -1.7832 C   0  0  0  0  0  0  0  0  0  0  0  0
   -3.1738   -1.9875   -0.9883 H   0  0  0  0  0  0  0  0  0  0  0  0
   -2.8230   -0.4824   -1.8588 H   0  0  0  0  0  0  0  0  0  0  0  0
   -2.8935   -2.2545   -3.0956 C   0  0  0  0  0  0  0  0  0  0  0  0
   -2.2650   -1.8377   -3.8961 H   0  0  0  0  0  0  0  0  0  0  0  0
   -2.6371   -3.3203   -3.0025 H   0  0  0  0  0  0  0  0  0  0  0  0
   -4.3292   -2.0728   -3.3994 N   0  3  0  0  0  0  0  0  0  0  0  0
   -4.5449   -1.0767   -3.4765 H   0  0  0  0  0  0  0  0  0  0  0  0
   -4.5631   -2.5330   -4.2816 H   0  0  0  0  0  0  0  0  0  0  0  0
   -4.8968   -2.4775   -2.6529 H   0  0  0  0  0  0  0  0  0  0  0  0
   -1.1613    0.8922    1.4278 C   0  0  0  0  0  0  0  0  0  0  0  0
   -2.1909    1.5083    1.1756 O   0  0  0  0  0  0  0  0  0  0  0  0
   -0.1631    1.4929    2.1715 N   0  0  0  0  0  0  0  0  0  0  0  0
    0.6535    0.9371    2.4132 H   0  0  0  0  0  0  0  0  0  0  0  0
   -0.2620    2.8545    2.6882 C   0  0  0  0  0  0  0  0  0  0  0  0
   -1.1003    2.9404    3.3879 H   0  0  0  0  0  0  0  0  0  0  0  0
    0.6571    3.1278    3.2162 H   0  0  0  0  0  0  0  0  0  0  0  0
   -0.4131    3.5668    1.8700 H   0  0  0  0  0  0  0  0  0  0  0  0
  1  2  1  0  0  0  0
  2  3  1  0  0  0  0
  2  4  1  0  0  0  0
  2  5  1  0  0  0  0
  5  6  2  0  0  0  0
  5  7  1  0  0  0  0
  7  8  1  0  0  0  0
  7  9  1  0  0  0  0
  9 10  1  0  0  0  0
  9 11  1  0  0  0  0
  9 27  1  0  0  0  0
 11 12  1  0  0  0  0
 11 13  1  0  0  0  0
 11 14  1  0  0  0  0
 14 15  1  0  0  0  0
 14 16  1  0  0  0  0
 14 17  1  0  0  0  0
 17 18  1  0  0  0  0
 17 19  1  0  0  0  0
 17 20  1  0  0  0  0
 20 21  1  0  0  0  0
 20 22  1  0  0  0  0
 20 23  1  0  0  0  0
 23 24  1  0  0  0  0
 23 25  1  0  0  0  0
 23 26  1  0  0  0  0
 27 28  2  0  0  0  0
 27 29  1  0  0  0  0
 29 30  1  0  0  0  0
 29 31  1  0  0  0  0
 31 32  1  0  0  0  0
 31 33  1  0  0  0  0
 31 34  1  0  0  0  0
M  CHG  1  23   1
M  END
$$$$

  -OEChem-02102214153D

 34 33  0     1  0  0  0  0  0999 V2000
   -3.6510   -4.0713    2.4618 H   0  0  0  0  0  0  0  0  0  0  0  0
   -3.7403   -3.0303    2.1373 C   0  0  0  0  0  0  0  0  0  0  0  0
   -4.0259   -2.4196    2.9975 H   0  0  0  0  0  0  0  0  0  0  0  0
   -4.5211   -2.9642    1.3768 H   0  0  0  0  0  0  0  0  0  0  0  0
   -2.4185   -2.5446    1.5745 C   0  0  0  0  0  0  0  0  0  0  0  0
   -1.4583   -3.2940    1.5287 O   0  0  0  0  0  0  0  0  0  0  0  0
   -2.3109   -1.2694    1.0586 N   0  0  0  0  0  0  0  0  0  0  0  0
   -3.1083   -0.6560    1.2299 H   0  0  0  0  0  0  0  0  0  0  0  0
   -1.0200   -0.5760    0.9012 C   0  0  1  0  0  0  0  0  0  0  0  0
   -0.2917   -1.0636    1.5595 H   0  0  0  0  0  0  0  0  0  0  0  0
   -0.4162   -0.5844   -0.5299 C   0  0  0  0  0  0  0  0  0  0  0  0
   -0.4968    0.4196   -0.9615 H   0  0  0  0  0  0  0  0  0  0  0  0
    0.6537   -0.7960   -0.4293 H   0  0  0  0  0  0  0  0  0  0  0  0
   -0.9999   -1.5797   -1.5507 C   0  0  0  0  0  0  0  0  0  0  0  0
   -0.2986   -1.6552   -2.3890 H   0  0  0  0  0  0  0  0  0  0  0  0
   -1.0630   -2.5724   -1.0914 H   0  0  0  0  0  0  0  0  0  0  0  0
   -2.3751   -1.1585   -2.0958 C   0  0  0  0  0  0  0  0  0  0  0  0
   -3.1107   -1.0781   -1.2928 H   0  0  0  0  0  0  0  0  0  0  0  0
   -2.2843   -0.1716   -2.5624 H   0  0  0  0  0  0  0  0  0  0  0  0
   -2.8516   -2.1808   -3.1228 C   0  0  0  0  0  0  0  0  0  0  0  0
   -2.0830   -2.2977   -3.9008 H   0  0  0  0  0  0  0  0  0  0  0  0
   -2.9667   -3.1587   -2.6320 H   0  0  0  0  0  0  0  0  0  0  0  0
   -4.1298   -1.7159   -3.7034 N   0  3  0  0  0  0  0  0  0  0  0  0
   -3.9921   -0.8181   -4.1720 H   0  0  0  0  0  0  0  0  0  0  0  0
   -4.4764   -2.3962   -4.3832 H   0  0  0  0  0  0  0  0  0  0  0  0
   -4.8256   -1.5992   -2.9646 H   0  0  0  0  0  0  0  0  0  0  0  0
   -1.1658    0.8732    1.4074 C   0  0  0  0  0  0  0  0  0  0  0  0
   -2.1896    1.4883    1.1298 O   0  0  0  0  0  0  0  0  0  0  0  0
   -0.2104    1.4538    2.2196 N   0  0  0  0  0  0  0  0  0  0  0  0
    0.5992    0.8957    2.4792 H   0  0  0  0  0  0  0  0  0  0  0  0
   -0.3443    2.7960    2.7770 C   0  0  0  0  0  0  0  0  0  0  0  0
   -1.2065    2.8477    3.4505 H   0  0  0  0  0  0  0  0  0  0  0  0
    0.5534    3.0623    3.3438 H   0  0  0  0  0  0  0  0  0  0  0  0
   -0.4773    3.5338    1.9783 H   0  0  0  0  0  0  0  0  0  0  0  0
  1  2  1  0  0  0  0
  2  3  1  0  0  0  0
  2  4  1  0  0  0  0
  2  5  1  0  0  0  0
  5  6  2  0  0  0  0
  5  7  1  0  0  0  0
  7  8  1  0  0  0  0
  7  9  1  0  0  0  0
  9 10  1  0  0  0  0
  9 11  1  0  0  0  0
  9 27  1  0  0  0  0
 11 12  1  0  0  0  0
 11 13  1  0  0  0  0
 11 14  1  0  0  0  0
 14 15  1  0  0  0  0
 14 16  1  0  0  0  0
 14 17  1  0  0  0  0
 17 18  1  0  0  0  0
 17 19  1  0  0  0  0
 17 20  1  0  0  0  0
 20 21  1  0  0  0  0
 20 22  1  0  0  0  0
 20 23  1  0  0  0  0
 23 24  1  0  0  0  0
 23 25  1  0  0  0  0
 23 26  1  0  0  0  0
 27 28  2  0  0  0  0
 27 29  1  0  0  0  0
 29 30  1  0  0  0  0
 29 31  1  0  0  0  0
 31 32  1  0  0  0  0
 31 33  1  0  0  0  0
 31 34  1  0  0  0  0
M  CHG  1  23   1
M  END
$$$$

  -OEChem-02102214153D

 34 33  0     1  0  0  0  0  0999 V2000
   -3.6611   -4.0689    2.4034 H   0  0  0  0  0  0  0  0  0  0  0  0
   -3.7599   -3.0675    1.9741 C   0  0  0  0  0  0  0  0  0  0  0  0
   -4.1554   -2.3966    2.7410 H   0  0  0  0  0  0  0  0  0  0  0  0
   -4.4614   -3.1100    1.1382 H   0  0  0  0  0  0  0  0  0  0  0  0
   -2.4088   -2.5705    1.4975 C   0  0  0  0  0  0  0  0  0  0  0  0
   -1.4351   -3.3022    1.5452 O   0  0  0  0  0  0  0  0  0  0  0  0
   -2.2810   -1.3015    0.9694 N   0  0  0  0  0  0  0  0  0  0  0  0
   -3.0946   -0.6944    1.0709 H   0  0  0  0  0  0  0  0  0  0  0  0
   -0.9854   -0.6015    0.8702 C   0  0  1  0  0  0  0  0  0  0  0  0
   -0.2761   -1.0775    1.5569 H   0  0  0  0  0  0  0  0  0  0  0  0
   -0.3485   -0.6085   -0.5461 C   0  0  0  0  0  0  0  0  0  0  0  0
   -0.3941    0.3958   -0.9823 H   0  0  0  0  0  0  0  0  0  0  0  0
    0.7138   -0.8410   -0.4170 H   0  0  0  0  0  0  0  0  0  0  0  0
   -0.9318   -1.6154   -1.5555 C   0  0  0  0  0  0  0  0  0  0  0  0
   -0.1409   -1.8892   -2.2623 H   0  0  0  0  0  0  0  0  0  0  0  0
   -1.2388   -2.5388   -1.0554 H   0  0  0  0  0  0  0  0  0  0  0  0
   -2.0907   -0.9917   -2.3436 C   0  0  0  0  0  0  0  0  0  0  0  0
   -2.8532   -0.6271   -1.6467 H   0  0  0  0  0  0  0  0  0  0  0  0
   -1.7193   -0.1339   -2.9152 H   0  0  0  0  0  0  0  0  0  0  0  0
   -2.7001   -2.0238   -3.2867 C   0  0  0  0  0  0  0  0  0  0  0  0
   -1.9179   -2.4115   -3.9559 H   0  0  0  0  0  0  0  0  0  0  0  0
   -3.0743   -2.8749   -2.6986 H   0  0  0  0  0  0  0  0  0  0  0  0
   -3.7884   -1.3793   -4.0530 N   0  3  0  0  0  0  0  0  0  0  0  0
   -3.4134   -0.6068   -4.6072 H   0  0  0  0  0  0  0  0  0  0  0  0
   -4.2270   -2.0563   -4.6807 H   0  0  0  0  0  0  0  0  0  0  0  0
   -4.4948   -1.0126   -3.4124 H   0  0  0  0  0  0  0  0  0  0  0  0
   -1.1690    0.8524    1.3490 C   0  0  0  0  0  0  0  0  0  0  0  0
   -2.1703    1.4641    0.9916 O   0  0  0  0  0  0  0  0  0  0  0  0
   -0.2623    1.4499    2.2033 N   0  0  0  0  0  0  0  0  0  0  0  0
    0.5229    0.8930    2.5315 H   0  0  0  0  0  0  0  0  0  0  0  0
   -0.4325    2.8010    2.7281 C   0  0  0  0  0  0  0  0  0  0  0  0
   -1.3510    2.8703    3.3208 H   0  0  0  0  0  0  0  0  0  0  0  0
    0.4133    3.0682    3.3695 H   0  0  0  0  0  0  0  0  0  0  0  0
   -0.4866    3.5273    1.9100 H   0  0  0  0  0  0  0  0  0  0  0  0
  1  2  1  0  0  0  0
  2  3  1  0  0  0  0
  2  4  1  0  0  0  0
  2  5  1  0  0  0  0
  5  6  2  0  0  0  0
  5  7  1  0  0  0  0
  7  8  1  0  0  0  0
  7  9  1  0  0  0  0
  9 10  1  0  0  0  0
  9 11  1  0  0  0  0
  9 27  1  0  0  0  0
 11 12  1  0  0  0  0
 11 13  1  0  0  0  0
 11 14  1  0  0  0  0
 14 15  1  0  0  0  0
 14 16  1  0  0  0  0
 14 17  1  0  0  0  0
 17 18  1  0  0  0  0
 17 19  1  0  0  0  0
 17 20  1  0  0  0  0
 20 21  1  0  0  0  0
 20 22  1  0  0  0  0
 20 23  1  0  0  0  0
 23 24  1  0  0  0  0
 23 25  1  0  0  0  0
 23 26  1  0  0  0  0
 27 28  2  0  0  0  0
 27 29  1  0  0  0  0
 29 30  1  0  0  0  0
 29 31  1  0  0  0  0
 31 32  1  0  0  0  0
 31 33  1  0  0  0  0
 31 34  1  0  0  0  0
M  CHG  1  23   1
M  END
$$$$

  -OEChem-02102214153D

 34 33  0     1  0  0  0  0  0999 V2000
   -3.6909   -4.0718    2.3912 H   0  0  0  0  0  0  0  0  0  0  0  0
   -3.7842   -3.0708    1.9600 C   0  0  0  0  0  0  0  0  0  0  0  0
   -4.2004   -2.4019    2.7175 H   0  0  0  0  0  0  0  0  0  0  0  0
   -4.4662   -3.1158    1.1080 H   0  0  0  0  0  0  0  0  0  0  0  0
   -2.4247   -2.5680    1.5139 C   0  0  0  0  0  0  0  0  0  0  0  0
   -1.4474   -3.2937    1.5857 O   0  0  0  0  0  0  0  0  0  0  0  0
   -2.2927   -1.3025    0.9781 N   0  0  0  0  0  0  0  0  0  0  0  0
   -3.1123   -0.6992    1.0502 H   0  0  0  0  0  0  0  0  0  0  0  0
   -0.9974   -0.6038    0.8718 C   0  0  1  0  0  0  0  0  0  0  0  0
   -0.2887   -1.0761    1.5614 H   0  0  0  0  0  0  0  0  0  0  0  0
   -0.3604   -0.6238   -0.5454 C   0  0  0  0  0  0  0  0  0  0  0  0
   -0.4043    0.3806   -0.9817 H   0  0  0  0  0  0  0  0  0  0  0  0
    0.7029   -0.8515   -0.4122 H   0  0  0  0  0  0  0  0  0  0  0  0
   -0.9341   -1.6387   -1.5593 C   0  0  0  0  0  0  0  0  0  0  0  0
   -0.0935   -2.1045   -2.0854 H   0  0  0  0  0  0  0  0  0  0  0  0
   -1.4738   -2.4521   -1.0684 H   0  0  0  0  0  0  0  0  0  0  0  0
   -1.8170   -0.9312   -2.5938 C   0  0  0  0  0  0  0  0  0  0  0  0
   -2.6156   -0.3912   -2.0723 H   0  0  0  0  0  0  0  0  0  0  0  0
   -1.2173   -0.2002   -3.1474 H   0  0  0  0  0  0  0  0  0  0  0  0
   -2.4210   -1.9484   -3.5565 C   0  0  0  0  0  0  0  0  0  0  0  0
   -1.6118   -2.4980   -4.0598 H   0  0  0  0  0  0  0  0  0  0  0  0
   -3.0052   -2.6841   -2.9843 H   0  0  0  0  0  0  0  0  0  0  0  0
   -3.2708   -1.2321   -4.5322 N   0  3  0  0  0  0  0  0  0  0  0  0
   -2.7077   -0.5603   -5.0574 H   0  0  0  0  0  0  0  0  0  0  0  0
   -3.6928   -1.8950   -5.1860 H   0  0  0  0  0  0  0  0  0  0  0  0
   -4.0135   -0.7288   -4.0429 H   0  0  0  0  0  0  0  0  0  0  0  0
   -1.1736    0.8547    1.3405 C   0  0  0  0  0  0  0  0  0  0  0  0
   -2.1645    1.4749    0.9702 O   0  0  0  0  0  0  0  0  0  0  0  0
   -0.2612    1.4538    2.1877 N   0  0  0  0  0  0  0  0  0  0  0  0
    0.5164    0.8920    2.5250 H   0  0  0  0  0  0  0  0  0  0  0  0
   -0.4211    2.8104    2.7015 C   0  0  0  0  0  0  0  0  0  0  0  0
   -1.3372    2.8906    3.2965 H   0  0  0  0  0  0  0  0  0  0  0  0
    0.4282    3.0780    3.3380 H   0  0  0  0  0  0  0  0  0  0  0  0
   -0.4737    3.5306    1.8780 H   0  0  0  0  0  0  0  0  0  0  0  0
  1  2  1  0  0  0  0
  2  3  1  0  0  0  0
  2  4  1  0  0  0  0
  2  5  1  0  0  0  0
  5  6  2  0  0  0  0
  5  7  1  0  0  0  0
  7  8  1  0  0  0  0
  7  9  1  0  0  0  0
  9 10  1  0  0  0  0
  9 11  1  0  0  0  0
  9 27  1  0  0  0  0
 11 12  1  0  0  0  0
 11 13  1  0  0  0  0
 11 14  1  0  0  0  0
 14 15  1  0  0  0  0
 14 16  1  0  0  0  0
 14 17  1  0  0  0  0
 17 18  1  0  0  0  0
 17 19  1  0  0  0  0
 17 20  1  0  0  0  0
 20 21  1  0  0  0  0
 20 22  1  0  0  0  0
 20 23  1  0  0  0  0
 23 24  1  0  0  0  0
 23 25  1  0  0  0  0
 23 26  1  0  0  0  0
 27 28  2  0  0  0  0
 27 29  1  0  0  0  0
 29 30  1  0  0  0  0
 29 31  1  0  0  0  0
 31 32  1  0  0  0  0
 31 33  1  0  0  0  0
 31 34  1  0  0  0  0
M  CHG  1  23   1
M  END
$$$$

  -OEChem-02102214153D

 34 33  0     1  0  0  0  0  0999 V2000
   -3.7088   -4.0596    2.4177 H   0  0  0  0  0  0  0  0  0  0  0  0
   -3.8034   -3.0592    1.9856 C   0  0  0  0  0  0  0  0  0  0  0  0
   -4.2151   -2.3888    2.7441 H   0  0  0  0  0  0  0  0  0  0  0  0
   -4.4902   -3.1050    1.1373 H   0  0  0  0  0  0  0  0  0  0  0  0
   -2.4459   -2.5577    1.5318 C   0  0  0  0  0  0  0  0  0  0  0  0
   -1.4689   -3.2850    1.5947 O   0  0  0  0  0  0  0  0  0  0  0  0
   -2.3149   -1.2921    0.9964 N   0  0  0  0  0  0  0  0  0  0  0  0
   -3.1349   -0.6885    1.0626 H   0  0  0  0  0  0  0  0  0  0  0  0
   -1.0197   -0.5990    0.8693 C   0  0  1  0  0  0  0  0  0  0  0  0
   -0.3080   -1.0744    1.5533 H   0  0  0  0  0  0  0  0  0  0  0  0
   -0.3896   -0.6341   -0.5520 C   0  0  0  0  0  0  0  0  0  0  0  0
   -0.4616    0.3694   -0.9866 H   0  0  0  0  0  0  0  0  0  0  0  0
    0.6802   -0.8361   -0.4318 H   0  0  0  0  0  0  0  0  0  0  0  0
   -0.9572   -1.6541   -1.5710 C   0  0  0  0  0  0  0  0  0  0  0  0
   -0.1438   -2.3217   -1.8764 H   0  0  0  0  0  0  0  0  0  0  0  0
   -1.7293   -2.2928   -1.1384 H   0  0  0  0  0  0  0  0  0  0  0  0
   -1.5160   -0.9403   -2.8081 C   0  0  0  0  0  0  0  0  0  0  0  0
   -2.3051   -0.2470   -2.4949 H   0  0  0  0  0  0  0  0  0  0  0  0
   -0.7192   -0.3584   -3.2848 H   0  0  0  0  0  0  0  0  0  0  0  0
   -2.0814   -1.9584   -3.7943 C   0  0  0  0  0  0  0  0  0  0  0  0
   -1.2848   -2.6556   -4.0934 H   0  0  0  0  0  0  0  0  0  0  0  0
   -2.8600   -2.5523   -3.2934 H   0  0  0  0  0  0  0  0  0  0  0  0
   -2.6295   -1.2369   -4.9631 N   0  3  0  0  0  0  0  0  0  0  0  0
   -1.8910   -0.6945   -5.4155 H   0  0  0  0  0  0  0  0  0  0  0  0
   -3.0153   -1.9008   -5.6381 H   0  0  0  0  0  0  0  0  0  0  0  0
   -3.3703   -0.6001   -4.6624 H   0  0  0  0  0  0  0  0  0  0  0  0
   -1.1752    0.8610    1.3416 C   0  0  0  0  0  0  0  0  0  0  0  0
   -2.1622    1.4933    0.9828 O   0  0  0  0  0  0  0  0  0  0  0  0
   -0.2429    1.4530    2.1727 N   0  0  0  0  0  0  0  0  0  0  0  0
    0.5272    0.8805    2.5094 H   0  0  0  0  0  0  0  0  0  0  0  0
   -0.3900    2.8075    2.6963 C   0  0  0  0  0  0  0  0  0  0  0  0
   -1.2959    2.8874    3.3067 H   0  0  0  0  0  0  0  0  0  0  0  0
    0.4704    3.0694    3.3200 H   0  0  0  0  0  0  0  0  0  0  0  0
   -0.4538    3.5320    1.8773 H   0  0  0  0  0  0  0  0  0  0  0  0
  1  2  1  0  0  0  0
  2  3  1  0  0  0  0
  2  4  1  0  0  0  0
  2  5  1  0  0  0  0
  5  6  2  0  0  0  0
  5  7  1  0  0  0  0
  7  8  1  0  0  0  0
  7  9  1  0  0  0  0
  9 10  1  0  0  0  0
  9 11  1  0  0  0  0
  9 27  1  0  0  0  0
 11 12  1  0  0  0  0
 11 13  1  0  0  0  0
 11 14  1  0  0  0  0
 14 15  1  0  0  0  0
 14 16  1  0  0  0  0
 14 17  1  0  0  0  0
 17 18  1  0  0  0  0
 17 19  1  0  0  0  0
 17 20  1  0  0  0  0
 20 21  1  0  0  0  0
 20 22  1  0  0  0  0
 20 23  1  0  0  0  0
 23 24  1  0  0  0  0
 23 25  1  0  0  0  0
 23 26  1  0  0  0  0
 27 28  2  0  0  0  0
 27 29  1  0  0  0  0
 29 30  1  0  0  0  0
 29 31  1  0  0  0  0
 31 32  1  0  0  0  0
 31 33  1  0  0  0  0
 31 34  1  0  0  0  0
M  CHG  1  23   1
M  END
$$$$

  -OEChem-02102214153D

 34 33  0     1  0  0  0  0  0999 V2000
   -3.7315   -4.0459    2.3981 H   0  0  0  0  0  0  0  0  0  0  0  0
   -3.8238   -3.0441    1.9684 C   0  0  0  0  0  0  0  0  0  0  0  0
   -4.2353   -2.3745    2.7280 H   0  0  0  0  0  0  0  0  0  0  0  0
   -4.5098   -3.0863    1.1192 H   0  0  0  0  0  0  0  0  0  0  0  0
   -2.4655   -2.5433    1.5166 C   0  0  0  0  0  0  0  0  0  0  0  0
   -1.4905   -3.2749    1.5674 O   0  0  0  0  0  0  0  0  0  0  0  0
   -2.3324   -1.2739    0.9918 N   0  0  0  0  0  0  0  0  0  0  0  0
   -3.1522   -0.6698    1.0579 H   0  0  0  0  0  0  0  0  0  0  0  0
   -1.0365   -0.5848    0.8581 C   0  0  1  0  0  0  0  0  0  0  0  0
   -0.3256   -1.0679    1.5379 H   0  0  0  0  0  0  0  0  0  0  0  0
   -0.4075   -0.6317   -0.5634 C   0  0  0  0  0  0  0  0  0  0  0  0
   -0.5168    0.3673   -1.0004 H   0  0  0  0  0  0  0  0  0  0  0  0
    0.6687   -0.8060   -0.4605 H   0  0  0  0  0  0  0  0  0  0  0  0
   -0.9784   -1.6585   -1.5740 C   0  0  0  0  0  0  0  0  0  0  0  0
   -0.2845   -2.5036   -1.6454 H   0  0  0  0  0  0  0  0  0  0  0  0
   -1.9387   -2.0646   -1.2503 H   0  0  0  0  0  0  0  0  0  0  0  0
   -1.1886   -1.0162   -2.9507 C   0  0  0  0  0  0  0  0  0  0  0  0
   -1.8982   -0.1861   -2.8580 H   0  0  0  0  0  0  0  0  0  0  0  0
   -0.2359   -0.6135   -3.3122 H   0  0  0  0  0  0  0  0  0  0  0  0
   -1.7253   -2.0513   -3.9358 C   0  0  0  0  0  0  0  0  0  0  0  0
   -1.0089   -2.8825   -4.0136 H   0  0  0  0  0  0  0  0  0  0  0  0
   -2.6650   -2.4697   -3.5458 H   0  0  0  0  0  0  0  0  0  0  0  0
   -1.9353   -1.4004   -5.2472 N   0  3  0  0  0  0  0  0  0  0  0  0
   -1.0519   -1.0210   -5.5933 H   0  0  0  0  0  0  0  0  0  0  0  0
   -2.2934   -2.0783   -5.9235 H   0  0  0  0  0  0  0  0  0  0  0  0
   -2.6091   -0.6376   -5.1530 H   0  0  0  0  0  0  0  0  0  0  0  0
   -1.1732    0.8731    1.3422 C   0  0  0  0  0  0  0  0  0  0  0  0
   -2.1570    1.5187    1.0003 O   0  0  0  0  0  0  0  0  0  0  0  0
   -0.2250    1.4488    2.1667 N   0  0  0  0  0  0  0  0  0  0  0  0
    0.5388    0.8631    2.4947 H   0  0  0  0  0  0  0  0  0  0  0  0
   -0.3537    2.7989    2.7058 C   0  0  0  0  0  0  0  0  0  0  0  0
   -1.2505    2.8793    3.3294 H   0  0  0  0  0  0  0  0  0  0  0  0
    0.5176    3.0470    3.3201 H   0  0  0  0  0  0  0  0  0  0  0  0
   -0.4226    3.5324    1.8953 H   0  0  0  0  0  0  0  0  0  0  0  0
  1  2  1  0  0  0  0
  2  3  1  0  0  0  0
  2  4  1  0  0  0  0
  2  5  1  0  0  0  0
  5  6  2  0  0  0  0
  5  7  1  0  0  0  0
  7  8  1  0  0  0  0
  7  9  1  0  0  0  0
  9 10  1  0  0  0  0
  9 11  1  0  0  0  0
  9 27  1  0  0  0  0
 11 12  1  0  0  0  0
 11 13  1  0  0  0  0
 11 14  1  0  0  0  0
 14 15  1  0  0  0  0
 14 16  1  0  0  0  0
 14 17  1  0  0  0  0
 17 18  1  0  0  0  0
 17 19  1  0  0  0  0
 17 20  1  0  0  0  0
 20 21  1  0  0  0  0
 20 22  1  0  0  0  0
 20 23  1  0  0  0  0
 23 24  1  0  0  0  0
 23 25  1  0  0  0  0
 23 26  1  0  0  0  0
 27 28  2  0  0  0  0
 27 29  1  0  0  0  0
 29 30  1  0  0  0  0
 29 31  1  0  0  0  0
 31 32  1  0  0  0  0
 31 33  1  0  0  0  0
 31 34  1  0  0  0  0
M  CHG  1  23   1
M  END
$$$$

  -OEChem-02102214153D

 34 33  0     1  0  0  0  0  0999 V2000
   -3.7543   -4.0301    2.3395 H   0  0  0  0  0  0  0  0  0  0  0  0
   -3.8409   -3.0275    1.9112 C   0  0  0  0  0  0  0  0  0  0  0  0
   -4.2610   -2.3599    2.6678 H   0  0  0  0  0  0  0  0  0  0  0  0
   -4.5165   -3.0665    1.0537 H   0  0  0  0  0  0  0  0  0  0  0  0
   -2.4769   -2.5280    1.4760 C   0  0  0  0  0  0  0  0  0  0  0  0
   -1.5048   -3.2636    1.5310 O   0  0  0  0  0  0  0  0  0  0  0  0
   -2.3345   -1.2555    0.9617 N   0  0  0  0  0  0  0  0  0  0  0  0
   -3.1535   -0.6494    1.0205 H   0  0  0  0  0  0  0  0  0  0  0  0
   -1.0353   -0.5704    0.8429 C   0  0  1  0  0  0  0  0  0  0  0  0
   -0.3327   -1.0618    1.5253 H   0  0  0  0  0  0  0  0  0  0  0  0
   -0.3994   -0.6235   -0.5736 C   0  0  0  0  0  0  0  0  0  0  0  0
   -0.5202    0.3705   -1.0185 H   0  0  0  0  0  0  0  0  0  0  0  0
    0.6774   -0.7954   -0.4739 H   0  0  0  0  0  0  0  0  0  0  0  0
   -0.9834   -1.6542   -1.5670 C   0  0  0  0  0  0  0  0  0  0  0  0
   -0.4760   -2.6153   -1.4262 H   0  0  0  0  0  0  0  0  0  0  0  0
   -2.0496   -1.8151   -1.3876 H   0  0  0  0  0  0  0  0  0  0  0  0
   -0.8461   -1.1583   -3.0120 C   0  0  0  0  0  0  0  0  0  0  0  0
   -1.3974   -0.2184   -3.1297 H   0  0  0  0  0  0  0  0  0  0  0  0
    0.2101   -0.9638   -3.2292 H   0  0  0  0  0  0  0  0  0  0  0  0
   -1.3927   -2.2069   -3.9773 C   0  0  0  0  0  0  0  0  0  0  0  0
   -0.8384   -3.1471   -3.8401 H   0  0  0  0  0  0  0  0  0  0  0  0
   -2.4445   -2.4124   -3.7293 H   0  0  0  0  0  0  0  0  0  0  0  0
   -1.2594   -1.7043   -5.3621 N   0  3  0  0  0  0  0  0  0  0  0  0
   -0.2768   -1.5194   -5.5729 H   0  0  0  0  0  0  0  0  0  0  0  0
   -1.6160   -2.3974   -6.0236 H   0  0  0  0  0  0  0  0  0  0  0  0
   -1.7901   -0.8378   -5.4710 H   0  0  0  0  0  0  0  0  0  0  0  0
   -1.1622    0.8855    1.3348 C   0  0  0  0  0  0  0  0  0  0  0  0
   -2.1406    1.5405    0.9965 O   0  0  0  0  0  0  0  0  0  0  0  0
   -0.2132    1.4465    2.1684 N   0  0  0  0  0  0  0  0  0  0  0  0
    0.5455    0.8525    2.4929 H   0  0  0  0  0  0  0  0  0  0  0  0
   -0.3358    2.7908    2.7234 C   0  0  0  0  0  0  0  0  0  0  0  0
   -1.2342    2.8700    3.3450 H   0  0  0  0  0  0  0  0  0  0  0  0
    0.5351    3.0257    3.3435 H   0  0  0  0  0  0  0  0  0  0  0  0
   -0.3970    3.5344    1.9215 H   0  0  0  0  0  0  0  0  0  0  0  0
  1  2  1  0  0  0  0
  2  3  1  0  0  0  0
  2  4  1  0  0  0  0
  2  5  1  0  0  0  0
  5  6  2  0  0  0  0
  5  7  1  0  0  0  0
  7  8  1  0  0  0  0
  7  9  1  0  0  0  0
  9 10  1  0  0  0  0
  9 11  1  0  0  0  0
  9 27  1  0  0  0  0
 11 12  1  0  0  0  0
 11 13  1  0  0  0  0
 11 14  1  0  0  0  0
 14 15  1  0  0  0  0
 14 16  1  0  0  0  0
 14 17  1  0  0  0  0
 17 18  1  0  0  0  0
 17 19  1  0  0  0  0
 17 20  1  0  0  0  0
 20 21  1  0  0  0  0
 20 22  1  0  0  0  0
 20 23  1  0  0  0  0
 23 24  1  0  0  0  0
 23 25  1  0  0  0  0
 23 26  1  0  0  0  0
 27 28  2  0  0  0  0
 27 29  1  0  0  0  0
 29 30  1  0  0  0  0
 29 31  1  0  0  0  0
 31 32  1  0  0  0  0
 31 33  1  0  0  0  0
 31 34  1  0  0  0  0
M  CHG  1  23   1
M  END
$$$$

  -OEChem-02102214153D

 34 33  0     1  0  0  0  0  0999 V2000
   -3.7843   -4.0275    2.2259 H   0  0  0  0  0  0  0  0  0  0  0  0
   -3.8528   -3.0131    1.8226 C   0  0  0  0  0  0  0  0  0  0  0  0
   -4.2765   -2.3596    2.5892 H   0  0  0  0  0  0  0  0  0  0  0  0
   -4.5165   -3.0224    0.9550 H   0  0  0  0  0  0  0  0  0  0  0  0
   -2.4770   -2.5166    1.4219 C   0  0  0  0  0  0  0  0  0  0  0  0
   -1.5097   -3.2576    1.4904 O   0  0  0  0  0  0  0  0  0  0  0  0
   -2.3180   -1.2410    0.9205 N   0  0  0  0  0  0  0  0  0  0  0  0
   -3.1361   -0.6322    0.9640 H   0  0  0  0  0  0  0  0  0  0  0  0
   -1.0146   -0.5582    0.8319 C   0  0  1  0  0  0  0  0  0  0  0  0
   -0.3238   -1.0577    1.5203 H   0  0  0  0  0  0  0  0  0  0  0  0
   -0.3695   -0.6089   -0.5787 C   0  0  0  0  0  0  0  0  0  0  0  0
   -0.4796    0.3820   -1.0340 H   0  0  0  0  0  0  0  0  0  0  0  0
    0.7038   -0.7966   -0.4716 H   0  0  0  0  0  0  0  0  0  0  0  0
   -0.9729   -1.6390   -1.5536 C   0  0  0  0  0  0  0  0  0  0  0  0
   -0.6754   -2.6471   -1.2427 H   0  0  0  0  0  0  0  0  0  0  0  0
   -2.0661   -1.5861   -1.5317 H   0  0  0  0  0  0  0  0  0  0  0  0
   -0.5240   -1.3550   -2.9911 C   0  0  0  0  0  0  0  0  0  0  0  0
   -0.8678   -0.3589   -3.2916 H   0  0  0  0  0  0  0  0  0  0  0  0
    0.5706   -1.3671   -3.0381 H   0  0  0  0  0  0  0  0  0  0  0  0
   -1.0986   -2.4121   -3.9306 C   0  0  0  0  0  0  0  0  0  0  0  0
   -0.7652   -3.4075   -3.6012 H   0  0  0  0  0  0  0  0  0  0  0  0
   -2.1963   -2.3992   -3.8610 H   0  0  0  0  0  0  0  0  0  0  0  0
   -0.6488   -2.1275   -5.3104 N   0  3  0  0  0  0  0  0  0  0  0  0
    0.3719   -2.1436   -5.3546 H   0  0  0  0  0  0  0  0  0  0  0  0
   -1.0198   -2.8306   -5.9532 H   0  0  0  0  0  0  0  0  0  0  0  0
   -0.9786   -1.2050   -5.6011 H   0  0  0  0  0  0  0  0  0  0  0  0
   -1.1418    0.8953    1.3310 C   0  0  0  0  0  0  0  0  0  0  0  0
   -2.1120    1.5563    0.9819 O   0  0  0  0  0  0  0  0  0  0  0  0
   -0.2056    1.4471    2.1856 N   0  0  0  0  0  0  0  0  0  0  0  0
    0.5390    0.8454    2.5279 H   0  0  0  0  0  0  0  0  0  0  0  0
   -0.3343    2.7892    2.7447 C   0  0  0  0  0  0  0  0  0  0  0  0
   -1.2379    2.8645    3.3591 H   0  0  0  0  0  0  0  0  0  0  0  0
    0.5309    3.0236    3.3727 H   0  0  0  0  0  0  0  0  0  0  0  0
   -0.3908    3.5351    1.9445 H   0  0  0  0  0  0  0  0  0  0  0  0
  1  2  1  0  0  0  0
  2  3  1  0  0  0  0
  2  4  1  0  0  0  0
  2  5  1  0  0  0  0
  5  6  2  0  0  0  0
  5  7  1  0  0  0  0
  7  8  1  0  0  0  0
  7  9  1  0  0  0  0
  9 10  1  0  0  0  0
  9 11  1  0  0  0  0
  9 27  1  0  0  0  0
 11 12  1  0  0  0  0
 11 13  1  0  0  0  0
 11 14  1  0  0  0  0
 14 15  1  0  0  0  0
 14 16  1  0  0  0  0
 14 17  1  0  0  0  0
 17 18  1  0  0  0  0
 17 19  1  0  0  0  0
 17 20  1  0  0  0  0
 20 21  1  0  0  0  0
 20 22  1  0  0  0  0
 20 23  1  0  0  0  0
 23 24  1  0  0  0  0
 23 25  1  0  0  0  0
 23 26  1  0  0  0  0
 27 28  2  0  0  0  0
 27 29  1  0  0  0  0
 29 30  1  0  0  0  0
 29 31  1  0  0  0  0
 31 32  1  0  0  0  0
 31 33  1  0  0  0  0
 31 34  1  0  0  0  0
M  CHG  1  23   1
M  END
$$$$

  -OEChem-02102214153D

 34 33  0     1  0  0  0  0  0999 V2000
   -3.7710   -4.0120    2.2274 H   0  0  0  0  0  0  0  0  0  0  0  0
   -3.8384   -3.0186    1.7748 C   0  0  0  0  0  0  0  0  0  0  0  0
   -4.3010   -2.3374    2.4933 H   0  0  0  0  0  0  0  0  0  0  0  0
   -4.4672   -3.0785    0.8835 H   0  0  0  0  0  0  0  0  0  0  0  0
   -2.4556   -2.5198    1.4030 C   0  0  0  0  0  0  0  0  0  0  0  0
   -1.4875   -3.2571    1.4944 O   0  0  0  0  0  0  0  0  0  0  0  0
   -2.2890   -1.2462    0.9002 N   0  0  0  0  0  0  0  0  0  0  0  0
   -3.1075   -0.6372    0.9283 H   0  0  0  0  0  0  0  0  0  0  0  0
   -0.9831   -0.5651    0.8310 C   0  0  1  0  0  0  0  0  0  0  0  0
   -0.2918   -1.0563    1.5250 H   0  0  0  0  0  0  0  0  0  0  0  0
   -0.3386   -0.6026   -0.5799 C   0  0  0  0  0  0  0  0  0  0  0  0
   -0.1560    0.4219   -0.9236 H   0  0  0  0  0  0  0  0  0  0  0  0
    0.6369   -1.0923   -0.4928 H   0  0  0  0  0  0  0  0  0  0  0  0
   -1.1646   -1.3361   -1.6498 C   0  0  0  0  0  0  0  0  0  0  0  0
   -1.3240   -2.3744   -1.3370 H   0  0  0  0  0  0  0  0  0  0  0  0
   -2.1438   -0.8538   -1.7489 H   0  0  0  0  0  0  0  0  0  0  0  0
   -0.4419   -1.3153   -3.0002 C   0  0  0  0  0  0  0  0  0  0  0  0
   -0.2993   -0.2775   -3.3212 H   0  0  0  0  0  0  0  0  0  0  0  0
    0.5453   -1.7778   -2.8911 H   0  0  0  0  0  0  0  0  0  0  0  0
   -1.2628   -2.0770   -4.0369 C   0  0  0  0  0  0  0  0  0  0  0  0
   -1.4203   -3.1075   -3.6855 H   0  0  0  0  0  0  0  0  0  0  0  0
   -2.2546   -1.6096   -4.1259 H   0  0  0  0  0  0  0  0  0  0  0  0
   -0.5453   -2.0583   -5.3299 N   0  3  0  0  0  0  0  0  0  0  0  0
    0.3710   -2.4987   -5.2262 H   0  0  0  0  0  0  0  0  0  0  0  0
   -1.0802   -2.5680   -6.0364 H   0  0  0  0  0  0  0  0  0  0  0  0
   -0.4162   -1.0942   -5.6430 H   0  0  0  0  0  0  0  0  0  0  0  0
   -1.1331    0.8874    1.3263 C   0  0  0  0  0  0  0  0  0  0  0  0
   -2.1003    1.5420    0.9564 O   0  0  0  0  0  0  0  0  0  0  0  0
   -0.2178    1.4456    2.1985 N   0  0  0  0  0  0  0  0  0  0  0  0
    0.5298    0.8520    2.5482 H   0  0  0  0  0  0  0  0  0  0  0  0
   -0.3638    2.7876    2.7524 C   0  0  0  0  0  0  0  0  0  0  0  0
   -1.2912    2.8662    3.3300 H   0  0  0  0  0  0  0  0  0  0  0  0
    0.4760    3.0183    3.4153 H   0  0  0  0  0  0  0  0  0  0  0  0
   -0.3843    3.5336    1.9508 H   0  0  0  0  0  0  0  0  0  0  0  0
  1  2  1  0  0  0  0
  2  3  1  0  0  0  0
  2  4  1  0  0  0  0
  2  5  1  0  0  0  0
  5  6  2  0  0  0  0
  5  7  1  0  0  0  0
  7  8  1  0  0  0  0
  7  9  1  0  0  0  0
  9 10  1  0  0  0  0
  9 11  1  0  0  0  0
  9 27  1  0  0  0  0
 11 12  1  0  0  0  0
 11 13  1  0  0  0  0
 11 14  1  0  0  0  0
 14 15  1  0  0  0  0
 14 16  1  0  0  0  0
 14 17  1  0  0  0  0
 17 18  1  0  0  0  0
 17 19  1  0  0  0  0
 17 20  1  0  0  0  0
 20 21  1  0  0  0  0
 20 22  1  0  0  0  0
 20 23  1  0  0  0  0
 23 24  1  0  0  0  0
 23 25  1  0  0  0  0
 23 26  1  0  0  0  0
 27 28  2  0  0  0  0
 27 29  1  0  0  0  0
 29 30  1  0  0  0  0
 29 31  1  0  0  0  0
 31 32  1  0  0  0  0
 31 33  1  0  0  0  0
 31 34  1  0  0  0  0
M  CHG  1  23   1
M  END
$$$$

  -OEChem-02102214153D

 34 33  0     1  0  0  0  0  0999 V2000
   -3.8084   -4.0109    2.2039 H   0  0  0  0  0  0  0  0  0  0  0  0
   -3.8637   -2.9939    1.8052 C   0  0  0  0  0  0  0  0  0  0  0  0
   -4.2839   -2.3396    2.5730 H   0  0  0  0  0  0  0  0  0  0  0  0
   -4.5233   -2.9917    0.9344 H   0  0  0  0  0  0  0  0  0  0  0  0
   -2.4807   -2.5106    1.4130 C   0  0  0  0  0  0  0  0  0  0  0  0
   -1.5191   -3.2581    1.4939 O   0  0  0  0  0  0  0  0  0  0  0  0
   -2.3054   -1.2404    0.9038 N   0  0  0  0  0  0  0  0  0  0  0  0
   -3.1190   -0.6245    0.9307 H   0  0  0  0  0  0  0  0  0  0  0  0
   -0.9941   -0.5695    0.8334 C   0  0  1  0  0  0  0  0  0  0  0  0
   -0.3101   -1.0625    1.5330 H   0  0  0  0  0  0  0  0  0  0  0  0
   -0.3399   -0.6136   -0.5739 C   0  0  0  0  0  0  0  0  0  0  0  0
   -0.1317    0.4049   -0.9201 H   0  0  0  0  0  0  0  0  0  0  0  0
    0.6261   -1.1171   -0.4622 H   0  0  0  0  0  0  0  0  0  0  0  0
   -1.1509   -1.3423   -1.6624 C   0  0  0  0  0  0  0  0  0  0  0  0
   -1.5213   -2.2962   -1.2727 H   0  0  0  0  0  0  0  0  0  0  0  0
   -2.0150   -0.7299   -1.9441 H   0  0  0  0  0  0  0  0  0  0  0  0
   -0.2757   -1.6455   -2.8835 C   0  0  0  0  0  0  0  0  0  0  0  0
    0.1100   -0.7071   -3.2968 H   0  0  0  0  0  0  0  0  0  0  0  0
    0.5778   -2.2600   -2.5761 H   0  0  0  0  0  0  0  0  0  0  0  0
   -1.0966   -2.3866   -3.9356 C   0  0  0  0  0  0  0  0  0  0  0  0
   -1.5048   -3.3063   -3.4908 H   0  0  0  0  0  0  0  0  0  0  0  0
   -1.9524   -1.7623   -4.2318 H   0  0  0  0  0  0  0  0  0  0  0  0
   -0.2330   -2.6948   -5.0959 N   0  3  0  0  0  0  0  0  0  0  0  0
    0.5474   -3.2855   -4.8019 H   0  0  0  0  0  0  0  0  0  0  0  0
   -0.7700   -3.1876   -5.8127 H   0  0  0  0  0  0  0  0  0  0  0  0
    0.1374   -1.8301   -5.4947 H   0  0  0  0  0  0  0  0  0  0  0  0
   -1.1354    0.8868    1.3220 C   0  0  0  0  0  0  0  0  0  0  0  0
   -2.1006    1.5441    0.9522 O   0  0  0  0  0  0  0  0  0  0  0  0
   -0.2183    1.4441    2.1935 N   0  0  0  0  0  0  0  0  0  0  0  0
    0.5219    0.8463    2.5514 H   0  0  0  0  0  0  0  0  0  0  0  0
   -0.3617    2.7869    2.7470 C   0  0  0  0  0  0  0  0  0  0  0  0
   -1.2765    2.8600    3.3451 H   0  0  0  0  0  0  0  0  0  0  0  0
    0.4910    3.0262    3.3901 H   0  0  0  0  0  0  0  0  0  0  0  0
   -0.4057    3.5310    1.9445 H   0  0  0  0  0  0  0  0  0  0  0  0
  1  2  1  0  0  0  0
  2  3  1  0  0  0  0
  2  4  1  0  0  0  0
  2  5  1  0  0  0  0
  5  6  2  0  0  0  0
  5  7  1  0  0  0  0
  7  8  1  0  0  0  0
  7  9  1  0  0  0  0
  9 10  1  0  0  0  0
  9 11  1  0  0  0  0
  9 27  1  0  0  0  0
 11 12  1  0  0  0  0
 11 13  1  0  0  0  0
 11 14  1  0  0  0  0
 14 15  1  0  0  0  0
 14 16  1  0  0  0  0
 14 17  1  0  0  0  0
 17 18  1  0  0  0  0
 17 19  1  0  0  0  0
 17 20  1  0  0  0  0
 20 21  1  0  0  0  0
 20 22  1  0  0  0  0
 20 23  1  0  0  0  0
 23 24  1  0  0  0  0
 23 25  1  0  0  0  0
 23 26  1  0  0  0  0
 27 28  2  0  0  0  0
 27 29  1  0  0  0  0
 29 30  1  0  0  0  0
 29 31  1  0  0  0  0
 31 32  1  0  0  0  0
 31 33  1  0  0  0  0
 31 34  1  0  0  0  0
M  CHG  1  23   1
M  END
$$$$

  -OEChem-02102214153D

 34 33  0     1  0  0  0  0  0999 V2000
   -3.8417   -3.9839    2.2429 H   0  0  0  0  0  0  0  0  0  0  0  0
   -3.8911   -2.9673    1.8427 C   0  0  0  0  0  0  0  0  0  0  0  0
   -4.2915   -2.3062    2.6153 H   0  0  0  0  0  0  0  0  0  0  0  0
   -4.5638   -2.9586    0.9820 H   0  0  0  0  0  0  0  0  0  0  0  0
   -2.5090   -2.5006    1.4284 C   0  0  0  0  0  0  0  0  0  0  0  0
   -1.5556   -3.2613    1.4845 O   0  0  0  0  0  0  0  0  0  0  0  0
   -2.3291   -1.2318    0.9185 N   0  0  0  0  0  0  0  0  0  0  0  0
   -3.1379   -0.6097    0.9540 H   0  0  0  0  0  0  0  0  0  0  0  0
   -1.0151   -0.5699    0.8353 C   0  0  1  0  0  0  0  0  0  0  0  0
   -0.3338   -1.0659    1.5356 H   0  0  0  0  0  0  0  0  0  0  0  0
   -0.3554   -0.6210   -0.5707 C   0  0  0  0  0  0  0  0  0  0  0  0
   -0.1347    0.3951   -0.9165 H   0  0  0  0  0  0  0  0  0  0  0  0
    0.6090   -1.1233   -0.4398 H   0  0  0  0  0  0  0  0  0  0  0  0
   -1.1448   -1.3471   -1.6827 C   0  0  0  0  0  0  0  0  0  0  0  0
   -1.7333   -2.1692   -1.2670 H   0  0  0  0  0  0  0  0  0  0  0  0
   -1.8386   -0.6433   -2.1557 H   0  0  0  0  0  0  0  0  0  0  0  0
   -0.1920   -1.9666   -2.7114 C   0  0  0  0  0  0  0  0  0  0  0  0
    0.4178   -1.1779   -3.1659 H   0  0  0  0  0  0  0  0  0  0  0  0
    0.4798   -2.6701   -2.2066 H   0  0  0  0  0  0  0  0  0  0  0  0
   -0.9938   -2.6977   -3.7849 C   0  0  0  0  0  0  0  0  0  0  0  0
   -1.6389   -3.4479   -3.3038 H   0  0  0  0  0  0  0  0  0  0  0  0
   -1.6545   -1.9807   -4.2942 H   0  0  0  0  0  0  0  0  0  0  0  0
   -0.0583   -3.3345   -4.7367 N   0  3  0  0  0  0  0  0  0  0  0  0
    0.5329   -4.0077   -4.2450 H   0  0  0  0  0  0  0  0  0  0  0  0
   -0.5792   -3.8230   -5.4683 H   0  0  0  0  0  0  0  0  0  0  0  0
    0.5362   -2.6251   -5.1692 H   0  0  0  0  0  0  0  0  0  0  0  0
   -1.1437    0.8872    1.3260 C   0  0  0  0  0  0  0  0  0  0  0  0
   -2.1159    1.5460    0.9786 O   0  0  0  0  0  0  0  0  0  0  0  0
   -0.2149    1.4384    2.1888 N   0  0  0  0  0  0  0  0  0  0  0  0
    0.5384    0.8426    2.5217 H   0  0  0  0  0  0  0  0  0  0  0  0
   -0.3474    2.7794    2.7500 C   0  0  0  0  0  0  0  0  0  0  0  0
   -1.2566    2.8539    3.3562 H   0  0  0  0  0  0  0  0  0  0  0  0
    0.5121    3.0112    3.3869 H   0  0  0  0  0  0  0  0  0  0  0  0
   -0.3953    3.5280    1.9518 H   0  0  0  0  0  0  0  0  0  0  0  0
  1  2  1  0  0  0  0
  2  3  1  0  0  0  0
  2  4  1  0  0  0  0
  2  5  1  0  0  0  0
  5  6  2  0  0  0  0
  5  7  1  0  0  0  0
  7  8  1  0  0  0  0
  7  9  1  0  0  0  0
  9 10  1  0  0  0  0
  9 11  1  0  0  0  0
  9 27  1  0  0  0  0
 11 12  1  0  0  0  0
 11 13  1  0  0  0  0
 11 14  1  0  0  0  0
 14 15  1  0  0  0  0
 14 16  1  0  0  0  0
 14 17  1  0  0  0  0
 17 18  1  0  0  0  0
 17 19  1  0  0  0  0
 17 20  1  0  0  0  0
 20 21  1  0  0  0  0
 20 22  1  0  0  0  0
 20 23  1  0  0  0  0
 23 24  1  0  0  0  0
 23 25  1  0  0  0  0
 23 26  1  0  0  0  0
 27 28  2  0  0  0  0
 27 29  1  0  0  0  0
 29 30  1  0  0  0  0
 29 31  1  0  0  0  0
 31 32  1  0  0  0  0
 31 33  1  0  0  0  0
 31 34  1  0  0  0  0
M  CHG  1  23   1
M  END
$$$$

  -OEChem-02102214153D

 34 33  0     1  0  0  0  0  0999 V2000
   -3.8552   -3.9652    2.2572 H   0  0  0  0  0  0  0  0  0  0  0  0
   -3.9078   -2.9452    1.8659 C   0  0  0  0  0  0  0  0  0  0  0  0
   -4.2800   -2.2864    2.6548 H   0  0  0  0  0  0  0  0  0  0  0  0
   -4.6058   -2.9248    1.0257 H   0  0  0  0  0  0  0  0  0  0  0  0
   -2.5347   -2.4869    1.4138 C   0  0  0  0  0  0  0  0  0  0  0  0
   -1.5910   -3.2626    1.4140 O   0  0  0  0  0  0  0  0  0  0  0  0
   -2.3556   -1.2129    0.9172 N   0  0  0  0  0  0  0  0  0  0  0  0
   -3.1567   -0.5831    0.9860 H   0  0  0  0  0  0  0  0  0  0  0  0
   -1.0391   -0.5582    0.8285 C   0  0  1  0  0  0  0  0  0  0  0  0
   -0.3634   -1.0644    1.5273 H   0  0  0  0  0  0  0  0  0  0  0  0
   -0.3680   -0.6139   -0.5732 C   0  0  0  0  0  0  0  0  0  0  0  0
   -0.1534    0.4054   -0.9136 H   0  0  0  0  0  0  0  0  0  0  0  0
    0.6030   -1.0997   -0.4306 H   0  0  0  0  0  0  0  0  0  0  0  0
   -1.1325   -1.3373   -1.7110 C   0  0  0  0  0  0  0  0  0  0  0  0
   -1.9400   -1.9633   -1.3268 H   0  0  0  0  0  0  0  0  0  0  0  0
   -1.5883   -0.5887   -2.3685 H   0  0  0  0  0  0  0  0  0  0  0  0
   -0.1901   -2.2532   -2.5016 C   0  0  0  0  0  0  0  0  0  0  0  0
    0.6081   -1.6553   -2.9554 H   0  0  0  0  0  0  0  0  0  0  0  0
    0.2690   -2.9728   -1.8139 H   0  0  0  0  0  0  0  0  0  0  0  0
   -0.9676   -3.0015   -3.5811 C   0  0  0  0  0  0  0  0  0  0  0  0
   -1.8127   -3.5292   -3.1147 H   0  0  0  0  0  0  0  0  0  0  0  0
   -1.3897   -2.2776   -4.2935 H   0  0  0  0  0  0  0  0  0  0  0  0
   -0.0577   -3.9527   -4.2550 N   0  3  0  0  0  0  0  0  0  0  0  0
    0.3051   -4.6252   -3.5758 H   0  0  0  0  0  0  0  0  0  0  0  0
   -0.5580   -4.4594   -4.9883 H   0  0  0  0  0  0  0  0  0  0  0  0
    0.7263   -3.4493   -4.6739 H   0  0  0  0  0  0  0  0  0  0  0  0
   -1.1518    0.8943    1.3371 C   0  0  0  0  0  0  0  0  0  0  0  0
   -2.1294    1.5584    1.0166 O   0  0  0  0  0  0  0  0  0  0  0  0
   -0.2110    1.4313    2.1964 N   0  0  0  0  0  0  0  0  0  0  0  0
    0.5445    0.8299    2.5134 H   0  0  0  0  0  0  0  0  0  0  0  0
   -0.3328    2.7662    2.7746 C   0  0  0  0  0  0  0  0  0  0  0  0
   -1.2375    2.8382    3.3877 H   0  0  0  0  0  0  0  0  0  0  0  0
    0.5318    2.9867    3.4085 H   0  0  0  0  0  0  0  0  0  0  0  0
   -0.3826    3.5242    1.9855 H   0  0  0  0  0  0  0  0  0  0  0  0
  1  2  1  0  0  0  0
  2  3  1  0  0  0  0
  2  4  1  0  0  0  0
  2  5  1  0  0  0  0
  5  6  2  0  0  0  0
  5  7  1  0  0  0  0
  7  8  1  0  0  0  0
  7  9  1  0  0  0  0
  9 10  1  0  0  0  0
  9 11  1  0  0  0  0
  9 27  1  0  0  0  0
 11 12  1  0  0  0  0
 11 13  1  0  0  0  0
 11 14  1  0  0  0  0
 14 15  1  0  0  0  0
 14 16  1  0  0  0  0
 14 17  1  0  0  0  0
 17 18  1  0  0  0  0
 17 19  1  0  0  0  0
 17 20  1  0  0  0  0
 20 21  1  0  0  0  0
 20 22  1  0  0  0  0
 20 23  1  0  0  0  0
 23 24  1  0  0  0  0
 23 25  1  0  0  0  0
 23 26  1  0  0  0  0
 27 28  2  0  0  0  0
 27 29  1  0  0  0  0
 29 30  1  0  0  0  0
 29 31  1  0  0  0  0
 31 32  1  0  0  0  0
 31 33  1  0  0  0  0
 31 34  1  0  0  0  0
M  CHG  1  23   1
M  END
$$$$

  -OEChem-02102214153D

 34 33  0     1  0  0  0  0  0999 V2000
   -3.8388   -3.9771    2.1758 H   0  0  0  0  0  0  0  0  0  0  0  0
   -3.8962   -2.9465    1.8143 C   0  0  0  0  0  0  0  0  0  0  0  0
   -4.2426   -2.3088    2.6315 H   0  0  0  0  0  0  0  0  0  0  0  0
   -4.6177   -2.8976    0.9953 H   0  0  0  0  0  0  0  0  0  0  0  0
   -2.5336   -2.4816    1.3374 C   0  0  0  0  0  0  0  0  0  0  0  0
   -1.5992   -3.2670    1.2653 O   0  0  0  0  0  0  0  0  0  0  0  0
   -2.3621   -1.1942    0.8750 N   0  0  0  0  0  0  0  0  0  0  0  0
   -3.1608   -0.5665    0.9834 H   0  0  0  0  0  0  0  0  0  0  0  0
   -1.0486   -0.5319    0.8034 C   0  0  1  0  0  0  0  0  0  0  0  0
   -0.3811   -1.0518    1.4997 H   0  0  0  0  0  0  0  0  0  0  0  0
   -0.3559   -0.5802   -0.5874 C   0  0  0  0  0  0  0  0  0  0  0  0
   -0.1803    0.4494   -0.9195 H   0  0  0  0  0  0  0  0  0  0  0  0
    0.6349   -1.0253   -0.4478 H   0  0  0  0  0  0  0  0  0  0  0  0
   -1.0997   -1.3068   -1.7382 C   0  0  0  0  0  0  0  0  0  0  0  0
   -2.0823   -1.6781   -1.4429 H   0  0  0  0  0  0  0  0  0  0  0  0
   -1.2713   -0.5912   -2.5500 H   0  0  0  0  0  0  0  0  0  0  0  0
   -0.2566   -2.4751   -2.2616 C   0  0  0  0  0  0  0  0  0  0  0  0
    0.6726   -2.0961   -2.7013 H   0  0  0  0  0  0  0  0  0  0  0  0
    0.0033   -3.1240   -1.4167 H   0  0  0  0  0  0  0  0  0  0  0  0
   -1.0444   -3.2767   -3.2929 C   0  0  0  0  0  0  0  0  0  0  0  0
   -2.0282   -3.5336   -2.8733 H   0  0  0  0  0  0  0  0  0  0  0  0
   -1.2222   -2.6547   -4.1823 H   0  0  0  0  0  0  0  0  0  0  0  0
   -0.2807   -4.4978   -3.6265 N   0  3  0  0  0  0  0  0  0  0  0  0
   -0.1500   -5.0627   -2.7839 H   0  0  0  0  0  0  0  0  0  0  0  0
   -0.7853   -5.0510   -4.3220 H   0  0  0  0  0  0  0  0  0  0  0  0
    0.6355   -4.2457   -4.0012 H   0  0  0  0  0  0  0  0  0  0  0  0
   -1.1593    0.9071    1.3481 C   0  0  0  0  0  0  0  0  0  0  0  0
   -2.1462    1.5723    1.0613 O   0  0  0  0  0  0  0  0  0  0  0  0
   -0.2162    1.4213    2.2186 N   0  0  0  0  0  0  0  0  0  0  0  0
    0.5537    0.8205    2.4998 H   0  0  0  0  0  0  0  0  0  0  0  0
   -0.3328    2.7429    2.8272 C   0  0  0  0  0  0  0  0  0  0  0  0
   -1.2378    2.8048    3.4409 H   0  0  0  0  0  0  0  0  0  0  0  0
    0.5322    2.9447    3.4667 H   0  0  0  0  0  0  0  0  0  0  0  0
   -0.3783    3.5186    2.0553 H   0  0  0  0  0  0  0  0  0  0  0  0
  1  2  1  0  0  0  0
  2  3  1  0  0  0  0
  2  4  1  0  0  0  0
  2  5  1  0  0  0  0
  5  6  2  0  0  0  0
  5  7  1  0  0  0  0
  7  8  1  0  0  0  0
  7  9  1  0  0  0  0
  9 10  1  0  0  0  0
  9 11  1  0  0  0  0
  9 27  1  0  0  0  0
 11 12  1  0  0  0  0
 11 13  1  0  0  0  0
 11 14  1  0  0  0  0
 14 15  1  0  0  0  0
 14 16  1  0  0  0  0
 14 17  1  0  0  0  0
 17 18  1  0  0  0  0
 17 19  1  0  0  0  0
 17 20  1  0  0  0  0
 20 21  1  0  0  0  0
 20 22  1  0  0  0  0
 20 23  1  0  0  0  0
 23 24  1  0  0  0  0
 23 25  1  0  0  0  0
 23 26  1  0  0  0  0
 27 28  2  0  0  0  0
 27 29  1  0  0  0  0
 29 30  1  0  0  0  0
 29 31  1  0  0  0  0
 31 32  1  0  0  0  0
 31 33  1  0  0  0  0
 31 34  1  0  0  0  0
M  CHG  1  23   1
M  END
$$$$

  -OEChem-02102214153D

 34 33  0     1  0  0  0  0  0999 V2000
   -3.5499   -4.2731    1.7926 H   0  0  0  0  0  0  0  0  0  0  0  0
   -3.6362   -3.2063    1.5675 C   0  0  0  0  0  0  0  0  0  0  0  0
   -3.8643   -2.6735    2.4947 H   0  0  0  0  0  0  0  0  0  0  0  0
   -4.4580   -3.0564    0.8627 H   0  0  0  0  0  0  0  0  0  0  0  0
   -2.3403   -2.6831    0.9792 C   0  0  0  0  0  0  0  0  0  0  0  0
   -1.4608   -3.4599    0.6281 O   0  0  0  0  0  0  0  0  0  0  0  0
   -2.2230   -1.3556    0.6445 N   0  0  0  0  0  0  0  0  0  0  0  0
   -3.0344   -0.7779    0.8802 H   0  0  0  0  0  0  0  0  0  0  0  0
   -0.9558   -0.6000    0.6360 C   0  0  1  0  0  0  0  0  0  0  0  0
   -0.2588   -1.1410    1.2857 H   0  0  0  0  0  0  0  0  0  0  0  0
   -0.2437   -0.4548   -0.7382 C   0  0  0  0  0  0  0  0  0  0  0  0
   -0.1801    0.6156   -0.9651 H   0  0  0  0  0  0  0  0  0  0  0  0
    0.7914   -0.7992   -0.6404 H   0  0  0  0  0  0  0  0  0  0  0  0
   -0.9183   -1.1165   -1.9618 C   0  0  0  0  0  0  0  0  0  0  0  0
   -1.9763   -1.3197   -1.7800 H   0  0  0  0  0  0  0  0  0  0  0  0
   -0.8838   -0.4201   -2.8073 H   0  0  0  0  0  0  0  0  0  0  0  0
   -0.1608   -2.3997   -2.3576 C   0  0  0  0  0  0  0  0  0  0  0  0
    0.6259   -2.1294   -3.0707 H   0  0  0  0  0  0  0  0  0  0  0  0
    0.3386   -2.8379   -1.4859 H   0  0  0  0  0  0  0  0  0  0  0  0
   -1.0843   -3.4352   -2.9979 C   0  0  0  0  0  0  0  0  0  0  0  0
   -1.9940   -2.9381   -3.3639 H   0  0  0  0  0  0  0  0  0  0  0  0
   -0.5850   -3.8788   -3.8712 H   0  0  0  0  0  0  0  0  0  0  0  0
   -1.3927   -4.4717   -1.9893 N   0  3  0  0  0  0  0  0  0  0  0  0
   -1.4474   -4.0402   -1.0530 H   0  0  0  0  0  0  0  0  0  0  0  0
   -2.2807   -4.9271   -2.1973 H   0  0  0  0  0  0  0  0  0  0  0  0
   -0.6522   -5.1730   -1.9667 H   0  0  0  0  0  0  0  0  0  0  0  0
   -1.1747    0.7695    1.3148 C   0  0  0  0  0  0  0  0  0  0  0  0
   -2.2430    1.3418    1.1428 O   0  0  0  0  0  0  0  0  0  0  0  0
   -0.2721    1.2712    2.2339 N   0  0  0  0  0  0  0  0  0  0  0  0
    0.5919    0.7595    2.3903 H   0  0  0  0  0  0  0  0  0  0  0  0
   -0.4954    2.5106    2.9724 C   0  0  0  0  0  0  0  0  0  0  0  0
   -1.3971    2.4332    3.5894 H   0  0  0  0  0  0  0  0  0  0  0  0
    0.3543    2.7202    3.6296 H   0  0  0  0  0  0  0  0  0  0  0  0
   -0.6135    3.3534    2.2828 H   0  0  0  0  0  0  0  0  0  0  0  0
  1  2  1  0  0  0  0
  2  3  1  0  0  0  0
  2  4  1  0  0  0  0
  2  5  1  0  0  0  0
  5  6  2  0  0  0  0
  5  7  1  0  0  0  0
  7  8  1  0  0  0  0
  7  9  1  0  0  0  0
  9 10  1  0  0  0  0
  9 11  1  0  0  0  0
  9 27  1  0  0  0  0
 11 12  1  0  0  0  0
 11 13  1  0  0  0  0
 11 14  1  0  0  0  0
 14 15  1  0  0  0  0
 14 16  1  0  0  0  0
 14 17  1  0  0  0  0
 17 18  1  0  0  0  0
 17 19  1  0  0  0  0
 17 20  1  0  0  0  0
 20 21  1  0  0  0  0
 20 22  1  0  0  0  0
 20 23  1  0  0  0  0
 23 24  1  0  0  0  0
 23 25  1  0  0  0  0
 23 26  1  0  0  0  0
 27 28  2  0  0  0  0
 27 29  1  0  0  0  0
 29 30  1  0  0  0  0
 29 31  1  0  0  0  0
 31 32  1  0  0  0  0
 31 33  1  0  0  0  0
 31 34  1  0  0  0  0
M  CHG  1  23   1
M  END
$$$$

  -OEChem-02102214153D

 34 33  0     1  0  0  0  0  0999 V2000
   -3.8883   -4.1270    1.6296 H   0  0  0  0  0  0  0  0  0  0  0  0
   -3.8635   -3.0564    1.4083 C   0  0  0  0  0  0  0  0  0  0  0  0
   -4.1595   -2.5092    2.3076 H   0  0  0  0  0  0  0  0  0  0  0  0
   -4.5814   -2.8414    0.6128 H   0  0  0  0  0  0  0  0  0  0  0  0
   -2.4696   -2.6339    0.9854 C   0  0  0  0  0  0  0  0  0  0  0  0
   -1.5916   -3.4777    0.8467 O   0  0  0  0  0  0  0  0  0  0  0  0
   -2.2413   -1.3255    0.6227 N   0  0  0  0  0  0  0  0  0  0  0  0
   -3.0418   -0.6982    0.7388 H   0  0  0  0  0  0  0  0  0  0  0  0
   -0.9405   -0.6285    0.6772 C   0  0  1  0  0  0  0  0  0  0  0  0
   -0.2976   -1.1813    1.3707 H   0  0  0  0  0  0  0  0  0  0  0  0
   -0.1665   -0.5138   -0.6683 C   0  0  0  0  0  0  0  0  0  0  0  0
   -0.0423    0.5518   -0.8939 H   0  0  0  0  0  0  0  0  0  0  0  0
    0.8453   -0.9131   -0.5407 H   0  0  0  0  0  0  0  0  0  0  0  0
   -0.8360   -1.1428   -1.9070 C   0  0  0  0  0  0  0  0  0  0  0  0
   -1.9240   -1.0349   -1.8576 H   0  0  0  0  0  0  0  0  0  0  0  0
   -0.5121   -0.5983   -2.8011 H   0  0  0  0  0  0  0  0  0  0  0  0
   -0.3980   -2.6131   -2.0512 C   0  0  0  0  0  0  0  0  0  0  0  0
    0.3700   -2.6939   -2.8281 H   0  0  0  0  0  0  0  0  0  0  0  0
    0.0646   -2.9436   -1.1151 H   0  0  0  0  0  0  0  0  0  0  0  0
   -1.5733   -3.5281   -2.3924 C   0  0  0  0  0  0  0  0  0  0  0  0
   -2.5126   -3.0369   -2.1023 H   0  0  0  0  0  0  0  0  0  0  0  0
   -1.6130   -3.6961   -3.4784 H   0  0  0  0  0  0  0  0  0  0  0  0
   -1.3995   -4.7857   -1.6356 N   0  3  0  0  0  0  0  0  0  0  0  0
   -1.3612   -4.5601   -0.6273 H   0  0  0  0  0  0  0  0  0  0  0  0
   -2.1792   -5.4208   -1.8038 H   0  0  0  0  0  0  0  0  0  0  0  0
   -0.5263   -5.2413   -1.9003 H   0  0  0  0  0  0  0  0  0  0  0  0
   -1.1529    0.7690    1.2994 C   0  0  0  0  0  0  0  0  0  0  0  0
   -2.1758    1.3824    1.0226 O   0  0  0  0  0  0  0  0  0  0  0  0
   -0.2983    1.2655    2.2658 N   0  0  0  0  0  0  0  0  0  0  0  0
    0.5267    0.7225    2.5051 H   0  0  0  0  0  0  0  0  0  0  0  0
   -0.5120    2.5459    2.9339 C   0  0  0  0  0  0  0  0  0  0  0  0
   -1.4585    2.5387    3.4850 H   0  0  0  0  0  0  0  0  0  0  0  0
    0.2978    2.7447    3.6429 H   0  0  0  0  0  0  0  0  0  0  0  0
   -0.5378    3.3615    2.2031 H   0  0  0  0  0  0  0  0  0  0  0  0
  1  2  1  0  0  0  0
  2  3  1  0  0  0  0
  2  4  1  0  0  0  0
  2  5  1  0  0  0  0
  5  6  2  0  0  0  0
  5  7  1  0  0  0  0
  7  8  1  0  0  0  0
  7  9  1  0  0  0  0
  9 10  1  0  0  0  0
  9 11  1  0  0  0  0
  9 27  1  0  0  0  0
 11 12  1  0  0  0  0
 11 13  1  0  0  0  0
 11 14  1  0  0  0  0
 14 15  1  0  0  0  0
 14 16  1  0  0  0  0
 14 17  1  0  0  0  0
 17 18  1  0  0  0  0
 17 19  1  0  0  0  0
 17 20  1  0  0  0  0
 20 21  1  0  0  0  0
 20 22  1  0  0  0  0
 20 23  1  0  0  0  0
 23 24  1  0  0  0  0
 23 25  1  0  0  0  0
 23 26  1  0  0  0  0
 27 28  2  0  0  0  0
 27 29  1  0  0  0  0
 29 30  1  0  0  0  0
 29 31  1  0  0  0  0
 31 32  1  0  0  0  0
 31 33  1  0  0  0  0
 31 34  1  0  0  0  0
M  CHG  1  23   1
M  END
$$$$

  -OEChem-02102214153D

 34 33  0     1  0  0  0  0  0999 V2000
   -4.0630   -4.0112    1.7944 H   0  0  0  0  0  0  0  0  0  0  0  0
   -3.9766   -2.9623    1.4974 C   0  0  0  0  0  0  0  0  0  0  0  0
   -4.2901   -2.3378    2.3386 H   0  0  0  0  0  0  0  0  0  0  0  0
   -4.6444   -2.7758    0.6528 H   0  0  0  0  0  0  0  0  0  0  0  0
   -2.5449   -2.6328    1.1199 C   0  0  0  0  0  0  0  0  0  0  0  0
   -1.7020   -3.5201    1.1110 O   0  0  0  0  0  0  0  0  0  0  0  0
   -2.2446   -1.3645    0.6749 N   0  0  0  0  0  0  0  0  0  0  0  0
   -3.0265   -0.7038    0.7008 H   0  0  0  0  0  0  0  0  0  0  0  0
   -0.9276   -0.7000    0.7568 C   0  0  1  0  0  0  0  0  0  0  0  0
   -0.3292   -1.2168    1.5151 H   0  0  0  0  0  0  0  0  0  0  0  0
   -0.0786   -0.6239   -0.5501 C   0  0  0  0  0  0  0  0  0  0  0  0
    0.1139    0.4306   -0.7798 H   0  0  0  0  0  0  0  0  0  0  0  0
    0.9010   -1.0715   -0.3513 H   0  0  0  0  0  0  0  0  0  0  0  0
   -0.6559   -1.2468   -1.8353 C   0  0  0  0  0  0  0  0  0  0  0  0
   -1.6888   -0.9079   -1.9720 H   0  0  0  0  0  0  0  0  0  0  0  0
   -0.0830   -0.8801   -2.6946 H   0  0  0  0  0  0  0  0  0  0  0  0
   -0.5673   -2.7826   -1.8031 C   0  0  0  0  0  0  0  0  0  0  0  0
    0.1436   -3.1157   -2.5670 H   0  0  0  0  0  0  0  0  0  0  0  0
   -0.1551   -3.0967   -0.8394 H   0  0  0  0  0  0  0  0  0  0  0  0
   -1.9119   -3.4584   -2.0491 C   0  0  0  0  0  0  0  0  0  0  0  0
   -2.7109   -2.8461   -1.6085 H   0  0  0  0  0  0  0  0  0  0  0  0
   -2.1059   -3.5259   -3.1294 H   0  0  0  0  0  0  0  0  0  0  0  0
   -1.8554   -4.7855   -1.4012 N   0  3  0  0  0  0  0  0  0  0  0  0
   -1.6878   -4.6497   -0.3903 H   0  0  0  0  0  0  0  0  0  0  0  0
   -2.7327   -5.2894   -1.5286 H   0  0  0  0  0  0  0  0  0  0  0  0
   -1.0883   -5.3357   -1.7879 H   0  0  0  0  0  0  0  0  0  0  0  0
   -1.1702    0.7410    1.2608 C   0  0  0  0  0  0  0  0  0  0  0  0
   -2.1677    1.3377    0.8737 O   0  0  0  0  0  0  0  0  0  0  0  0
   -0.3784    1.3008    2.2454 N   0  0  0  0  0  0  0  0  0  0  0  0
    0.4241    0.7723    2.5766 H   0  0  0  0  0  0  0  0  0  0  0  0
   -0.6250    2.6252    2.8078 C   0  0  0  0  0  0  0  0  0  0  0  0
   -1.6080    2.6615    3.2895 H   0  0  0  0  0  0  0  0  0  0  0  0
    0.1350    2.8674    3.5572 H   0  0  0  0  0  0  0  0  0  0  0  0
   -0.5899    3.3886    2.0232 H   0  0  0  0  0  0  0  0  0  0  0  0
  1  2  1  0  0  0  0
  2  3  1  0  0  0  0
  2  4  1  0  0  0  0
  2  5  1  0  0  0  0
  5  6  2  0  0  0  0
  5  7  1  0  0  0  0
  7  8  1  0  0  0  0
  7  9  1  0  0  0  0
  9 10  1  0  0  0  0
  9 11  1  0  0  0  0
  9 27  1  0  0  0  0
 11 12  1  0  0  0  0
 11 13  1  0  0  0  0
 11 14  1  0  0  0  0
 14 15  1  0  0  0  0
 14 16  1  0  0  0  0
 14 17  1  0  0  0  0
 17 18  1  0  0  0  0
 17 19  1  0  0  0  0
 17 20  1  0  0  0  0
 20 21  1  0  0  0  0
 20 22  1  0  0  0  0
 20 23  1  0  0  0  0
 23 24  1  0  0  0  0
 23 25  1  0  0  0  0
 23 26  1  0  0  0  0
 27 28  2  0  0  0  0
 27 29  1  0  0  0  0
 29 30  1  0  0  0  0
 29 31  1  0  0  0  0
 31 32  1  0  0  0  0
 31 33  1  0  0  0  0
 31 34  1  0  0  0  0
M  CHG  1  23   1
M  END
$$$$

  -OEChem-02102214153D

 34 33  0     1  0  0  0  0  0999 V2000
   -3.9208   -3.8014    2.7864 H   0  0  0  0  0  0  0  0  0  0  0  0
   -3.9377   -2.7891    2.3727 C   0  0  0  0  0  0  0  0  0  0  0  0
   -4.1959   -2.0898    3.1721 H   0  0  0  0  0  0  0  0  0  0  0  0
   -4.7028   -2.7368    1.5948 H   0  0  0  0  0  0  0  0  0  0  0  0
   -2.5803   -2.4349    1.7963 C   0  0  0  0  0  0  0  0  0  0  0  0
   -1.6784   -3.2595    1.7993 O   0  0  0  0  0  0  0  0  0  0  0  0
   -2.3870   -1.2067    1.1981 N   0  0  0  0  0  0  0  0  0  0  0  0
   -3.1596   -0.5420    1.2772 H   0  0  0  0  0  0  0  0  0  0  0  0
   -1.0654   -0.5955    0.9723 C   0  0  1  0  0  0  0  0  0  0  0  0
   -0.3409   -1.0764    1.6385 H   0  0  0  0  0  0  0  0  0  0  0  0
   -0.4987   -0.6699   -0.4780 C   0  0  0  0  0  0  0  0  0  0  0  0
   -0.2937    0.3486   -0.8278 H   0  0  0  0  0  0  0  0  0  0  0  0
    0.4717   -1.1735   -0.4180 H   0  0  0  0  0  0  0  0  0  0  0  0
   -1.3127   -1.3609   -1.5937 C   0  0  0  0  0  0  0  0  0  0  0  0
   -2.2552   -0.8210   -1.7396 H   0  0  0  0  0  0  0  0  0  0  0  0
   -0.7379   -1.2675   -2.5217 H   0  0  0  0  0  0  0  0  0  0  0  0
   -1.6121   -2.8433   -1.3256 C   0  0  0  0  0  0  0  0  0  0  0  0
   -0.8228   -3.2586   -0.6896 H   0  0  0  0  0  0  0  0  0  0  0  0
   -2.5664   -2.9348   -0.8021 H   0  0  0  0  0  0  0  0  0  0  0  0
   -1.6828   -3.6484   -2.6171 C   0  0  0  0  0  0  0  0  0  0  0  0
   -2.4989   -3.2654   -3.2469 H   0  0  0  0  0  0  0  0  0  0  0  0
   -0.7465   -3.5187   -3.1791 H   0  0  0  0  0  0  0  0  0  0  0  0
   -1.8944   -5.0657   -2.2520 N   0  3  0  0  0  0  0  0  0  0  0  0
   -2.7972   -5.1742   -1.7865 H   0  0  0  0  0  0  0  0  0  0  0  0
   -1.8746   -5.6549   -3.0866 H   0  0  0  0  0  0  0  0  0  0  0  0
   -1.1584   -5.3697   -1.6101 H   0  0  0  0  0  0  0  0  0  0  0  0
   -1.1495    0.8877    1.3953 C   0  0  0  0  0  0  0  0  0  0  0  0
   -2.1571    1.5271    1.1181 O   0  0  0  0  0  0  0  0  0  0  0  0
   -0.1560    1.4727    2.1580 N   0  0  0  0  0  0  0  0  0  0  0  0
    0.6408    0.9019    2.4271 H   0  0  0  0  0  0  0  0  0  0  0  0
   -0.2309    2.8465    2.6454 C   0  0  0  0  0  0  0  0  0  0  0  0
   -1.1052    2.9776    3.2920 H   0  0  0  0  0  0  0  0  0  0  0  0
    0.6653    3.0941    3.2230 H   0  0  0  0  0  0  0  0  0  0  0  0
   -0.3057    3.5481    1.8076 H   0  0  0  0  0  0  0  0  0  0  0  0
  1  2  1  0  0  0  0
  2  3  1  0  0  0  0
  2  4  1  0  0  0  0
  2  5  1  0  0  0  0
  5  6  2  0  0  0  0
  5  7  1  0  0  0  0
  7  8  1  0  0  0  0
  7  9  1  0  0  0  0
  9 10  1  0  0  0  0
  9 11  1  0  0  0  0
  9 27  1  0  0  0  0
 11 12  1  0  0  0  0
 11 13  1  0  0  0  0
 11 14  1  0  0  0  0
 14 15  1  0  0  0  0
 14 16  1  0  0  0  0
 14 17  1  0  0  0  0
 17 18  1  0  0  0  0
 17 19  1  0  0  0  0
 17 20  1  0  0  0  0
 20 21  1  0  0  0  0
 20 22  1  0  0  0  0
 20 23  1  0  0  0  0
 23 24  1  0  0  0  0
 23 25  1  0  0  0  0
 23 26  1  0  0  0  0
 27 28  2  0  0  0  0
 27 29  1  0  0  0  0
 29 30  1  0  0  0  0
 29 31  1  0  0  0  0
 31 32  1  0  0  0  0
 31 33  1  0  0  0  0
 31 34  1  0  0  0  0
M  CHG  1  23   1
M  END
$$$$

  -OEChem-02102214153D

 34 33  0     1  0  0  0  0  0999 V2000
   -3.9285   -3.9658    2.5771 H   0  0  0  0  0  0  0  0  0  0  0  0
   -3.8824   -2.9380    2.2055 C   0  0  0  0  0  0  0  0  0  0  0  0
   -3.9766   -2.2586    3.0573 H   0  0  0  0  0  0  0  0  0  0  0  0
   -4.7198   -2.7672    1.5248 H   0  0  0  0  0  0  0  0  0  0  0  0
   -2.5650   -2.6907    1.4956 C   0  0  0  0  0  0  0  0  0  0  0  0
   -1.8080   -3.6258    1.2883 O   0  0  0  0  0  0  0  0  0  0  0  0
   -2.3339   -1.4636    0.9139 N   0  0  0  0  0  0  0  0  0  0  0  0
   -3.1038   -0.7980    1.0330 H   0  0  0  0  0  0  0  0  0  0  0  0
   -1.0278   -0.7766    0.8716 C   0  0  1  0  0  0  0  0  0  0  0  0
   -0.4050   -1.2062    1.6644 H   0  0  0  0  0  0  0  0  0  0  0  0
   -0.1566   -0.7417   -0.4311 C   0  0  0  0  0  0  0  0  0  0  0  0
    0.0785    0.3028   -0.6679 H   0  0  0  0  0  0  0  0  0  0  0  0
    0.7950   -1.2019   -0.1443 H   0  0  0  0  0  0  0  0  0  0  0  0
   -0.5311   -1.3997   -1.7822 C   0  0  0  0  0  0  0  0  0  0  0  0
   -1.2672   -0.7618   -2.2837 H   0  0  0  0  0  0  0  0  0  0  0  0
    0.3696   -1.3917   -2.4070 H   0  0  0  0  0  0  0  0  0  0  0  0
   -1.0696   -2.8318   -1.7425 C   0  0  0  0  0  0  0  0  0  0  0  0
   -0.6467   -3.3244   -0.8634 H   0  0  0  0  0  0  0  0  0  0  0  0
   -0.6758   -3.3654   -2.6142 H   0  0  0  0  0  0  0  0  0  0  0  0
   -2.5867   -2.9539   -1.7854 C   0  0  0  0  0  0  0  0  0  0  0  0
   -3.0416   -2.1714   -1.1652 H   0  0  0  0  0  0  0  0  0  0  0  0
   -2.9469   -2.8034   -2.8132 H   0  0  0  0  0  0  0  0  0  0  0  0
   -2.8992   -4.3044   -1.2727 N   0  3  0  0  0  0  0  0  0  0  0  0
   -2.4862   -4.4017   -0.3311 H   0  0  0  0  0  0  0  0  0  0  0  0
   -3.9072   -4.4467   -1.2161 H   0  0  0  0  0  0  0  0  0  0  0  0
   -2.4901   -5.0144   -1.8805 H   0  0  0  0  0  0  0  0  0  0  0  0
   -1.3094    0.6959    1.2560 C   0  0  0  0  0  0  0  0  0  0  0  0
   -2.3540    1.2127    0.8765 O   0  0  0  0  0  0  0  0  0  0  0  0
   -0.5029    1.3712    2.1527 N   0  0  0  0  0  0  0  0  0  0  0  0
    0.3444    0.9132    2.4785 H   0  0  0  0  0  0  0  0  0  0  0  0
   -0.7730    2.7366    2.5947 C   0  0  0  0  0  0  0  0  0  0  0  0
   -1.7280    2.7867    3.1289 H   0  0  0  0  0  0  0  0  0  0  0  0
    0.0173    3.0807    3.2694 H   0  0  0  0  0  0  0  0  0  0  0  0
   -0.8141    3.4176    1.7375 H   0  0  0  0  0  0  0  0  0  0  0  0
  1  2  1  0  0  0  0
  2  3  1  0  0  0  0
  2  4  1  0  0  0  0
  2  5  1  0  0  0  0
  5  6  2  0  0  0  0
  5  7  1  0  0  0  0
  7  8  1  0  0  0  0
  7  9  1  0  0  0  0
  9 10  1  0  0  0  0
  9 11  1  0  0  0  0
  9 27  1  0  0  0  0
 11 12  1  0  0  0  0
 11 13  1  0  0  0  0
 11 14  1  0  0  0  0
 14 15  1  0  0  0  0
 14 16  1  0  0  0  0
 14 17  1  0  0  0  0
 17 18  1  0  0  0  0
 17 19  1  0  0  0  0
 17 20  1  0  0  0  0
 20 21  1  0  0  0  0
 20 22  1  0  0  0  0
 20 23  1  0  0  0  0
 23 24  1  0  0  0  0
 23 25  1  0  0  0  0
 23 26  1  0  0  0  0
 27 28  2  0  0  0  0
 27 29  1  0  0  0  0
 29 30  1  0  0  0  0
 29 31  1  0  0  0  0
 31 32  1  0  0  0  0
 31 33  1  0  0  0  0
 31 34  1  0  0  0  0
M  CHG  1  23   1
M  END
$$$$

  -OEChem-02102214153D

 34 33  0     1  0  0  0  0  0999 V2000
   -3.9660   -3.6873    3.0087 H   0  0  0  0  0  0  0  0  0  0  0  0
   -3.9356   -2.6529    2.6551 C   0  0  0  0  0  0  0  0  0  0  0  0
   -4.0841   -1.9871    3.5093 H   0  0  0  0  0  0  0  0  0  0  0  0
   -4.7469   -2.4989    1.9400 H   0  0  0  0  0  0  0  0  0  0  0  0
   -2.5979   -2.3603    2.0035 C   0  0  0  0  0  0  0  0  0  0  0  0
   -1.7199   -3.2079    1.9997 O   0  0  0  0  0  0  0  0  0  0  0  0
   -2.3990   -1.1598    1.3546 N   0  0  0  0  0  0  0  0  0  0  0  0
   -3.1495   -0.4722    1.4487 H   0  0  0  0  0  0  0  0  0  0  0  0
   -1.0737   -0.5820    1.0758 C   0  0  1  0  0  0  0  0  0  0  0  0
   -0.3519   -1.0434    1.7594 H   0  0  0  0  0  0  0  0  0  0  0  0
   -0.4867   -0.6998   -0.3697 C   0  0  0  0  0  0  0  0  0  0  0  0
   -0.2080    0.3004   -0.7212 H   0  0  0  0  0  0  0  0  0  0  0  0
    0.4550   -1.2452   -0.2447 H   0  0  0  0  0  0  0  0  0  0  0  0
   -1.2094   -1.3954   -1.5544 C   0  0  0  0  0  0  0  0  0  0  0  0
   -1.7975   -0.6309   -2.0743 H   0  0  0  0  0  0  0  0  0  0  0  0
   -0.4349   -1.7334   -2.2518 H   0  0  0  0  0  0  0  0  0  0  0  0
   -2.1524   -2.5628   -1.2477 C   0  0  0  0  0  0  0  0  0  0  0  0
   -1.6623   -3.2206   -0.5250 H   0  0  0  0  0  0  0  0  0  0  0  0
   -3.0909   -2.1930   -0.8258 H   0  0  0  0  0  0  0  0  0  0  0  0
   -2.4529   -3.3622   -2.5108 C   0  0  0  0  0  0  0  0  0  0  0  0
   -3.0291   -2.7411   -3.2124 H   0  0  0  0  0  0  0  0  0  0  0  0
   -1.5067   -3.6230   -3.0072 H   0  0  0  0  0  0  0  0  0  0  0  0
   -3.1954   -4.5793   -2.1192 N   0  3  0  0  0  0  0  0  0  0  0  0
   -4.1077   -4.3241   -1.7382 H   0  0  0  0  0  0  0  0  0  0  0  0
   -3.3294   -5.1881   -2.9290 H   0  0  0  0  0  0  0  0  0  0  0  0
   -2.6696   -5.0873   -1.4033 H   0  0  0  0  0  0  0  0  0  0  0  0
   -1.1423    0.9161    1.4485 C   0  0  0  0  0  0  0  0  0  0  0  0
   -2.1546    1.5494    1.1728 O   0  0  0  0  0  0  0  0  0  0  0  0
   -0.1315    1.5225    2.1704 N   0  0  0  0  0  0  0  0  0  0  0  0
    0.6718    0.9592    2.4365 H   0  0  0  0  0  0  0  0  0  0  0  0
   -0.1891    2.9135    2.6092 C   0  0  0  0  0  0  0  0  0  0  0  0
   -1.0415    3.0707    3.2791 H   0  0  0  0  0  0  0  0  0  0  0  0
    0.7259    3.1803    3.1476 H   0  0  0  0  0  0  0  0  0  0  0  0
   -0.2899    3.5839    1.7488 H   0  0  0  0  0  0  0  0  0  0  0  0
  1  2  1  0  0  0  0
  2  3  1  0  0  0  0
  2  4  1  0  0  0  0
  2  5  1  0  0  0  0
  5  6  2  0  0  0  0
  5  7  1  0  0  0  0
  7  8  1  0  0  0  0
  7  9  1  0  0  0  0
  9 10  1  0  0  0  0
  9 11  1  0  0  0  0
  9 27  1  0  0  0  0
 11 12  1  0  0  0  0
 11 13  1  0  0  0  0
 11 14  1  0  0  0  0
 14 15  1  0  0  0  0
 14 16  1  0  0  0  0
 14 17  1  0  0  0  0
 17 18  1  0  0  0  0
 17 19  1  0  0  0  0
 17 20  1  0  0  0  0
 20 21  1  0  0  0  0
 20 22  1  0  0  0  0
 20 23  1  0  0  0  0
 23 24  1  0  0  0  0
 23 25  1  0  0  0  0
 23 26  1  0  0  0  0
 27 28  2  0  0  0  0
 27 29  1  0  0  0  0
 29 30  1  0  0  0  0
 29 31  1  0  0  0  0
 31 32  1  0  0  0  0
 31 33  1  0  0  0  0
 31 34  1  0  0  0  0
M  CHG  1  23   1
M  END
$$$$

  -OEChem-02102214153D

 34 33  0     1  0  0  0  0  0999 V2000
   -3.8007   -3.7583    3.1185 H   0  0  0  0  0  0  0  0  0  0  0  0
   -3.7983   -2.7116    2.8012 C   0  0  0  0  0  0  0  0  0  0  0  0
   -3.8833   -2.0780    3.6879 H   0  0  0  0  0  0  0  0  0  0  0  0
   -4.6609   -2.5356    2.1547 H   0  0  0  0  0  0  0  0  0  0  0  0
   -2.5129   -2.3903    2.0631 C   0  0  0  0  0  0  0  0  0  0  0  0
   -1.6266   -3.2245    1.9816 O   0  0  0  0  0  0  0  0  0  0  0  0
   -2.3716   -1.1777    1.4215 N   0  0  0  0  0  0  0  0  0  0  0  0
   -3.1187   -0.4994    1.5842 H   0  0  0  0  0  0  0  0  0  0  0  0
   -1.0677   -0.5771    1.0946 C   0  0  1  0  0  0  0  0  0  0  0  0
   -0.3161   -1.0330    1.7492 H   0  0  0  0  0  0  0  0  0  0  0  0
   -0.5198   -0.6763   -0.3681 C   0  0  0  0  0  0  0  0  0  0  0  0
   -0.2692    0.3330   -0.7149 H   0  0  0  0  0  0  0  0  0  0  0  0
    0.4375   -1.1993   -0.2697 H   0  0  0  0  0  0  0  0  0  0  0  0
   -1.2461   -1.3747   -1.5526 C   0  0  0  0  0  0  0  0  0  0  0  0
   -1.6288   -0.5808   -2.2041 H   0  0  0  0  0  0  0  0  0  0  0  0
   -0.4842   -1.9157   -2.1252 H   0  0  0  0  0  0  0  0  0  0  0  0
   -2.4147   -2.3246   -1.2779 C   0  0  0  0  0  0  0  0  0  0  0  0
   -2.0916   -3.0784   -0.5554 H   0  0  0  0  0  0  0  0  0  0  0  0
   -3.2650   -1.7694   -0.8705 H   0  0  0  0  0  0  0  0  0  0  0  0
   -2.8352   -3.0251   -2.5660 C   0  0  0  0  0  0  0  0  0  0  0  0
   -3.2378   -2.2837   -3.2717 H   0  0  0  0  0  0  0  0  0  0  0  0
   -1.9492   -3.4756   -3.0369 H   0  0  0  0  0  0  0  0  0  0  0  0
   -3.8374   -4.0591   -2.2323 N   0  3  0  0  0  0  0  0  0  0  0  0
   -4.6757   -3.6207   -1.8478 H   0  0  0  0  0  0  0  0  0  0  0  0
   -4.0909   -4.5880   -3.0692 H   0  0  0  0  0  0  0  0  0  0  0  0
   -3.4506   -4.7018   -1.5371 H   0  0  0  0  0  0  0  0  0  0  0  0
   -1.1423    0.9149    1.4890 C   0  0  0  0  0  0  0  0  0  0  0  0
   -2.1768    1.5341    1.2679 O   0  0  0  0  0  0  0  0  0  0  0  0
   -0.1114    1.5286    2.1756 N   0  0  0  0  0  0  0  0  0  0  0  0
    0.7172    0.9791    2.3882 H   0  0  0  0  0  0  0  0  0  0  0  0
   -0.1665    2.9164    2.6250 C   0  0  0  0  0  0  0  0  0  0  0  0
   -1.0020    3.0640    3.3179 H   0  0  0  0  0  0  0  0  0  0  0  0
    0.7605    3.1857    3.1411 H   0  0  0  0  0  0  0  0  0  0  0  0
   -0.2942    3.5915    1.7719 H   0  0  0  0  0  0  0  0  0  0  0  0
  1  2  1  0  0  0  0
  2  3  1  0  0  0  0
  2  4  1  0  0  0  0
  2  5  1  0  0  0  0
  5  6  2  0  0  0  0
  5  7  1  0  0  0  0
  7  8  1  0  0  0  0
  7  9  1  0  0  0  0
  9 10  1  0  0  0  0
  9 11  1  0  0  0  0
  9 27  1  0  0  0  0
 11 12  1  0  0  0  0
 11 13  1  0  0  0  0
 11 14  1  0  0  0  0
 14 15  1  0  0  0  0
 14 16  1  0  0  0  0
 14 17  1  0  0  0  0
 17 18  1  0  0  0  0
 17 19  1  0  0  0  0
 17 20  1  0  0  0  0
 20 21  1  0  0  0  0
 20 22  1  0  0  0  0
 20 23  1  0  0  0  0
 23 24  1  0  0  0  0
 23 25  1  0  0  0  0
 23 26  1  0  0  0  0
 27 28  2  0  0  0  0
 27 29  1  0  0  0  0
 29 30  1  0  0  0  0
 29 31  1  0  0  0  0
 31 32  1  0  0  0  0
 31 33  1  0  0  0  0
 31 34  1  0  0  0  0
M  CHG  1  23   1
M  END
$$$$

  -OEChem-02102214153D

 34 33  0     1  0  0  0  0  0999 V2000
   -3.4741   -3.8740    3.2456 H   0  0  0  0  0  0  0  0  0  0  0  0
   -3.5983   -2.8604    2.8531 C   0  0  0  0  0  0  0  0  0  0  0  0
   -3.7171   -2.1726    3.6946 H   0  0  0  0  0  0  0  0  0  0  0  0
   -4.4993   -2.8273    2.2371 H   0  0  0  0  0  0  0  0  0  0  0  0
   -2.3850   -2.4669    2.0322 C   0  0  0  0  0  0  0  0  0  0  0  0
   -1.4836   -3.2661    1.8440 O   0  0  0  0  0  0  0  0  0  0  0  0
   -2.3269   -1.2261    1.4330 N   0  0  0  0  0  0  0  0  0  0  0  0
   -3.0763   -0.5783    1.6832 H   0  0  0  0  0  0  0  0  0  0  0  0
   -1.0561   -0.5742    1.0754 C   0  0  1  0  0  0  0  0  0  0  0  0
   -0.2674   -1.0280    1.6864 H   0  0  0  0  0  0  0  0  0  0  0  0
   -0.5556   -0.6229   -0.4062 C   0  0  0  0  0  0  0  0  0  0  0  0
   -0.3824    0.4092   -0.7327 H   0  0  0  0  0  0  0  0  0  0  0  0
    0.4363   -1.0861   -0.3632 H   0  0  0  0  0  0  0  0  0  0  0  0
   -1.2981   -1.3192   -1.5833 C   0  0  0  0  0  0  0  0  0  0  0  0
   -1.4689   -0.5531   -2.3481 H   0  0  0  0  0  0  0  0  0  0  0  0
   -0.6030   -2.0478   -2.0161 H   0  0  0  0  0  0  0  0  0  0  0  0
   -2.6305   -2.0344   -1.3448 C   0  0  0  0  0  0  0  0  0  0  0  0
   -2.4741   -2.8612   -0.6467 H   0  0  0  0  0  0  0  0  0  0  0  0
   -3.3593   -1.3348   -0.9228 H   0  0  0  0  0  0  0  0  0  0  0  0
   -3.1570   -2.5906   -2.6646 C   0  0  0  0  0  0  0  0  0  0  0  0
   -3.3506   -1.7593   -3.3582 H   0  0  0  0  0  0  0  0  0  0  0  0
   -2.3826   -3.2232   -3.1231 H   0  0  0  0  0  0  0  0  0  0  0  0
   -4.3860   -3.3676   -2.4001 N   0  3  0  0  0  0  0  0  0  0  0  0
   -5.0997   -2.7613   -1.9922 H   0  0  0  0  0  0  0  0  0  0  0  0
   -4.7448   -3.7664   -3.2701 H   0  0  0  0  0  0  0  0  0  0  0  0
   -4.1804   -4.1262   -1.7464 H   0  0  0  0  0  0  0  0  0  0  0  0
   -1.1550    0.8993    1.5283 C   0  0  0  0  0  0  0  0  0  0  0  0
   -2.2175    1.4924    1.3785 O   0  0  0  0  0  0  0  0  0  0  0  0
   -0.1134    1.5179    2.1939 N   0  0  0  0  0  0  0  0  0  0  0  0
    0.7385    0.9854    2.3509 H   0  0  0  0  0  0  0  0  0  0  0  0
   -0.1970    2.8774    2.7186 C   0  0  0  0  0  0  0  0  0  0  0  0
   -1.0003    2.9549    3.4592 H   0  0  0  0  0  0  0  0  0  0  0  0
    0.7447    3.1569    3.2013 H   0  0  0  0  0  0  0  0  0  0  0  0
   -0.3941    3.5902    1.9107 H   0  0  0  0  0  0  0  0  0  0  0  0
  1  2  1  0  0  0  0
  2  3  1  0  0  0  0
  2  4  1  0  0  0  0
  2  5  1  0  0  0  0
  5  6  2  0  0  0  0
  5  7  1  0  0  0  0
  7  8  1  0  0  0  0
  7  9  1  0  0  0  0
  9 10  1  0  0  0  0
  9 11  1  0  0  0  0
  9 27  1  0  0  0  0
 11 12  1  0  0  0  0
 11 13  1  0  0  0  0
 11 14  1  0  0  0  0
 14 15  1  0  0  0  0
 14 16  1  0  0  0  0
 14 17  1  0  0  0  0
 17 18  1  0  0  0  0
 17 19  1  0  0  0  0
 17 20  1  0  0  0  0
 20 21  1  0  0  0  0
 20 22  1  0  0  0  0
 20 23  1  0  0  0  0
 23 24  1  0  0  0  0
 23 25  1  0  0  0  0
 23 26  1  0  0  0  0
 27 28  2  0  0  0  0
 27 29  1  0  0  0  0
 29 30  1  0  0  0  0
 29 31  1  0  0  0  0
 31 32  1  0  0  0  0
 31 33  1  0  0  0  0
 31 34  1  0  0  0  0
M  CHG  1  23   1
M  END
$$$$

  -OEChem-02102214153D

 34 33  0     1  0  0  0  0  0999 V2000
   -3.3623   -3.9799    3.1551 H   0  0  0  0  0  0  0  0  0  0  0  0
   -3.5212   -2.9650    2.7791 C   0  0  0  0  0  0  0  0  0  0  0  0
   -3.6698   -2.2968    3.6312 H   0  0  0  0  0  0  0  0  0  0  0  0
   -4.4188   -2.9553    2.1573 H   0  0  0  0  0  0  0  0  0  0  0  0
   -2.3189   -2.5141    1.9718 C   0  0  0  0  0  0  0  0  0  0  0  0
   -1.3941   -3.2806    1.7649 O   0  0  0  0  0  0  0  0  0  0  0  0
   -2.2975   -1.2594    1.3987 N   0  0  0  0  0  0  0  0  0  0  0  0
   -3.0563   -0.6342    1.6746 H   0  0  0  0  0  0  0  0  0  0  0  0
   -1.0422   -0.5767    1.0454 C   0  0  1  0  0  0  0  0  0  0  0  0
   -0.2409   -1.0271    1.6426 H   0  0  0  0  0  0  0  0  0  0  0  0
   -0.5557   -0.6081   -0.4399 C   0  0  0  0  0  0  0  0  0  0  0  0
   -0.4435    0.4338   -0.7612 H   0  0  0  0  0  0  0  0  0  0  0  0
    0.4579   -1.0234   -0.4262 H   0  0  0  0  0  0  0  0  0  0  0  0
   -1.3074   -1.3167   -1.6018 C   0  0  0  0  0  0  0  0  0  0  0  0
   -1.2452   -0.6562   -2.4741 H   0  0  0  0  0  0  0  0  0  0  0  0
   -0.7389   -2.2207   -1.8480 H   0  0  0  0  0  0  0  0  0  0  0  0
   -2.7676   -1.7442   -1.4177 C   0  0  0  0  0  0  0  0  0  0  0  0
   -2.8180   -2.5859   -0.7220 H   0  0  0  0  0  0  0  0  0  0  0  0
   -3.3461   -0.9062   -1.0138 H   0  0  0  0  0  0  0  0  0  0  0  0
   -3.3514   -2.1747   -2.7602 C   0  0  0  0  0  0  0  0  0  0  0  0
   -3.2931   -1.3336   -3.4667 H   0  0  0  0  0  0  0  0  0  0  0  0
   -2.7402   -2.9904   -3.1739 H   0  0  0  0  0  0  0  0  0  0  0  0
   -4.7507   -2.6069   -2.5592 N   0  3  0  0  0  0  0  0  0  0  0  0
   -5.3002   -1.8362   -2.1743 H   0  0  0  0  0  0  0  0  0  0  0  0
   -5.1608   -2.8962   -3.4497 H   0  0  0  0  0  0  0  0  0  0  0  0
   -4.7799   -3.3941   -1.9084 H   0  0  0  0  0  0  0  0  0  0  0  0
   -1.1586    0.8860    1.5262 C   0  0  0  0  0  0  0  0  0  0  0  0
   -2.2289    1.4679    1.3853 O   0  0  0  0  0  0  0  0  0  0  0  0
   -0.1213    1.5084    2.1944 N   0  0  0  0  0  0  0  0  0  0  0  0
    0.7330    0.9792    2.3507 H   0  0  0  0  0  0  0  0  0  0  0  0
   -0.2224    2.8557    2.7466 C   0  0  0  0  0  0  0  0  0  0  0  0
   -0.9949    2.8961    3.5221 H   0  0  0  0  0  0  0  0  0  0  0  0
    0.7308    3.1559    3.1931 H   0  0  0  0  0  0  0  0  0  0  0  0
   -0.4756    3.5757    1.9608 H   0  0  0  0  0  0  0  0  0  0  0  0
  1  2  1  0  0  0  0
  2  3  1  0  0  0  0
  2  4  1  0  0  0  0
  2  5  1  0  0  0  0
  5  6  2  0  0  0  0
  5  7  1  0  0  0  0
  7  8  1  0  0  0  0
  7  9  1  0  0  0  0
  9 10  1  0  0  0  0
  9 11  1  0  0  0  0
  9 27  1  0  0  0  0
 11 12  1  0  0  0  0
 11 13  1  0  0  0  0
 11 14  1  0  0  0  0
 14 15  1  0  0  0  0
 14 16  1  0  0  0  0
 14 17  1  0  0  0  0
 17 18  1  0  0  0  0
 17 19  1  0  0  0  0
 17 20  1  0  0  0  0
 20 21  1  0  0  0  0
 20 22  1  0  0  0  0
 20 23  1  0  0  0  0
 23 24  1  0  0  0  0
 23 25  1  0  0  0  0
 23 26  1  0  0  0  0
 27 28  2  0  0  0  0
 27 29  1  0  0  0  0
 29 30  1  0  0  0  0
 29 31  1  0  0  0  0
 31 32  1  0  0  0  0
 31 33  1  0  0  0  0
 31 34  1  0  0  0  0
M  CHG  1  23   1
M  END
$$$$

  -OEChem-02102214153D

 34 33  0     1  0  0  0  0  0999 V2000
   -3.3126   -4.0617    3.0756 H   0  0  0  0  0  0  0  0  0  0  0  0
   -3.5018   -3.0681    2.6589 C   0  0  0  0  0  0  0  0  0  0  0  0
   -3.7401   -2.3862    3.4791 H   0  0  0  0  0  0  0  0  0  0  0  0
   -4.3566   -3.1266    1.9820 H   0  0  0  0  0  0  0  0  0  0  0  0
   -2.2764   -2.5749    1.9137 C   0  0  0  0  0  0  0  0  0  0  0  0
   -1.3100   -3.3037    1.7716 O   0  0  0  0  0  0  0  0  0  0  0  0
   -2.2688   -1.3195    1.3402 N   0  0  0  0  0  0  0  0  0  0  0  0
   -3.0520   -0.7143    1.5883 H   0  0  0  0  0  0  0  0  0  0  0  0
   -1.0190   -0.6132    1.0159 C   0  0  1  0  0  0  0  0  0  0  0  0
   -0.2146   -1.0472    1.6210 H   0  0  0  0  0  0  0  0  0  0  0  0
   -0.5305   -0.6391   -0.4664 C   0  0  0  0  0  0  0  0  0  0  0  0
   -0.4359    0.4027   -0.7937 H   0  0  0  0  0  0  0  0  0  0  0  0
    0.4867   -1.0458   -0.4605 H   0  0  0  0  0  0  0  0  0  0  0  0
   -1.2959   -1.3641   -1.6044 C   0  0  0  0  0  0  0  0  0  0  0  0
   -1.0293   -0.8616   -2.5407 H   0  0  0  0  0  0  0  0  0  0  0  0
   -0.9041   -2.3859   -1.6668 H   0  0  0  0  0  0  0  0  0  0  0  0
   -2.8246   -1.4686   -1.5012 C   0  0  0  0  0  0  0  0  0  0  0  0
   -3.1000   -2.2818   -0.8236 H   0  0  0  0  0  0  0  0  0  0  0  0
   -3.2234   -0.5263   -1.1084 H   0  0  0  0  0  0  0  0  0  0  0  0
   -3.4221   -1.7454   -2.8780 C   0  0  0  0  0  0  0  0  0  0  0  0
   -3.0898   -0.9652   -3.5784 H   0  0  0  0  0  0  0  0  0  0  0  0
   -3.0375   -2.7050   -3.2542 H   0  0  0  0  0  0  0  0  0  0  0  0
   -4.8961   -1.7618   -2.7660 N   0  3  0  0  0  0  0  0  0  0  0  0
   -5.2252   -0.8673   -2.3967 H   0  0  0  0  0  0  0  0  0  0  0  0
   -5.3173   -1.9175   -3.6843 H   0  0  0  0  0  0  0  0  0  0  0  0
   -5.1890   -2.5094   -2.1346 H   0  0  0  0  0  0  0  0  0  0  0  0
   -1.1728    0.8471    1.4914 C   0  0  0  0  0  0  0  0  0  0  0  0
   -2.2405    1.4177    1.2919 O   0  0  0  0  0  0  0  0  0  0  0  0
   -0.1650    1.4918    2.1829 N   0  0  0  0  0  0  0  0  0  0  0  0
    0.6866    0.9724    2.3819 H   0  0  0  0  0  0  0  0  0  0  0  0
   -0.2938    2.8513    2.6983 C   0  0  0  0  0  0  0  0  0  0  0  0
   -1.0877    2.9030    3.4511 H   0  0  0  0  0  0  0  0  0  0  0  0
    0.6442    3.1721    3.1627 H   0  0  0  0  0  0  0  0  0  0  0  0
   -0.5316    3.5496    1.8885 H   0  0  0  0  0  0  0  0  0  0  0  0
  1  2  1  0  0  0  0
  2  3  1  0  0  0  0
  2  4  1  0  0  0  0
  2  5  1  0  0  0  0
  5  6  2  0  0  0  0
  5  7  1  0  0  0  0
  7  8  1  0  0  0  0
  7  9  1  0  0  0  0
  9 10  1  0  0  0  0
  9 11  1  0  0  0  0
  9 27  1  0  0  0  0
 11 12  1  0  0  0  0
 11 13  1  0  0  0  0
 11 14  1  0  0  0  0
 14 15  1  0  0  0  0
 14 16  1  0  0  0  0
 14 17  1  0  0  0  0
 17 18  1  0  0  0  0
 17 19  1  0  0  0  0
 17 20  1  0  0  0  0
 20 21  1  0  0  0  0
 20 22  1  0  0  0  0
 20 23  1  0  0  0  0
 23 24  1  0  0  0  0
 23 25  1  0  0  0  0
 23 26  1  0  0  0  0
 27 28  2  0  0  0  0
 27 29  1  0  0  0  0
 29 30  1  0  0  0  0
 29 31  1  0  0  0  0
 31 32  1  0  0  0  0
 31 33  1  0  0  0  0
 31 34  1  0  0  0  0
M  CHG  1  23   1
M  END
$$$$

  -OEChem-02102214153D

 34 33  0     1  0  0  0  0  0999 V2000
   -3.3929   -4.1086    2.9196 H   0  0  0  0  0  0  0  0  0  0  0  0
   -3.5472   -3.0957    2.5359 C   0  0  0  0  0  0  0  0  0  0  0  0
   -3.8008   -2.4399    3.3726 H   0  0  0  0  0  0  0  0  0  0  0  0
   -4.3786   -3.1115    1.8283 H   0  0  0  0  0  0  0  0  0  0  0  0
   -2.2869   -2.5999    1.8530 C   0  0  0  0  0  0  0  0  0  0  0  0
   -1.2990   -3.3111    1.7952 O   0  0  0  0  0  0  0  0  0  0  0  0
   -2.2627   -1.3542    1.2591 N   0  0  0  0  0  0  0  0  0  0  0  0
   -3.0635   -0.7545    1.4571 H   0  0  0  0  0  0  0  0  0  0  0  0
   -1.0060   -0.6433    0.9715 C   0  0  1  0  0  0  0  0  0  0  0  0
   -0.2132   -1.0627    1.6016 H   0  0  0  0  0  0  0  0  0  0  0  0
   -0.4987   -0.6893   -0.5008 C   0  0  0  0  0  0  0  0  0  0  0  0
   -0.3852    0.3422   -0.8532 H   0  0  0  0  0  0  0  0  0  0  0  0
    0.5090   -1.1180   -0.4812 H   0  0  0  0  0  0  0  0  0  0  0  0
   -1.2873   -1.4421   -1.5977 C   0  0  0  0  0  0  0  0  0  0  0  0
   -0.8548   -1.1569   -2.5631 H   0  0  0  0  0  0  0  0  0  0  0  0
   -1.1155   -2.5172   -1.4708 H   0  0  0  0  0  0  0  0  0  0  0  0
   -2.8064   -1.1996   -1.6158 C   0  0  0  0  0  0  0  0  0  0  0  0
   -3.3086   -1.9062   -0.9490 H   0  0  0  0  0  0  0  0  0  0  0  0
   -3.0116   -0.1815   -1.2653 H   0  0  0  0  0  0  0  0  0  0  0  0
   -3.3528   -1.3724   -3.0302 C   0  0  0  0  0  0  0  0  0  0  0  0
   -2.8012   -0.7095   -3.7130 H   0  0  0  0  0  0  0  0  0  0  0  0
   -3.1760   -2.4050   -3.3656 H   0  0  0  0  0  0  0  0  0  0  0  0
   -4.7944   -1.0446   -3.0260 N   0  3  0  0  0  0  0  0  0  0  0  0
   -4.9327   -0.0993   -2.6618 H   0  0  0  0  0  0  0  0  0  0  0  0
   -5.1696   -1.0931   -3.9754 H   0  0  0  0  0  0  0  0  0  0  0  0
   -5.3009   -1.7049   -2.4339 H   0  0  0  0  0  0  0  0  0  0  0  0
   -1.1880    0.8233    1.4153 C   0  0  0  0  0  0  0  0  0  0  0  0
   -2.2471    1.3857    1.1523 O   0  0  0  0  0  0  0  0  0  0  0  0
   -0.2132    1.4883    2.1340 N   0  0  0  0  0  0  0  0  0  0  0  0
    0.6294    0.9758    2.3833 H   0  0  0  0  0  0  0  0  0  0  0  0
   -0.3762    2.8515    2.6292 C   0  0  0  0  0  0  0  0  0  0  0  0
   -1.1782    2.8959    3.3737 H   0  0  0  0  0  0  0  0  0  0  0  0
    0.5501    3.1986    3.0979 H   0  0  0  0  0  0  0  0  0  0  0  0
   -0.6211    3.5335    1.8077 H   0  0  0  0  0  0  0  0  0  0  0  0
  1  2  1  0  0  0  0
  2  3  1  0  0  0  0
  2  4  1  0  0  0  0
  2  5  1  0  0  0  0
  5  6  2  0  0  0  0
  5  7  1  0  0  0  0
  7  8  1  0  0  0  0
  7  9  1  0  0  0  0
  9 10  1  0  0  0  0
  9 11  1  0  0  0  0
  9 27  1  0  0  0  0
 11 12  1  0  0  0  0
 11 13  1  0  0  0  0
 11 14  1  0  0  0  0
 14 15  1  0  0  0  0
 14 16  1  0  0  0  0
 14 17  1  0  0  0  0
 17 18  1  0  0  0  0
 17 19  1  0  0  0  0
 17 20  1  0  0  0  0
 20 21  1  0  0  0  0
 20 22  1  0  0  0  0
 20 23  1  0  0  0  0
 23 24  1  0  0  0  0
 23 25  1  0  0  0  0
 23 26  1  0  0  0  0
 27 28  2  0  0  0  0
 27 29  1  0  0  0  0
 29 30  1  0  0  0  0
 29 31  1  0  0  0  0
 31 32  1  0  0  0  0
 31 33  1  0  0  0  0
 31 34  1  0  0  0  0
M  CHG  1  23   1
M  END
$$$$

  -OEChem-02102214153D

 34 33  0     1  0  0  0  0  0999 V2000
   -3.4816   -4.1635    2.6326 H   0  0  0  0  0  0  0  0  0  0  0  0
   -3.6036   -3.1226    2.3192 C   0  0  0  0  0  0  0  0  0  0  0  0
   -3.8745   -2.5236    3.1921 H   0  0  0  0  0  0  0  0  0  0  0  0
   -4.4090   -3.0694    1.5836 H   0  0  0  0  0  0  0  0  0  0  0  0
   -2.3109   -2.6053    1.7187 C   0  0  0  0  0  0  0  0  0  0  0  0
   -1.3182   -3.3118    1.6960 O   0  0  0  0  0  0  0  0  0  0  0  0
   -2.2613   -1.3463    1.1557 N   0  0  0  0  0  0  0  0  0  0  0  0
   -3.0722   -0.7523    1.3264 H   0  0  0  0  0  0  0  0  0  0  0  0
   -0.9946   -0.6314    0.9277 C   0  0  1  0  0  0  0  0  0  0  0  0
   -0.2177   -1.0692    1.5651 H   0  0  0  0  0  0  0  0  0  0  0  0
   -0.4701   -0.6546   -0.5356 C   0  0  0  0  0  0  0  0  0  0  0  0
   -0.3240    0.3753   -0.8800 H   0  0  0  0  0  0  0  0  0  0  0  0
    0.5232   -1.1160   -0.5132 H   0  0  0  0  0  0  0  0  0  0  0  0
   -1.2874   -1.3950   -1.6152 C   0  0  0  0  0  0  0  0  0  0  0  0
   -0.7342   -1.3161   -2.5576 H   0  0  0  0  0  0  0  0  0  0  0  0
   -1.3452   -2.4592   -1.3586 H   0  0  0  0  0  0  0  0  0  0  0  0
   -2.7106   -0.8365   -1.8056 C   0  0  0  0  0  0  0  0  0  0  0  0
   -3.3867   -1.2303   -1.0436 H   0  0  0  0  0  0  0  0  0  0  0  0
   -2.6823    0.2544   -1.7044 H   0  0  0  0  0  0  0  0  0  0  0  0
   -3.2468   -1.2098   -3.1838 C   0  0  0  0  0  0  0  0  0  0  0  0
   -2.5405   -0.8642   -3.9528 H   0  0  0  0  0  0  0  0  0  0  0  0
   -3.3074   -2.3050   -3.2669 H   0  0  0  0  0  0  0  0  0  0  0  0
   -4.5726   -0.5788   -3.3593 N   0  3  0  0  0  0  0  0  0  0  0  0
   -4.4910    0.4344   -3.2497 H   0  0  0  0  0  0  0  0  0  0  0  0
   -4.9410   -0.7842   -4.2902 H   0  0  0  0  0  0  0  0  0  0  0  0
   -5.2239   -0.9343   -2.6574 H   0  0  0  0  0  0  0  0  0  0  0  0
   -1.1798    0.8267    1.3960 C   0  0  0  0  0  0  0  0  0  0  0  0
   -2.2179    1.4092    1.0954 O   0  0  0  0  0  0  0  0  0  0  0  0
   -0.2241    1.4686    2.1601 N   0  0  0  0  0  0  0  0  0  0  0  0
    0.5963    0.9373    2.4421 H   0  0  0  0  0  0  0  0  0  0  0  0
   -0.3937    2.8219    2.6795 C   0  0  0  0  0  0  0  0  0  0  0  0
   -1.2373    2.8624    3.3770 H   0  0  0  0  0  0  0  0  0  0  0  0
    0.5090    3.1402    3.2106 H   0  0  0  0  0  0  0  0  0  0  0  0
   -0.5782    3.5283    1.8630 H   0  0  0  0  0  0  0  0  0  0  0  0
  1  2  1  0  0  0  0
  2  3  1  0  0  0  0
  2  4  1  0  0  0  0
  2  5  1  0  0  0  0
  5  6  2  0  0  0  0
  5  7  1  0  0  0  0
  7  8  1  0  0  0  0
  7  9  1  0  0  0  0
  9 10  1  0  0  0  0
  9 11  1  0  0  0  0
  9 27  1  0  0  0  0
 11 12  1  0  0  0  0
 11 13  1  0  0  0  0
 11 14  1  0  0  0  0
 14 15  1  0  0  0  0
 14 16  1  0  0  0  0
 14 17  1  0  0  0  0
 17 18  1  0  0  0  0
 17 19  1  0  0  0  0
 17 20  1  0  0  0  0
 20 21  1  0  0  0  0
 20 22  1  0  0  0  0
 20 23  1  0  0  0  0
 23 24  1  0  0  0  0
 23 25  1  0  0  0  0
 23 26  1  0  0  0  0
 27 28  2  0  0  0  0
 27 29  1  0  0  0  0
 29 30  1  0  0  0  0
 29 31  1  0  0  0  0
 31 32  1  0  0  0  0
 31 33  1  0  0  0  0
 31 34  1  0  0  0  0
M  CHG  1  23   1
M  END
$$$$

  -OEChem-02102214153D

 34 33  0     1  0  0  0  0  0999 V2000
   -3.5578   -4.1391    2.4065 H   0  0  0  0  0  0  0  0  0  0  0  0
   -3.6828   -3.1288    2.0059 C   0  0  0  0  0  0  0  0  0  0  0  0
   -4.0696   -2.4840    2.7990 H   0  0  0  0  0  0  0  0  0  0  0  0
   -4.4041   -3.1619    1.1866 H   0  0  0  0  0  0  0  0  0  0  0  0
   -2.3517   -2.5995    1.5085 C   0  0  0  0  0  0  0  0  0  0  0  0
   -1.3614   -3.3092    1.5333 O   0  0  0  0  0  0  0  0  0  0  0  0
   -2.2602   -1.3246    0.9876 N   0  0  0  0  0  0  0  0  0  0  0  0
   -3.0773   -0.7308    1.1258 H   0  0  0  0  0  0  0  0  0  0  0  0
   -0.9740   -0.6118    0.8680 C   0  0  1  0  0  0  0  0  0  0  0  0
   -0.2391   -1.0754    1.5361 H   0  0  0  0  0  0  0  0  0  0  0  0
   -0.3705   -0.5920   -0.5640 C   0  0  0  0  0  0  0  0  0  0  0  0
   -0.1742    0.4401   -0.8757 H   0  0  0  0  0  0  0  0  0  0  0  0
    0.6045   -1.0877   -0.5048 H   0  0  0  0  0  0  0  0  0  0  0  0
   -1.1729   -1.3011   -1.6704 C   0  0  0  0  0  0  0  0  0  0  0  0
   -0.5202   -1.4390   -2.5392 H   0  0  0  0  0  0  0  0  0  0  0  0
   -1.4763   -2.2984   -1.3329 H   0  0  0  0  0  0  0  0  0  0  0  0
   -2.3952   -0.4692   -2.0917 C   0  0  0  0  0  0  0  0  0  0  0  0
   -3.0503   -0.2895   -1.2347 H   0  0  0  0  0  0  0  0  0  0  0  0
   -2.0507    0.5056   -2.4544 H   0  0  0  0  0  0  0  0  0  0  0  0
   -3.1732   -1.1859   -3.1892 C   0  0  0  0  0  0  0  0  0  0  0  0
   -2.4964   -1.4142   -4.0256 H   0  0  0  0  0  0  0  0  0  0  0  0
   -3.5459   -2.1453   -2.8018 H   0  0  0  0  0  0  0  0  0  0  0  0
   -4.2842   -0.3114   -3.6232 N   0  3  0  0  0  0  0  0  0  0  0  0
   -3.9111    0.5605   -4.0041 H   0  0  0  0  0  0  0  0  0  0  0  0
   -4.8410   -0.7773   -4.3425 H   0  0  0  0  0  0  0  0  0  0  0  0
   -4.8850   -0.0910   -2.8266 H   0  0  0  0  0  0  0  0  0  0  0  0
   -1.1801    0.8331    1.3663 C   0  0  0  0  0  0  0  0  0  0  0  0
   -2.1923    1.4335    1.0162 O   0  0  0  0  0  0  0  0  0  0  0  0
   -0.2725    1.4411    2.2123 N   0  0  0  0  0  0  0  0  0  0  0  0
    0.5263    0.8952    2.5263 H   0  0  0  0  0  0  0  0  0  0  0  0
   -0.4584    2.7837    2.7526 C   0  0  0  0  0  0  0  0  0  0  0  0
   -1.3683    2.8308    3.3603 H   0  0  0  0  0  0  0  0  0  0  0  0
    0.3919    3.0603    3.3838 H   0  0  0  0  0  0  0  0  0  0  0  0
   -0.5375    3.5161    1.9422 H   0  0  0  0  0  0  0  0  0  0  0  0
  1  2  1  0  0  0  0
  2  3  1  0  0  0  0
  2  4  1  0  0  0  0
  2  5  1  0  0  0  0
  5  6  2  0  0  0  0
  5  7  1  0  0  0  0
  7  8  1  0  0  0  0
  7  9  1  0  0  0  0
  9 10  1  0  0  0  0
  9 11  1  0  0  0  0
  9 27  1  0  0  0  0
 11 12  1  0  0  0  0
 11 13  1  0  0  0  0
 11 14  1  0  0  0  0
 14 15  1  0  0  0  0
 14 16  1  0  0  0  0
 14 17  1  0  0  0  0
 17 18  1  0  0  0  0
 17 19  1  0  0  0  0
 17 20  1  0  0  0  0
 20 21  1  0  0  0  0
 20 22  1  0  0  0  0
 20 23  1  0  0  0  0
 23 24  1  0  0  0  0
 23 25  1  0  0  0  0
 23 26  1  0  0  0  0
 27 28  2  0  0  0  0
 27 29  1  0  0  0  0
 29 30  1  0  0  0  0
 29 31  1  0  0  0  0
 31 32  1  0  0  0  0
 31 33  1  0  0  0  0
 31 34  1  0  0  0  0
M  CHG  1  23   1
M  END
$$$$

  -OEChem-02102214153D

 34 33  0     1  0  0  0  0  0999 V2000
   -3.6200   -4.1119    2.3845 H   0  0  0  0  0  0  0  0  0  0  0  0
   -3.7277   -3.1243    1.9265 C   0  0  0  0  0  0  0  0  0  0  0  0
   -4.1739   -2.4469    2.6589 H   0  0  0  0  0  0  0  0  0  0  0  0
   -4.3917   -3.2078    1.0635 H   0  0  0  0  0  0  0  0  0  0  0  0
   -2.3714   -2.6015    1.4930 C   0  0  0  0  0  0  0  0  0  0  0  0
   -1.3814   -3.3054    1.5927 O   0  0  0  0  0  0  0  0  0  0  0  0
   -2.2538   -1.3381    0.9486 N   0  0  0  0  0  0  0  0  0  0  0  0
   -3.0789   -0.7437    1.0198 H   0  0  0  0  0  0  0  0  0  0  0  0
   -0.9627   -0.6301    0.8500 C   0  0  1  0  0  0  0  0  0  0  0  0
   -0.2419   -1.0815    1.5413 H   0  0  0  0  0  0  0  0  0  0  0  0
   -0.3342   -0.6244   -0.5712 C   0  0  0  0  0  0  0  0  0  0  0  0
   -0.1033    0.3996   -0.8866 H   0  0  0  0  0  0  0  0  0  0  0  0
    0.6281   -1.1406   -0.4845 H   0  0  0  0  0  0  0  0  0  0  0  0
   -1.1280   -1.3447   -1.6790 C   0  0  0  0  0  0  0  0  0  0  0  0
   -0.4194   -1.7039   -2.4334 H   0  0  0  0  0  0  0  0  0  0  0  0
   -1.6495   -2.2274   -1.2965 H   0  0  0  0  0  0  0  0  0  0  0  0
   -2.0921   -0.3566   -2.3480 C   0  0  0  0  0  0  0  0  0  0  0  0
   -2.7422    0.0829   -1.5832 H   0  0  0  0  0  0  0  0  0  0  0  0
   -1.5186    0.4555   -2.8083 H   0  0  0  0  0  0  0  0  0  0  0  0
   -2.9405   -1.0565   -3.4032 C   0  0  0  0  0  0  0  0  0  0  0  0
   -2.2830   -1.5006   -4.1651 H   0  0  0  0  0  0  0  0  0  0  0  0
   -3.4970   -1.8804   -2.9330 H   0  0  0  0  0  0  0  0  0  0  0  0
   -3.8576   -0.0597   -3.9972 N   0  3  0  0  0  0  0  0  0  0  0  0
   -3.3201    0.6699   -4.4691 H   0  0  0  0  0  0  0  0  0  0  0  0
   -4.4768   -0.5082   -4.6752 H   0  0  0  0  0  0  0  0  0  0  0  0
   -4.4235    0.3719   -3.2635 H   0  0  0  0  0  0  0  0  0  0  0  0
   -1.1830    0.8252    1.3120 C   0  0  0  0  0  0  0  0  0  0  0  0
   -2.1735    1.4260    0.9047 O   0  0  0  0  0  0  0  0  0  0  0  0
   -0.3008    1.4516    2.1711 N   0  0  0  0  0  0  0  0  0  0  0  0
    0.4785    0.9065    2.5321 H   0  0  0  0  0  0  0  0  0  0  0  0
   -0.5098    2.8006    2.6875 C   0  0  0  0  0  0  0  0  0  0  0  0
   -1.4489    2.8566    3.2484 H   0  0  0  0  0  0  0  0  0  0  0  0
    0.3086    3.0808    3.3582 H   0  0  0  0  0  0  0  0  0  0  0  0
   -0.5462    3.5259    1.8676 H   0  0  0  0  0  0  0  0  0  0  0  0
  1  2  1  0  0  0  0
  2  3  1  0  0  0  0
  2  4  1  0  0  0  0
  2  5  1  0  0  0  0
  5  6  2  0  0  0  0
  5  7  1  0  0  0  0
  7  8  1  0  0  0  0
  7  9  1  0  0  0  0
  9 10  1  0  0  0  0
  9 11  1  0  0  0  0
  9 27  1  0  0  0  0
 11 12  1  0  0  0  0
 11 13  1  0  0  0  0
 11 14  1  0  0  0  0
 14 15  1  0  0  0  0
 14 16  1  0  0  0  0
 14 17  1  0  0  0  0
 17 18  1  0  0  0  0
 17 19  1  0  0  0  0
 17 20  1  0  0  0  0
 20 21  1  0  0  0  0
 20 22  1  0  0  0  0
 20 23  1  0  0  0  0
 23 24  1  0  0  0  0
 23 25  1  0  0  0  0
 23 26  1  0  0  0  0
 27 28  2  0  0  0  0
 27 29  1  0  0  0  0
 29 30  1  0  0  0  0
 29 31  1  0  0  0  0
 31 32  1  0  0  0  0
 31 33  1  0  0  0  0
 31 34  1  0  0  0  0
M  CHG  1  23   1
M  END
$$$$

  -OEChem-02102214153D

 34 33  0     1  0  0  0  0  0999 V2000
   -3.6449   -4.1039    2.4109 H   0  0  0  0  0  0  0  0  0  0  0  0
   -3.7492   -3.1246    1.9347 C   0  0  0  0  0  0  0  0  0  0  0  0
   -4.2142   -2.4380    2.6464 H   0  0  0  0  0  0  0  0  0  0  0  0
   -4.3951   -3.2258    1.0597 H   0  0  0  0  0  0  0  0  0  0  0  0
   -2.3883   -2.5993    1.5201 C   0  0  0  0  0  0  0  0  0  0  0  0
   -1.3961   -3.2964    1.6452 O   0  0  0  0  0  0  0  0  0  0  0  0
   -2.2685   -1.3400    0.9677 N   0  0  0  0  0  0  0  0  0  0  0  0
   -3.0991   -0.7499    1.0072 H   0  0  0  0  0  0  0  0  0  0  0  0
   -0.9786   -0.6344    0.8569 C   0  0  1  0  0  0  0  0  0  0  0  0
   -0.2561   -1.0823    1.5488 H   0  0  0  0  0  0  0  0  0  0  0  0
   -0.3523   -0.6368   -0.5666 C   0  0  0  0  0  0  0  0  0  0  0  0
   -0.1168    0.3873   -0.8782 H   0  0  0  0  0  0  0  0  0  0  0  0
    0.6110   -1.1498   -0.4730 H   0  0  0  0  0  0  0  0  0  0  0  0
   -1.1315   -1.3605   -1.6892 C   0  0  0  0  0  0  0  0  0  0  0  0
   -0.4156   -1.9380   -2.2847 H   0  0  0  0  0  0  0  0  0  0  0  0
   -1.8583   -2.0802   -1.3045 H   0  0  0  0  0  0  0  0  0  0  0  0
   -1.8023   -0.3292   -2.6046 C   0  0  0  0  0  0  0  0  0  0  0  0
   -2.4375    0.3242   -1.9948 H   0  0  0  0  0  0  0  0  0  0  0  0
   -1.0353    0.2916   -3.0810 H   0  0  0  0  0  0  0  0  0  0  0  0
   -2.6477   -1.0227   -3.6673 C   0  0  0  0  0  0  0  0  0  0  0  0
   -2.0024   -1.6611   -4.2885 H   0  0  0  0  0  0  0  0  0  0  0  0
   -3.3782   -1.6805   -3.1742 H   0  0  0  0  0  0  0  0  0  0  0  0
   -3.3232    0.0130   -4.4784 N   0  3  0  0  0  0  0  0  0  0  0  0
   -2.6280    0.5915   -4.9540 H   0  0  0  0  0  0  0  0  0  0  0  0
   -3.9272   -0.4238   -5.1776 H   0  0  0  0  0  0  0  0  0  0  0  0
   -3.8914    0.6108   -3.8742 H   0  0  0  0  0  0  0  0  0  0  0  0
   -1.1891    0.8246    1.3097 C   0  0  0  0  0  0  0  0  0  0  0  0
   -2.1654    1.4364    0.8865 O   0  0  0  0  0  0  0  0  0  0  0  0
   -0.2960    1.4503    2.1584 N   0  0  0  0  0  0  0  0  0  0  0  0
    0.4667    0.8947    2.5386 H   0  0  0  0  0  0  0  0  0  0  0  0
   -0.4853    2.8097    2.6538 C   0  0  0  0  0  0  0  0  0  0  0  0
   -1.4186    2.8847    3.2222 H   0  0  0  0  0  0  0  0  0  0  0  0
    0.3426    3.0927    3.3117 H   0  0  0  0  0  0  0  0  0  0  0  0
   -0.5217    3.5206    1.8215 H   0  0  0  0  0  0  0  0  0  0  0  0
  1  2  1  0  0  0  0
  2  3  1  0  0  0  0
  2  4  1  0  0  0  0
  2  5  1  0  0  0  0
  5  6  2  0  0  0  0
  5  7  1  0  0  0  0
  7  8  1  0  0  0  0
  7  9  1  0  0  0  0
  9 10  1  0  0  0  0
  9 11  1  0  0  0  0
  9 27  1  0  0  0  0
 11 12  1  0  0  0  0
 11 13  1  0  0  0  0
 11 14  1  0  0  0  0
 14 15  1  0  0  0  0
 14 16  1  0  0  0  0
 14 17  1  0  0  0  0
 17 18  1  0  0  0  0
 17 19  1  0  0  0  0
 17 20  1  0  0  0  0
 20 21  1  0  0  0  0
 20 22  1  0  0  0  0
 20 23  1  0  0  0  0
 23 24  1  0  0  0  0
 23 25  1  0  0  0  0
 23 26  1  0  0  0  0
 27 28  2  0  0  0  0
 27 29  1  0  0  0  0
 29 30  1  0  0  0  0
 29 31  1  0  0  0  0
 31 32  1  0  0  0  0
 31 33  1  0  0  0  0
 31 34  1  0  0  0  0
M  CHG  1  23   1
M  END
$$$$

  -OEChem-02102214153D

 34 33  0     1  0  0  0  0  0999 V2000
   -3.6636   -4.0900    2.4295 H   0  0  0  0  0  0  0  0  0  0  0  0
   -3.7684   -3.1142    1.9464 C   0  0  0  0  0  0  0  0  0  0  0  0
   -4.2422   -2.4252    2.6498 H   0  0  0  0  0  0  0  0  0  0  0  0
   -4.4070   -3.2230    1.0669 H   0  0  0  0  0  0  0  0  0  0  0  0
   -2.4064   -2.5871    1.5381 C   0  0  0  0  0  0  0  0  0  0  0  0
   -1.4153   -3.2877    1.6555 O   0  0  0  0  0  0  0  0  0  0  0  0
   -2.2860   -1.3251    0.9924 N   0  0  0  0  0  0  0  0  0  0  0  0
   -3.1175   -0.7354    1.0285 H   0  0  0  0  0  0  0  0  0  0  0  0
   -0.9975   -0.6221    0.8606 C   0  0  1  0  0  0  0  0  0  0  0  0
   -0.2706   -1.0773    1.5428 H   0  0  0  0  0  0  0  0  0  0  0  0
   -0.3812   -0.6367   -0.5687 C   0  0  0  0  0  0  0  0  0  0  0  0
   -0.1737    0.3933   -0.8804 H   0  0  0  0  0  0  0  0  0  0  0  0
    0.5957   -1.1252   -0.4849 H   0  0  0  0  0  0  0  0  0  0  0  0
   -1.1577   -1.3680   -1.6936 C   0  0  0  0  0  0  0  0  0  0  0  0
   -0.5208   -2.1657   -2.0924 H   0  0  0  0  0  0  0  0  0  0  0  0
   -2.0687   -1.8500   -1.3350 H   0  0  0  0  0  0  0  0  0  0  0  0
   -1.5138   -0.3904   -2.8206 C   0  0  0  0  0  0  0  0  0  0  0  0
   -2.0986    0.4368   -2.4010 H   0  0  0  0  0  0  0  0  0  0  0  0
   -0.5949    0.0243   -3.2501 H   0  0  0  0  0  0  0  0  0  0  0  0
   -2.3246   -1.0971   -3.9029 C   0  0  0  0  0  0  0  0  0  0  0  0
   -1.7249   -1.9124   -4.3339 H   0  0  0  0  0  0  0  0  0  0  0  0
   -3.2141   -1.5551   -3.4460 H   0  0  0  0  0  0  0  0  0  0  0  0
   -2.7058   -0.1061   -4.9323 N   0  3  0  0  0  0  0  0  0  0  0  0
   -1.8679    0.2892   -5.3631 H   0  0  0  0  0  0  0  0  0  0  0  0
   -3.2742   -0.5502   -5.6564 H   0  0  0  0  0  0  0  0  0  0  0  0
   -3.2446    0.6496   -4.5039 H   0  0  0  0  0  0  0  0  0  0  0  0
   -1.1854    0.8369    1.3240 C   0  0  0  0  0  0  0  0  0  0  0  0
   -2.1627    1.4610    0.9241 O   0  0  0  0  0  0  0  0  0  0  0  0
   -0.2687    1.4511    2.1561 N   0  0  0  0  0  0  0  0  0  0  0  0
    0.4940    0.8859    2.5212 H   0  0  0  0  0  0  0  0  0  0  0  0
   -0.4365    2.8100    2.6614 C   0  0  0  0  0  0  0  0  0  0  0  0
   -1.3586    2.8913    3.2469 H   0  0  0  0  0  0  0  0  0  0  0  0
    0.4058    3.0822    3.3054 H   0  0  0  0  0  0  0  0  0  0  0  0
   -0.4822    3.5258    1.8337 H   0  0  0  0  0  0  0  0  0  0  0  0
  1  2  1  0  0  0  0
  2  3  1  0  0  0  0
  2  4  1  0  0  0  0
  2  5  1  0  0  0  0
  5  6  2  0  0  0  0
  5  7  1  0  0  0  0
  7  8  1  0  0  0  0
  7  9  1  0  0  0  0
  9 10  1  0  0  0  0
  9 11  1  0  0  0  0
  9 27  1  0  0  0  0
 11 12  1  0  0  0  0
 11 13  1  0  0  0  0
 11 14  1  0  0  0  0
 14 15  1  0  0  0  0
 14 16  1  0  0  0  0
 14 17  1  0  0  0  0
 17 18  1  0  0  0  0
 17 19  1  0  0  0  0
 17 20  1  0  0  0  0
 20 21  1  0  0  0  0
 20 22  1  0  0  0  0
 20 23  1  0  0  0  0
 23 24  1  0  0  0  0
 23 25  1  0  0  0  0
 23 26  1  0  0  0  0
 27 28  2  0  0  0  0
 27 29  1  0  0  0  0
 29 30  1  0  0  0  0
 29 31  1  0  0  0  0
 31 32  1  0  0  0  0
 31 33  1  0  0  0  0
 31 34  1  0  0  0  0
M  CHG  1  23   1
M  END
$$$$

  -OEChem-02102214153D

 34 33  0     1  0  0  0  0  0999 V2000
   -3.6829   -4.0664    2.4209 H   0  0  0  0  0  0  0  0  0  0  0  0
   -3.7845   -3.0915    1.9354 C   0  0  0  0  0  0  0  0  0  0  0  0
   -4.2513   -2.3976    2.6390 H   0  0  0  0  0  0  0  0  0  0  0  0
   -4.4280   -3.1993    1.0593 H   0  0  0  0  0  0  0  0  0  0  0  0
   -2.4222   -2.5713    1.5180 C   0  0  0  0  0  0  0  0  0  0  0  0
   -1.4356   -3.2823    1.6120 O   0  0  0  0  0  0  0  0  0  0  0  0
   -2.2968   -1.3039    0.9868 N   0  0  0  0  0  0  0  0  0  0  0  0
   -3.1247   -0.7095    1.0320 H   0  0  0  0  0  0  0  0  0  0  0  0
   -1.0057   -0.6066    0.8537 C   0  0  1  0  0  0  0  0  0  0  0  0
   -0.2804   -1.0728    1.5302 H   0  0  0  0  0  0  0  0  0  0  0  0
   -0.3948   -0.6312   -0.5777 C   0  0  0  0  0  0  0  0  0  0  0  0
   -0.2230    0.4043   -0.8923 H   0  0  0  0  0  0  0  0  0  0  0  0
    0.5947   -1.0961   -0.5121 H   0  0  0  0  0  0  0  0  0  0  0  0
   -1.1858   -1.3656   -1.6891 C   0  0  0  0  0  0  0  0  0  0  0  0
   -0.7192   -2.3396   -1.8748 H   0  0  0  0  0  0  0  0  0  0  0  0
   -2.2211   -1.5540   -1.3973 H   0  0  0  0  0  0  0  0  0  0  0  0
   -1.2223   -0.5263   -2.9722 C   0  0  0  0  0  0  0  0  0  0  0  0
   -1.6980    0.4380   -2.7586 H   0  0  0  0  0  0  0  0  0  0  0  0
   -0.1982   -0.3348   -3.3113 H   0  0  0  0  0  0  0  0  0  0  0  0
   -2.0039   -1.2601   -4.0582 C   0  0  0  0  0  0  0  0  0  0  0  0
   -1.5131   -2.2214   -4.2707 H   0  0  0  0  0  0  0  0  0  0  0  0
   -3.0138   -1.4865   -3.6855 H   0  0  0  0  0  0  0  0  0  0  0  0
   -2.0611   -0.4078   -5.2653 N   0  3  0  0  0  0  0  0  0  0  0  0
   -1.1164   -0.2284   -5.6109 H   0  0  0  0  0  0  0  0  0  0  0  0
   -2.6008   -0.8722   -5.9988 H   0  0  0  0  0  0  0  0  0  0  0  0
   -2.5061    0.4845   -5.0402 H   0  0  0  0  0  0  0  0  0  0  0  0
   -1.1754    0.8493    1.3340 C   0  0  0  0  0  0  0  0  0  0  0  0
   -2.1523    1.4852    0.9542 O   0  0  0  0  0  0  0  0  0  0  0  0
   -0.2460    1.4464    2.1646 N   0  0  0  0  0  0  0  0  0  0  0  0
    0.5151    0.8712    2.5170 H   0  0  0  0  0  0  0  0  0  0  0  0
   -0.3971    2.8018    2.6845 C   0  0  0  0  0  0  0  0  0  0  0  0
   -1.3131    2.8849    3.2793 H   0  0  0  0  0  0  0  0  0  0  0  0
    0.4537    3.0610    3.3228 H   0  0  0  0  0  0  0  0  0  0  0  0
   -0.4447    3.5258    1.8640 H   0  0  0  0  0  0  0  0  0  0  0  0
  1  2  1  0  0  0  0
  2  3  1  0  0  0  0
  2  4  1  0  0  0  0
  2  5  1  0  0  0  0
  5  6  2  0  0  0  0
  5  7  1  0  0  0  0
  7  8  1  0  0  0  0
  7  9  1  0  0  0  0
  9 10  1  0  0  0  0
  9 11  1  0  0  0  0
  9 27  1  0  0  0  0
 11 12  1  0  0  0  0
 11 13  1  0  0  0  0
 11 14  1  0  0  0  0
 14 15  1  0  0  0  0
 14 16  1  0  0  0  0
 14 17  1  0  0  0  0
 17 18  1  0  0  0  0
 17 19  1  0  0  0  0
 17 20  1  0  0  0  0
 20 21  1  0  0  0  0
 20 22  1  0  0  0  0
 20 23  1  0  0  0  0
 23 24  1  0  0  0  0
 23 25  1  0  0  0  0
 23 26  1  0  0  0  0
 27 28  2  0  0  0  0
 27 29  1  0  0  0  0
 29 30  1  0  0  0  0
 29 31  1  0  0  0  0
 31 32  1  0  0  0  0
 31 33  1  0  0  0  0
 31 34  1  0  0  0  0
M  CHG  1  23   1
M  END
$$$$

  -OEChem-02102214153D

 34 33  0     1  0  0  0  0  0999 V2000
   -3.7160   -4.0685    2.3047 H   0  0  0  0  0  0  0  0  0  0  0  0
   -3.8040   -3.0637    1.8814 C   0  0  0  0  0  0  0  0  0  0  0  0
   -4.2444   -2.4051    2.6341 H   0  0  0  0  0  0  0  0  0  0  0  0
   -4.4638   -3.1039    1.0118 H   0  0  0  0  0  0  0  0  0  0  0  0
   -2.4370   -2.5477    1.4738 C   0  0  0  0  0  0  0  0  0  0  0  0
   -1.4557   -3.2666    1.5645 O   0  0  0  0  0  0  0  0  0  0  0  0
   -2.2997   -1.2764    0.9550 N   0  0  0  0  0  0  0  0  0  0  0  0
   -3.1245   -0.6775    0.9990 H   0  0  0  0  0  0  0  0  0  0  0  0
   -1.0026   -0.5849    0.8421 C   0  0  1  0  0  0  0  0  0  0  0  0
   -0.2883   -1.0628    1.5221 H   0  0  0  0  0  0  0  0  0  0  0  0
   -0.3827   -0.6181   -0.5833 C   0  0  0  0  0  0  0  0  0  0  0  0
   -0.2248    0.4167   -0.9072 H   0  0  0  0  0  0  0  0  0  0  0  0
    0.6085   -1.0796   -0.5202 H   0  0  0  0  0  0  0  0  0  0  0  0
   -1.1907   -1.3549   -1.6745 C   0  0  0  0  0  0  0  0  0  0  0  0
   -0.9361   -2.4207   -1.6573 H   0  0  0  0  0  0  0  0  0  0  0  0
   -2.2646   -1.2638   -1.4874 H   0  0  0  0  0  0  0  0  0  0  0  0
   -0.9284   -0.7391   -3.0546 C   0  0  0  0  0  0  0  0  0  0  0  0
   -1.2267    0.3156   -3.0465 H   0  0  0  0  0  0  0  0  0  0  0  0
    0.1436   -0.7888   -3.2756 H   0  0  0  0  0  0  0  0  0  0  0  0
   -1.7173   -1.4943   -4.1210 C   0  0  0  0  0  0  0  0  0  0  0  0
   -1.4125   -2.5512   -4.1144 H   0  0  0  0  0  0  0  0  0  0  0  0
   -2.7873   -1.4643   -3.8677 H   0  0  0  0  0  0  0  0  0  0  0  0
   -1.4642   -0.8726   -5.4390 N   0  3  0  0  0  0  0  0  0  0  0  0
   -0.4656   -0.9036   -5.6531 H   0  0  0  0  0  0  0  0  0  0  0  0
   -1.9758   -1.3738   -6.1685 H   0  0  0  0  0  0  0  0  0  0  0  0
   -1.7707    0.1023   -5.4289 H   0  0  0  0  0  0  0  0  0  0  0  0
   -1.1578    0.8697    1.3311 C   0  0  0  0  0  0  0  0  0  0  0  0
   -2.1301    1.5169    0.9603 O   0  0  0  0  0  0  0  0  0  0  0  0
   -0.2271    1.4478    2.1737 N   0  0  0  0  0  0  0  0  0  0  0  0
    0.5266    0.8609    2.5223 H   0  0  0  0  0  0  0  0  0  0  0  0
   -0.3757    2.7935    2.7189 C   0  0  0  0  0  0  0  0  0  0  0  0
   -1.2829    2.8628    3.3287 H   0  0  0  0  0  0  0  0  0  0  0  0
    0.4835    3.0450    3.3487 H   0  0  0  0  0  0  0  0  0  0  0  0
   -0.4381    3.5316    1.9121 H   0  0  0  0  0  0  0  0  0  0  0  0
  1  2  1  0  0  0  0
  2  3  1  0  0  0  0
  2  4  1  0  0  0  0
  2  5  1  0  0  0  0
  5  6  2  0  0  0  0
  5  7  1  0  0  0  0
  7  8  1  0  0  0  0
  7  9  1  0  0  0  0
  9 10  1  0  0  0  0
  9 11  1  0  0  0  0
  9 27  1  0  0  0  0
 11 12  1  0  0  0  0
 11 13  1  0  0  0  0
 11 14  1  0  0  0  0
 14 15  1  0  0  0  0
 14 16  1  0  0  0  0
 14 17  1  0  0  0  0
 17 18  1  0  0  0  0
 17 19  1  0  0  0  0
 17 20  1  0  0  0  0
 20 21  1  0  0  0  0
 20 22  1  0  0  0  0
 20 23  1  0  0  0  0
 23 24  1  0  0  0  0
 23 25  1  0  0  0  0
 23 26  1  0  0  0  0
 27 28  2  0  0  0  0
 27 29  1  0  0  0  0
 29 30  1  0  0  0  0
 29 31  1  0  0  0  0
 31 32  1  0  0  0  0
 31 33  1  0  0  0  0
 31 34  1  0  0  0  0
M  CHG  1  23   1
M  END
$$$$

  -OEChem-02102214153D

 34 33  0     1  0  0  0  0  0999 V2000
   -3.7405   -4.0262    2.2745 H   0  0  0  0  0  0  0  0  0  0  0  0
   -3.8189   -3.0389    1.8102 C   0  0  0  0  0  0  0  0  0  0  0  0
   -4.2838   -2.3536    2.5233 H   0  0  0  0  0  0  0  0  0  0  0  0
   -4.4519   -3.1154    0.9232 H   0  0  0  0  0  0  0  0  0  0  0  0
   -2.4424   -2.5325    1.4243 C   0  0  0  0  0  0  0  0  0  0  0  0
   -1.4689   -3.2625    1.5131 O   0  0  0  0  0  0  0  0  0  0  0  0
   -2.2885   -1.2585    0.9181 N   0  0  0  0  0  0  0  0  0  0  0  0
   -3.1103   -0.6547    0.9542 H   0  0  0  0  0  0  0  0  0  0  0  0
   -0.9869   -0.5713    0.8349 C   0  0  1  0  0  0  0  0  0  0  0  0
   -0.2856   -1.0579    1.5220 H   0  0  0  0  0  0  0  0  0  0  0  0
   -0.3558   -0.6085   -0.5831 C   0  0  0  0  0  0  0  0  0  0  0  0
   -0.1915    0.4217   -0.9188 H   0  0  0  0  0  0  0  0  0  0  0  0
    0.6290   -1.0822   -0.5131 H   0  0  0  0  0  0  0  0  0  0  0  0
   -1.1802   -1.3454   -1.6560 C   0  0  0  0  0  0  0  0  0  0  0  0
   -1.1356   -2.4249   -1.4704 H   0  0  0  0  0  0  0  0  0  0  0  0
   -2.2285   -1.0321   -1.5993 H   0  0  0  0  0  0  0  0  0  0  0  0
   -0.6636   -1.0115   -3.0595 C   0  0  0  0  0  0  0  0  0  0  0  0
   -0.7487    0.0672   -3.2320 H   0  0  0  0  0  0  0  0  0  0  0  0
    0.3948   -1.2859   -3.1302 H   0  0  0  0  0  0  0  0  0  0  0  0
   -1.4725   -1.7729   -4.1060 C   0  0  0  0  0  0  0  0  0  0  0  0
   -1.3918   -2.8524   -3.9099 H   0  0  0  0  0  0  0  0  0  0  0  0
   -2.5345   -1.5043   -4.0070 H   0  0  0  0  0  0  0  0  0  0  0  0
   -0.9595   -1.4336   -5.4507 N   0  3  0  0  0  0  0  0  0  0  0  0
    0.0242   -1.6997   -5.5254 H   0  0  0  0  0  0  0  0  0  0  0  0
   -1.4933   -1.9311   -6.1666 H   0  0  0  0  0  0  0  0  0  0  0  0
   -1.0440   -0.4281   -5.6127 H   0  0  0  0  0  0  0  0  0  0  0  0
   -1.1402    0.8812    1.3303 C   0  0  0  0  0  0  0  0  0  0  0  0
   -2.1071    1.5336    0.9555 O   0  0  0  0  0  0  0  0  0  0  0  0
   -0.2209    1.4478    2.1932 N   0  0  0  0  0  0  0  0  0  0  0  0
    0.5276    0.8568    2.5459 H   0  0  0  0  0  0  0  0  0  0  0  0
   -0.3688    2.7923    2.7417 C   0  0  0  0  0  0  0  0  0  0  0  0
   -1.2941    2.8706    3.3228 H   0  0  0  0  0  0  0  0  0  0  0  0
    0.4730    3.0288    3.4003 H   0  0  0  0  0  0  0  0  0  0  0  0
   -0.3954    3.5351    1.9371 H   0  0  0  0  0  0  0  0  0  0  0  0
  1  2  1  0  0  0  0
  2  3  1  0  0  0  0
  2  4  1  0  0  0  0
  2  5  1  0  0  0  0
  5  6  2  0  0  0  0
  5  7  1  0  0  0  0
  7  8  1  0  0  0  0
  7  9  1  0  0  0  0
  9 10  1  0  0  0  0
  9 11  1  0  0  0  0
  9 27  1  0  0  0  0
 11 12  1  0  0  0  0
 11 13  1  0  0  0  0
 11 14  1  0  0  0  0
 14 15  1  0  0  0  0
 14 16  1  0  0  0  0
 14 17  1  0  0  0  0
 17 18  1  0  0  0  0
 17 19  1  0  0  0  0
 17 20  1  0  0  0  0
 20 21  1  0  0  0  0
 20 22  1  0  0  0  0
 20 23  1  0  0  0  0
 23 24  1  0  0  0  0
 23 25  1  0  0  0  0
 23 26  1  0  0  0  0
 27 28  2  0  0  0  0
 27 29  1  0  0  0  0
 29 30  1  0  0  0  0
 29 31  1  0  0  0  0
 31 32  1  0  0  0  0
 31 33  1  0  0  0  0
 31 34  1  0  0  0  0
M  CHG  1  23   1
M  END
$$$$

  -OEChem-02102214153D

 34 33  0     1  0  0  0  0  0999 V2000
   -3.7484   -4.0419    2.2157 H   0  0  0  0  0  0  0  0  0  0  0  0
   -3.8143   -3.0371    1.7880 C   0  0  0  0  0  0  0  0  0  0  0  0
   -4.2666   -2.3715    2.5275 H   0  0  0  0  0  0  0  0  0  0  0  0
   -4.4518   -3.0723    0.9015 H   0  0  0  0  0  0  0  0  0  0  0  0
   -2.4318   -2.5367    1.4158 C   0  0  0  0  0  0  0  0  0  0  0  0
   -1.4591   -3.2626    1.5391 O   0  0  0  0  0  0  0  0  0  0  0  0
   -2.2678   -1.2690    0.8969 N   0  0  0  0  0  0  0  0  0  0  0  0
   -3.0888   -0.6634    0.9112 H   0  0  0  0  0  0  0  0  0  0  0  0
   -0.9621   -0.5876    0.8342 C   0  0  1  0  0  0  0  0  0  0  0  0
   -0.2638   -1.0629    1.5323 H   0  0  0  0  0  0  0  0  0  0  0  0
   -0.3267   -0.6162   -0.5796 C   0  0  0  0  0  0  0  0  0  0  0  0
    0.1240    0.3577   -0.8012 H   0  0  0  0  0  0  0  0  0  0  0  0
    0.4859   -1.3504   -0.5611 H   0  0  0  0  0  0  0  0  0  0  0  0
   -1.2909   -1.0032   -1.7143 C   0  0  0  0  0  0  0  0  0  0  0  0
   -1.6969   -2.0037   -1.5274 H   0  0  0  0  0  0  0  0  0  0  0  0
   -2.1258   -0.2932   -1.7361 H   0  0  0  0  0  0  0  0  0  0  0  0
   -0.5663   -1.0006   -3.0646 C   0  0  0  0  0  0  0  0  0  0  0  0
   -0.1580   -0.0020   -3.2563 H   0  0  0  0  0  0  0  0  0  0  0  0
    0.2685   -1.7095   -3.0315 H   0  0  0  0  0  0  0  0  0  0  0  0
   -1.5391   -1.3895   -4.1746 C   0  0  0  0  0  0  0  0  0  0  0  0
   -1.9542   -2.3851   -3.9586 H   0  0  0  0  0  0  0  0  0  0  0  0
   -2.3810   -0.6815   -4.1799 H   0  0  0  0  0  0  0  0  0  0  0  0
   -0.8244   -1.3792   -5.4694 N   0  3  0  0  0  0  0  0  0  0  0  0
   -0.0505   -2.0462   -5.4454 H   0  0  0  0  0  0  0  0  0  0  0  0
   -1.4623   -1.6380   -6.2254 H   0  0  0  0  0  0  0  0  0  0  0  0
   -0.4521   -0.4456   -5.6545 H   0  0  0  0  0  0  0  0  0  0  0  0
   -1.1343    0.8689    1.3110 C   0  0  0  0  0  0  0  0  0  0  0  0
   -2.0909    1.5163    0.9016 O   0  0  0  0  0  0  0  0  0  0  0  0
   -0.2375    1.4457    2.1907 N   0  0  0  0  0  0  0  0  0  0  0  0
    0.4996    0.8573    2.5706 H   0  0  0  0  0  0  0  0  0  0  0  0
   -0.4017    2.7934    2.7261 C   0  0  0  0  0  0  0  0  0  0  0  0
   -1.3305    2.8683    3.3019 H   0  0  0  0  0  0  0  0  0  0  0  0
    0.4345    3.0435    3.3866 H   0  0  0  0  0  0  0  0  0  0  0  0
   -0.4310    3.5289    1.9152 H   0  0  0  0  0  0  0  0  0  0  0  0
  1  2  1  0  0  0  0
  2  3  1  0  0  0  0
  2  4  1  0  0  0  0
  2  5  1  0  0  0  0
  5  6  2  0  0  0  0
  5  7  1  0  0  0  0
  7  8  1  0  0  0  0
  7  9  1  0  0  0  0
  9 10  1  0  0  0  0
  9 11  1  0  0  0  0
  9 27  1  0  0  0  0
 11 12  1  0  0  0  0
 11 13  1  0  0  0  0
 11 14  1  0  0  0  0
 14 15  1  0  0  0  0
 14 16  1  0  0  0  0
 14 17  1  0  0  0  0
 17 18  1  0  0  0  0
 17 19  1  0  0  0  0
 17 20  1  0  0  0  0
 20 21  1  0  0  0  0
 20 22  1  0  0  0  0
 20 23  1  0  0  0  0
 23 24  1  0  0  0  0
 23 25  1  0  0  0  0
 23 26  1  0  0  0  0
 27 28  2  0  0  0  0
 27 29  1  0  0  0  0
 29 30  1  0  0  0  0
 29 31  1  0  0  0  0
 31 32  1  0  0  0  0
 31 33  1  0  0  0  0
 31 34  1  0  0  0  0
M  CHG  1  23   1
M  END
$$$$

  -OEChem-02102214153D

 34 33  0     1  0  0  0  0  0999 V2000
   -3.7736   -4.0225    2.2582 H   0  0  0  0  0  0  0  0  0  0  0  0
   -3.8373   -3.0174    1.8319 C   0  0  0  0  0  0  0  0  0  0  0  0
   -4.2724   -2.3480    2.5781 H   0  0  0  0  0  0  0  0  0  0  0  0
   -4.4887   -3.0468    0.9555 H   0  0  0  0  0  0  0  0  0  0  0  0
   -2.4560   -2.5298    1.4386 C   0  0  0  0  0  0  0  0  0  0  0  0
   -1.4893   -3.2679    1.5369 O   0  0  0  0  0  0  0  0  0  0  0  0
   -2.2879   -1.2641    0.9169 N   0  0  0  0  0  0  0  0  0  0  0  0
   -3.1035   -0.6509    0.9413 H   0  0  0  0  0  0  0  0  0  0  0  0
   -0.9791   -0.5912    0.8387 C   0  0  1  0  0  0  0  0  0  0  0  0
   -0.2809   -1.0692    1.5348 H   0  0  0  0  0  0  0  0  0  0  0  0
   -0.3436   -0.6221   -0.5757 C   0  0  0  0  0  0  0  0  0  0  0  0
    0.1254    0.3428   -0.7988 H   0  0  0  0  0  0  0  0  0  0  0  0
    0.4587   -1.3665   -0.5399 H   0  0  0  0  0  0  0  0  0  0  0  0
   -1.2919   -1.0041   -1.7286 C   0  0  0  0  0  0  0  0  0  0  0  0
   -1.8848   -1.8833   -1.4565 H   0  0  0  0  0  0  0  0  0  0  0  0
   -1.9814   -0.1739   -1.9200 H   0  0  0  0  0  0  0  0  0  0  0  0
   -0.4943   -1.3560   -2.9893 C   0  0  0  0  0  0  0  0  0  0  0  0
    0.1135   -0.4944   -3.2867 H   0  0  0  0  0  0  0  0  0  0  0  0
    0.1811   -2.1914   -2.7728 H   0  0  0  0  0  0  0  0  0  0  0  0
   -1.4500   -1.7370   -4.1166 C   0  0  0  0  0  0  0  0  0  0  0  0
   -2.0762   -2.5798   -3.7886 H   0  0  0  0  0  0  0  0  0  0  0  0
   -2.1244   -0.8918   -4.3189 H   0  0  0  0  0  0  0  0  0  0  0  0
   -0.6643   -2.0941   -5.3175 N   0  3  0  0  0  0  0  0  0  0  0  0
   -0.0519   -2.8856   -5.1104 H   0  0  0  0  0  0  0  0  0  0  0  0
   -1.2904   -2.3509   -6.0836 H   0  0  0  0  0  0  0  0  0  0  0  0
   -0.0918   -1.2996   -5.6091 H   0  0  0  0  0  0  0  0  0  0  0  0
   -1.1387    0.8665    1.3161 C   0  0  0  0  0  0  0  0  0  0  0  0
   -2.1040    1.5139    0.9279 O   0  0  0  0  0  0  0  0  0  0  0  0
   -0.2302    1.4409    2.1853 N   0  0  0  0  0  0  0  0  0  0  0  0
    0.5176    0.8548    2.5476 H   0  0  0  0  0  0  0  0  0  0  0  0
   -0.3873    2.7882    2.7243 C   0  0  0  0  0  0  0  0  0  0  0  0
   -1.3101    2.8625    3.3095 H   0  0  0  0  0  0  0  0  0  0  0  0
    0.4559    3.0367    3.3764 H   0  0  0  0  0  0  0  0  0  0  0  0
   -0.4248    3.5252    1.9150 H   0  0  0  0  0  0  0  0  0  0  0  0
  1  2  1  0  0  0  0
  2  3  1  0  0  0  0
  2  4  1  0  0  0  0
  2  5  1  0  0  0  0
  5  6  2  0  0  0  0
  5  7  1  0  0  0  0
  7  8  1  0  0  0  0
  7  9  1  0  0  0  0
  9 10  1  0  0  0  0
  9 11  1  0  0  0  0
  9 27  1  0  0  0  0
 11 12  1  0  0  0  0
 11 13  1  0  0  0  0
 11 14  1  0  0  0  0
 14 15  1  0  0  0  0
 14 16  1  0  0  0  0
 14 17  1  0  0  0  0
 17 18  1  0  0  0  0
 17 19  1  0  0  0  0
 17 20  1  0  0  0  0
 20 21  1  0  0  0  0
 20 22  1  0  0  0  0
 20 23  1  0  0  0  0
 23 24  1  0  0  0  0
 23 25  1  0  0  0  0
 23 26  1  0  0  0  0
 27 28  2  0  0  0  0
 27 29  1  0  0  0  0
 29 30  1  0  0  0  0
 29 31  1  0  0  0  0
 31 32  1  0  0  0  0
 31 33  1  0  0  0  0
 31 34  1  0  0  0  0
M  CHG  1  23   1
M  END
$$$$

  -OEChem-02102214153D

 34 33  0     1  0  0  0  0  0999 V2000
   -3.7955   -4.0036    2.3027 H   0  0  0  0  0  0  0  0  0  0  0  0
   -3.8555   -2.9923    1.8905 C   0  0  0  0  0  0  0  0  0  0  0  0
   -4.2583   -2.3255    2.6568 H   0  0  0  0  0  0  0  0  0  0  0  0
   -4.5322   -3.0005    1.0329 H   0  0  0  0  0  0  0  0  0  0  0  0
   -2.4790   -2.5192    1.4645 C   0  0  0  0  0  0  0  0  0  0  0  0
   -1.5179   -3.2681    1.5353 O   0  0  0  0  0  0  0  0  0  0  0  0
   -2.3115   -1.2546    0.9406 N   0  0  0  0  0  0  0  0  0  0  0  0
   -3.1217   -0.6349    0.9825 H   0  0  0  0  0  0  0  0  0  0  0  0
   -1.0008   -0.5898    0.8448 C   0  0  1  0  0  0  0  0  0  0  0  0
   -0.3018   -1.0702    1.5387 H   0  0  0  0  0  0  0  0  0  0  0  0
   -0.3658   -0.6290   -0.5714 C   0  0  0  0  0  0  0  0  0  0  0  0
    0.1174    0.3287   -0.7953 H   0  0  0  0  0  0  0  0  0  0  0  0
    0.4323   -1.3770   -0.5165 H   0  0  0  0  0  0  0  0  0  0  0  0
   -1.2933   -1.0113   -1.7481 C   0  0  0  0  0  0  0  0  0  0  0  0
   -2.0718   -1.7088   -1.4282 H   0  0  0  0  0  0  0  0  0  0  0  0
   -1.7892   -0.1087   -2.1228 H   0  0  0  0  0  0  0  0  0  0  0  0
   -0.4993   -1.7103   -2.8585 C   0  0  0  0  0  0  0  0  0  0  0  0
    0.2971   -1.0448   -3.2092 H   0  0  0  0  0  0  0  0  0  0  0  0
   -0.0346   -2.6175   -2.4559 H   0  0  0  0  0  0  0  0  0  0  0  0
   -1.4258   -2.0741   -4.0159 C   0  0  0  0  0  0  0  0  0  0  0  0
   -2.2444   -2.7044   -3.6381 H   0  0  0  0  0  0  0  0  0  0  0  0
   -1.8817   -1.1570   -4.4170 H   0  0  0  0  0  0  0  0  0  0  0  0
   -0.6454   -2.7825   -5.0535 N   0  3  0  0  0  0  0  0  0  0  0  0
   -0.2423   -3.6367   -4.6628 H   0  0  0  0  0  0  0  0  0  0  0  0
   -1.2492   -3.0305   -5.8403 H   0  0  0  0  0  0  0  0  0  0  0  0
    0.1106   -2.1837   -5.3910 H   0  0  0  0  0  0  0  0  0  0  0  0
   -1.1472    0.8687    1.3245 C   0  0  0  0  0  0  0  0  0  0  0  0
   -2.1211    1.5164    0.9601 O   0  0  0  0  0  0  0  0  0  0  0  0
   -0.2247    1.4391    2.1818 N   0  0  0  0  0  0  0  0  0  0  0  0
    0.5247    0.8497    2.5347 H   0  0  0  0  0  0  0  0  0  0  0  0
   -0.3743    2.7838    2.7294 C   0  0  0  0  0  0  0  0  0  0  0  0
   -1.2881    2.8548    3.3292 H   0  0  0  0  0  0  0  0  0  0  0  0
    0.4784    3.0305    3.3696 H   0  0  0  0  0  0  0  0  0  0  0  0
   -0.4246    3.5244    1.9240 H   0  0  0  0  0  0  0  0  0  0  0  0
  1  2  1  0  0  0  0
  2  3  1  0  0  0  0
  2  4  1  0  0  0  0
  2  5  1  0  0  0  0
  5  6  2  0  0  0  0
  5  7  1  0  0  0  0
  7  8  1  0  0  0  0
  7  9  1  0  0  0  0
  9 10  1  0  0  0  0
  9 11  1  0  0  0  0
  9 27  1  0  0  0  0
 11 12  1  0  0  0  0
 11 13  1  0  0  0  0
 11 14  1  0  0  0  0
 14 15  1  0  0  0  0
 14 16  1  0  0  0  0
 14 17  1  0  0  0  0
 17 18  1  0  0  0  0
 17 19  1  0  0  0  0
 17 20  1  0  0  0  0
 20 21  1  0  0  0  0
 20 22  1  0  0  0  0
 20 23  1  0  0  0  0
 23 24  1  0  0  0  0
 23 25  1  0  0  0  0
 23 26  1  0  0  0  0
 27 28  2  0  0  0  0
 27 29  1  0  0  0  0
 29 30  1  0  0  0  0
 29 31  1  0  0  0  0
 31 32  1  0  0  0  0
 31 33  1  0  0  0  0
 31 34  1  0  0  0  0
M  CHG  1  23   1
M  END
$$$$

  -OEChem-02102214153D

 34 33  0     1  0  0  0  0  0999 V2000
   -3.8092   -3.9896    2.3044 H   0  0  0  0  0  0  0  0  0  0  0  0
   -3.8681   -2.9720    1.9080 C   0  0  0  0  0  0  0  0  0  0  0  0
   -4.2459   -2.3123    2.6932 H   0  0  0  0  0  0  0  0  0  0  0  0
   -4.5644   -2.9599    1.0663 H   0  0  0  0  0  0  0  0  0  0  0  0
   -2.4972   -2.5072    1.4560 C   0  0  0  0  0  0  0  0  0  0  0  0
   -1.5450   -3.2710    1.4795 O   0  0  0  0  0  0  0  0  0  0  0  0
   -2.3291   -1.2389    0.9426 N   0  0  0  0  0  0  0  0  0  0  0  0
   -3.1332   -0.6131    1.0111 H   0  0  0  0  0  0  0  0  0  0  0  0
   -1.0164   -0.5785    0.8465 C   0  0  1  0  0  0  0  0  0  0  0  0
   -0.3233   -1.0660    1.5413 H   0  0  0  0  0  0  0  0  0  0  0  0
   -0.3708   -0.6217   -0.5653 C   0  0  0  0  0  0  0  0  0  0  0  0
    0.1069    0.3400   -0.7833 H   0  0  0  0  0  0  0  0  0  0  0  0
    0.4381   -1.3568   -0.4989 H   0  0  0  0  0  0  0  0  0  0  0  0
   -1.2771   -1.0036   -1.7632 C   0  0  0  0  0  0  0  0  0  0  0  0
   -2.2200   -1.4505   -1.4416 H   0  0  0  0  0  0  0  0  0  0  0  0
   -1.5293   -0.0933   -2.3186 H   0  0  0  0  0  0  0  0  0  0  0  0
   -0.5727   -2.0140   -2.6777 C   0  0  0  0  0  0  0  0  0  0  0  0
    0.3592   -1.5779   -3.0544 H   0  0  0  0  0  0  0  0  0  0  0  0
   -0.3215   -2.9092   -2.0968 H   0  0  0  0  0  0  0  0  0  0  0  0
   -1.4823   -2.3955   -3.8423 C   0  0  0  0  0  0  0  0  0  0  0  0
   -2.4376   -2.7701   -3.4457 H   0  0  0  0  0  0  0  0  0  0  0  0
   -1.7070   -1.4980   -4.4375 H   0  0  0  0  0  0  0  0  0  0  0  0
   -0.8055   -3.4270   -4.6578 N   0  3  0  0  0  0  0  0  0  0  0  0
   -0.6195   -4.2542   -4.0866 H   0  0  0  0  0  0  0  0  0  0  0  0
   -1.3960   -3.6952   -5.4478 H   0  0  0  0  0  0  0  0  0  0  0  0
    0.0812   -3.0647   -5.0134 H   0  0  0  0  0  0  0  0  0  0  0  0
   -1.1532    0.8770    1.3390 C   0  0  0  0  0  0  0  0  0  0  0  0
   -2.1329    1.5272    0.9959 O   0  0  0  0  0  0  0  0  0  0  0  0
   -0.2245    1.4372    2.1963 N   0  0  0  0  0  0  0  0  0  0  0  0
    0.5340    0.8477    2.5287 H   0  0  0  0  0  0  0  0  0  0  0  0
   -0.3654    2.7788    2.7541 C   0  0  0  0  0  0  0  0  0  0  0  0
   -1.2743    2.8481    3.3615 H   0  0  0  0  0  0  0  0  0  0  0  0
    0.4934    3.0186    3.3889 H   0  0  0  0  0  0  0  0  0  0  0  0
   -0.4202    3.5248    1.9538 H   0  0  0  0  0  0  0  0  0  0  0  0
  1  2  1  0  0  0  0
  2  3  1  0  0  0  0
  2  4  1  0  0  0  0
  2  5  1  0  0  0  0
  5  6  2  0  0  0  0
  5  7  1  0  0  0  0
  7  8  1  0  0  0  0
  7  9  1  0  0  0  0
  9 10  1  0  0  0  0
  9 11  1  0  0  0  0
  9 27  1  0  0  0  0
 11 12  1  0  0  0  0
 11 13  1  0  0  0  0
 11 14  1  0  0  0  0
 14 15  1  0  0  0  0
 14 16  1  0  0  0  0
 14 17  1  0  0  0  0
 17 18  1  0  0  0  0
 17 19  1  0  0  0  0
 17 20  1  0  0  0  0
 20 21  1  0  0  0  0
 20 22  1  0  0  0  0
 20 23  1  0  0  0  0
 23 24  1  0  0  0  0
 23 25  1  0  0  0  0
 23 26  1  0  0  0  0
 27 28  2  0  0  0  0
 27 29  1  0  0  0  0
 29 30  1  0  0  0  0
 29 31  1  0  0  0  0
 31 32  1  0  0  0  0
 31 33  1  0  0  0  0
 31 34  1  0  0  0  0
M  CHG  1  23   1
M  END
$$$$

  -OEChem-02102214153D

 34 33  0     1  0  0  0  0  0999 V2000
   -3.8050   -3.9788    2.2394 H   0  0  0  0  0  0  0  0  0  0  0  0
   -3.8627   -2.9517    1.8682 C   0  0  0  0  0  0  0  0  0  0  0  0
   -4.2087   -2.3057    2.6792 H   0  0  0  0  0  0  0  0  0  0  0  0
   -4.5841   -2.9116    1.0488 H   0  0  0  0  0  0  0  0  0  0  0  0
   -2.5004   -2.4920    1.3859 C   0  0  0  0  0  0  0  0  0  0  0  0
   -1.5621   -3.2724    1.3393 O   0  0  0  0  0  0  0  0  0  0  0  0
   -2.3323   -1.2134    0.9003 N   0  0  0  0  0  0  0  0  0  0  0  0
   -3.1312   -0.5858    1.0057 H   0  0  0  0  0  0  0  0  0  0  0  0
   -1.0197   -0.5486    0.8273 C   0  0  1  0  0  0  0  0  0  0  0  0
   -0.3392   -1.0484    1.5258 H   0  0  0  0  0  0  0  0  0  0  0  0
   -0.3519   -0.5962   -0.5729 C   0  0  0  0  0  0  0  0  0  0  0  0
    0.0939    0.3819   -0.7855 H   0  0  0  0  0  0  0  0  0  0  0  0
    0.4830   -1.3014   -0.5039 H   0  0  0  0  0  0  0  0  0  0  0  0
   -1.2461   -0.9868   -1.7772 C   0  0  0  0  0  0  0  0  0  0  0  0
   -2.2910   -1.1353   -1.4960 H   0  0  0  0  0  0  0  0  0  0  0  0
   -1.2375   -0.1606   -2.4969 H   0  0  0  0  0  0  0  0  0  0  0  0
   -0.7077   -2.2533   -2.4546 C   0  0  0  0  0  0  0  0  0  0  0  0
    0.3016   -2.0658   -2.8373 H   0  0  0  0  0  0  0  0  0  0  0  0
   -0.6470   -3.0532   -1.7070 H   0  0  0  0  0  0  0  0  0  0  0  0
   -1.6288   -2.6854   -3.5909 C   0  0  0  0  0  0  0  0  0  0  0  0
   -2.6546   -2.7830   -3.2061 H   0  0  0  0  0  0  0  0  0  0  0  0
   -1.6447   -1.9050   -4.3659 H   0  0  0  0  0  0  0  0  0  0  0  0
   -1.1390   -3.9728   -4.1286 N   0  3  0  0  0  0  0  0  0  0  0  0
   -1.1376   -4.6783   -3.3885 H   0  0  0  0  0  0  0  0  0  0  0  0
   -1.7425   -4.2905   -4.8898 H   0  0  0  0  0  0  0  0  0  0  0  0
   -0.1866   -3.8635   -4.4819 H   0  0  0  0  0  0  0  0  0  0  0  0
   -1.1540    0.8981    1.3465 C   0  0  0  0  0  0  0  0  0  0  0  0
   -2.1428    1.5486    1.0317 O   0  0  0  0  0  0  0  0  0  0  0  0
   -0.2276    1.4382    2.2193 N   0  0  0  0  0  0  0  0  0  0  0  0
    0.5431    0.8491    2.5229 H   0  0  0  0  0  0  0  0  0  0  0  0
   -0.3723    2.7637    2.8136 C   0  0  0  0  0  0  0  0  0  0  0  0
   -1.2886    2.8191    3.4112 H   0  0  0  0  0  0  0  0  0  0  0  0
    0.4784    2.9822    3.4668 H   0  0  0  0  0  0  0  0  0  0  0  0
   -0.4144    3.5320    2.0342 H   0  0  0  0  0  0  0  0  0  0  0  0
  1  2  1  0  0  0  0
  2  3  1  0  0  0  0
  2  4  1  0  0  0  0
  2  5  1  0  0  0  0
  5  6  2  0  0  0  0
  5  7  1  0  0  0  0
  7  8  1  0  0  0  0
  7  9  1  0  0  0  0
  9 10  1  0  0  0  0
  9 11  1  0  0  0  0
  9 27  1  0  0  0  0
 11 12  1  0  0  0  0
 11 13  1  0  0  0  0
 11 14  1  0  0  0  0
 14 15  1  0  0  0  0
 14 16  1  0  0  0  0
 14 17  1  0  0  0  0
 17 18  1  0  0  0  0
 17 19  1  0  0  0  0
 17 20  1  0  0  0  0
 20 21  1  0  0  0  0
 20 22  1  0  0  0  0
 20 23  1  0  0  0  0
 23 24  1  0  0  0  0
 23 25  1  0  0  0  0
 23 26  1  0  0  0  0
 27 28  2  0  0  0  0
 27 29  1  0  0  0  0
 29 30  1  0  0  0  0
 29 31  1  0  0  0  0
 31 32  1  0  0  0  0
 31 33  1  0  0  0  0
 31 34  1  0  0  0  0
M  CHG  1  23   1
M  END
$$$$

  -OEChem-02102214153D

 34 33  0     1  0  0  0  0  0999 V2000
   -3.8273   -3.9723    2.1578 H   0  0  0  0  0  0  0  0  0  0  0  0
   -3.8648   -2.9367    1.8080 C   0  0  0  0  0  0  0  0  0  0  0  0
   -4.1915   -2.3006    2.6347 H   0  0  0  0  0  0  0  0  0  0  0  0
   -4.5907   -2.8635    0.9951 H   0  0  0  0  0  0  0  0  0  0  0  0
   -2.4954   -2.4961    1.3279 C   0  0  0  0  0  0  0  0  0  0  0  0
   -1.5727   -3.2944    1.2726 O   0  0  0  0  0  0  0  0  0  0  0  0
   -2.3075   -1.2170    0.8515 N   0  0  0  0  0  0  0  0  0  0  0  0
   -3.1024   -0.5832    0.9545 H   0  0  0  0  0  0  0  0  0  0  0  0
   -0.9918   -0.5525    0.8165 C   0  0  1  0  0  0  0  0  0  0  0  0
   -0.3283   -1.0572    1.5278 H   0  0  0  0  0  0  0  0  0  0  0  0
   -0.2936   -0.5914   -0.5688 C   0  0  0  0  0  0  0  0  0  0  0  0
    0.1335    0.3979   -0.7684 H   0  0  0  0  0  0  0  0  0  0  0  0
    0.5545   -1.2811   -0.5050 H   0  0  0  0  0  0  0  0  0  0  0  0
   -1.1811   -0.9740   -1.7751 C   0  0  0  0  0  0  0  0  0  0  0  0
   -2.2453   -0.8343   -1.5634 H   0  0  0  0  0  0  0  0  0  0  0  0
   -0.9427   -0.3024   -2.6073 H   0  0  0  0  0  0  0  0  0  0  0  0
   -0.8788   -2.4135   -2.2116 C   0  0  0  0  0  0  0  0  0  0  0  0
    0.1470   -2.4747   -2.5914 H   0  0  0  0  0  0  0  0  0  0  0  0
   -0.9549   -3.0707   -1.3384 H   0  0  0  0  0  0  0  0  0  0  0  0
   -1.8623   -2.8777   -3.2789 C   0  0  0  0  0  0  0  0  0  0  0  0
   -2.8889   -2.7133   -2.9203 H   0  0  0  0  0  0  0  0  0  0  0  0
   -1.7327   -2.2715   -4.1873 H   0  0  0  0  0  0  0  0  0  0  0  0
   -1.6143   -4.3118   -3.5395 N   0  3  0  0  0  0  0  0  0  0  0  0
   -1.7089   -4.8412   -2.6694 H   0  0  0  0  0  0  0  0  0  0  0  0
   -2.2853   -4.6696   -4.2221 H   0  0  0  0  0  0  0  0  0  0  0  0
   -0.6680   -4.4416   -3.9018 H   0  0  0  0  0  0  0  0  0  0  0  0
   -1.1458    0.8919    1.3371 C   0  0  0  0  0  0  0  0  0  0  0  0
   -2.1360    1.5331    1.0077 O   0  0  0  0  0  0  0  0  0  0  0  0
   -0.2479    1.4335    2.2379 N   0  0  0  0  0  0  0  0  0  0  0  0
    0.5266    0.8536    2.5497 H   0  0  0  0  0  0  0  0  0  0  0  0
   -0.4170    2.7563    2.8321 C   0  0  0  0  0  0  0  0  0  0  0  0
   -1.3498    2.8043    3.4043 H   0  0  0  0  0  0  0  0  0  0  0  0
    0.4137    2.9778    3.5093 H   0  0  0  0  0  0  0  0  0  0  0  0
   -0.4419    3.5276    2.0546 H   0  0  0  0  0  0  0  0  0  0  0  0
  1  2  1  0  0  0  0
  2  3  1  0  0  0  0
  2  4  1  0  0  0  0
  2  5  1  0  0  0  0
  5  6  2  0  0  0  0
  5  7  1  0  0  0  0
  7  8  1  0  0  0  0
  7  9  1  0  0  0  0
  9 10  1  0  0  0  0
  9 11  1  0  0  0  0
  9 27  1  0  0  0  0
 11 12  1  0  0  0  0
 11 13  1  0  0  0  0
 11 14  1  0  0  0  0
 14 15  1  0  0  0  0
 14 16  1  0  0  0  0
 14 17  1  0  0  0  0
 17 18  1  0  0  0  0
 17 19  1  0  0  0  0
 17 20  1  0  0  0  0
 20 21  1  0  0  0  0
 20 22  1  0  0  0  0
 20 23  1  0  0  0  0
 23 24  1  0  0  0  0
 23 25  1  0  0  0  0
 23 26  1  0  0  0  0
 27 28  2  0  0  0  0
 27 29  1  0  0  0  0
 29 30  1  0  0  0  0
 29 31  1  0  0  0  0
 31 32  1  0  0  0  0
 31 33  1  0  0  0  0
 31 34  1  0  0  0  0
M  CHG  1  23   1
M  END
$$$$

  -OEChem-02102214153D

 34 33  0     1  0  0  0  0  0999 V2000
   -3.8873   -3.9662    2.2415 H   0  0  0  0  0  0  0  0  0  0  0  0
   -3.8925   -2.9298    1.8919 C   0  0  0  0  0  0  0  0  0  0  0  0
   -4.2283   -2.2876    2.7101 H   0  0  0  0  0  0  0  0  0  0  0  0
   -4.5936   -2.8397    1.0591 H   0  0  0  0  0  0  0  0  0  0  0  0
   -2.5006   -2.5185    1.4521 C   0  0  0  0  0  0  0  0  0  0  0  0
   -1.5788   -3.3169    1.5037 O   0  0  0  0  0  0  0  0  0  0  0  0
   -2.2878   -1.2652    0.9192 N   0  0  0  0  0  0  0  0  0  0  0  0
   -3.0820   -0.6236    0.9611 H   0  0  0  0  0  0  0  0  0  0  0  0
   -0.9678   -0.6076    0.8769 C   0  0  1  0  0  0  0  0  0  0  0  0
   -0.3057   -1.0844    1.6083 H   0  0  0  0  0  0  0  0  0  0  0  0
   -0.2576   -0.6424   -0.5050 C   0  0  0  0  0  0  0  0  0  0  0  0
    0.1787    0.3438   -0.7002 H   0  0  0  0  0  0  0  0  0  0  0  0
    0.5829   -1.3417   -0.4425 H   0  0  0  0  0  0  0  0  0  0  0  0
   -1.1321   -1.0183   -1.7176 C   0  0  0  0  0  0  0  0  0  0  0  0
   -2.1510   -0.6402   -1.5813 H   0  0  0  0  0  0  0  0  0  0  0  0
   -0.7263   -0.5261   -2.6083 H   0  0  0  0  0  0  0  0  0  0  0  0
   -1.1259   -2.5352   -1.9526 C   0  0  0  0  0  0  0  0  0  0  0  0
   -0.1167   -2.8499   -2.2402 H   0  0  0  0  0  0  0  0  0  0  0  0
   -1.3816   -3.0533   -1.0268 H   0  0  0  0  0  0  0  0  0  0  0  0
   -2.1210   -2.9247   -3.0376 C   0  0  0  0  0  0  0  0  0  0  0  0
   -3.1207   -2.5603   -2.7599 H   0  0  0  0  0  0  0  0  0  0  0  0
   -1.8449   -2.4346   -3.9826 H   0  0  0  0  0  0  0  0  0  0  0  0
   -2.1042   -4.3977   -3.1644 N   0  3  0  0  0  0  0  0  0  0  0  0
   -2.3097   -4.8245   -2.2581 H   0  0  0  0  0  0  0  0  0  0  0  0
   -2.8030   -4.7032   -3.8444 H   0  0  0  0  0  0  0  0  0  0  0  0
   -1.1811   -4.7100   -3.4711 H   0  0  0  0  0  0  0  0  0  0  0  0
   -1.1486    0.8573    1.3295 C   0  0  0  0  0  0  0  0  0  0  0  0
   -2.1339    1.4756    0.9443 O   0  0  0  0  0  0  0  0  0  0  0  0
   -0.2762    1.4465    2.2251 N   0  0  0  0  0  0  0  0  0  0  0  0
    0.5037    0.8928    2.5695 H   0  0  0  0  0  0  0  0  0  0  0  0
   -0.4513    2.8042    2.7319 C   0  0  0  0  0  0  0  0  0  0  0  0
   -1.3863    2.8862    3.2966 H   0  0  0  0  0  0  0  0  0  0  0  0
    0.3769    3.0721    3.3955 H   0  0  0  0  0  0  0  0  0  0  0  0
   -0.4758    3.5233    1.9060 H   0  0  0  0  0  0  0  0  0  0  0  0
  1  2  1  0  0  0  0
  2  3  1  0  0  0  0
  2  4  1  0  0  0  0
  2  5  1  0  0  0  0
  5  6  2  0  0  0  0
  5  7  1  0  0  0  0
  7  8  1  0  0  0  0
  7  9  1  0  0  0  0
  9 10  1  0  0  0  0
  9 11  1  0  0  0  0
  9 27  1  0  0  0  0
 11 12  1  0  0  0  0
 11 13  1  0  0  0  0
 11 14  1  0  0  0  0
 14 15  1  0  0  0  0
 14 16  1  0  0  0  0
 14 17  1  0  0  0  0
 17 18  1  0  0  0  0
 17 19  1  0  0  0  0
 17 20  1  0  0  0  0
 20 21  1  0  0  0  0
 20 22  1  0  0  0  0
 20 23  1  0  0  0  0
 23 24  1  0  0  0  0
 23 25  1  0  0  0  0
 23 26  1  0  0  0  0
 27 28  2  0  0  0  0
 27 29  1  0  0  0  0
 29 30  1  0  0  0  0
 29 31  1  0  0  0  0
 31 32  1  0  0  0  0
 31 33  1  0  0  0  0
 31 34  1  0  0  0  0
M  CHG  1  23   1
M  END
$$$$

  -OEChem-02102214153D

 34 33  0     1  0  0  0  0  0999 V2000
   -3.7816   -3.9107    2.6668 H   0  0  0  0  0  0  0  0  0  0  0  0
   -3.8351   -2.8877    2.2836 C   0  0  0  0  0  0  0  0  0  0  0  0
   -4.0801   -2.2179    3.1119 H   0  0  0  0  0  0  0  0  0  0  0  0
   -4.6278   -2.8311    1.5343 H   0  0  0  0  0  0  0  0  0  0  0  0
   -2.5069   -2.4872    1.6712 C   0  0  0  0  0  0  0  0  0  0  0  0
   -1.5969   -3.2970    1.5867 O   0  0  0  0  0  0  0  0  0  0  0  0
   -2.3528   -1.2391    1.1061 N   0  0  0  0  0  0  0  0  0  0  0  0
   -3.1329   -0.5919    1.2359 H   0  0  0  0  0  0  0  0  0  0  0  0
   -1.0397   -0.5945    0.9326 C   0  0  1  0  0  0  0  0  0  0  0  0
   -0.3203   -1.0678    1.6103 H   0  0  0  0  0  0  0  0  0  0  0  0
   -0.4440   -0.6541   -0.5001 C   0  0  0  0  0  0  0  0  0  0  0  0
   -0.0091    0.3233   -0.7380 H   0  0  0  0  0  0  0  0  0  0  0  0
    0.3896   -1.3639   -0.4849 H   0  0  0  0  0  0  0  0  0  0  0  0
   -1.3817   -1.0397   -1.6625 C   0  0  0  0  0  0  0  0  0  0  0  0
   -2.3026   -0.4483   -1.6081 H   0  0  0  0  0  0  0  0  0  0  0  0
   -0.8738   -0.7667   -2.5941 H   0  0  0  0  0  0  0  0  0  0  0  0
   -1.7137   -2.5416   -1.7001 C   0  0  0  0  0  0  0  0  0  0  0  0
   -0.8238   -3.1178   -1.4233 H   0  0  0  0  0  0  0  0  0  0  0  0
   -2.5013   -2.7693   -0.9800 H   0  0  0  0  0  0  0  0  0  0  0  0
   -2.1805   -2.9628   -3.0883 C   0  0  0  0  0  0  0  0  0  0  0  0
   -3.0918   -2.4066   -3.3523 H   0  0  0  0  0  0  0  0  0  0  0  0
   -1.4103   -2.6983   -3.8276 H   0  0  0  0  0  0  0  0  0  0  0  0
   -2.4220   -4.4215   -3.0661 N   0  3  0  0  0  0  0  0  0  0  0  0
   -3.1448   -4.6434   -2.3788 H   0  0  0  0  0  0  0  0  0  0  0  0
   -2.7250   -4.7453   -3.9867 H   0  0  0  0  0  0  0  0  0  0  0  0
   -1.5627   -4.9105   -2.8061 H   0  0  0  0  0  0  0  0  0  0  0  0
   -1.1627    0.8763    1.3849 C   0  0  0  0  0  0  0  0  0  0  0  0
   -2.1738    1.5024    1.0905 O   0  0  0  0  0  0  0  0  0  0  0  0
   -0.2029    1.4642    2.1872 N   0  0  0  0  0  0  0  0  0  0  0  0
    0.5998    0.9048    2.4629 H   0  0  0  0  0  0  0  0  0  0  0  0
   -0.3126    2.8298    2.6905 C   0  0  0  0  0  0  0  0  0  0  0  0
   -1.2056    2.9383    3.3152 H   0  0  0  0  0  0  0  0  0  0  0  0
    0.5638    3.0841    3.2948 H   0  0  0  0  0  0  0  0  0  0  0  0
   -0.3760    3.5415    1.8603 H   0  0  0  0  0  0  0  0  0  0  0  0
  1  2  1  0  0  0  0
  2  3  1  0  0  0  0
  2  4  1  0  0  0  0
  2  5  1  0  0  0  0
  5  6  2  0  0  0  0
  5  7  1  0  0  0  0
  7  8  1  0  0  0  0
  7  9  1  0  0  0  0
  9 10  1  0  0  0  0
  9 11  1  0  0  0  0
  9 27  1  0  0  0  0
 11 12  1  0  0  0  0
 11 13  1  0  0  0  0
 11 14  1  0  0  0  0
 14 15  1  0  0  0  0
 14 16  1  0  0  0  0
 14 17  1  0  0  0  0
 17 18  1  0  0  0  0
 17 19  1  0  0  0  0
 17 20  1  0  0  0  0
 20 21  1  0  0  0  0
 20 22  1  0  0  0  0
 20 23  1  0  0  0  0
 23 24  1  0  0  0  0
 23 25  1  0  0  0  0
 23 26  1  0  0  0  0
 27 28  2  0  0  0  0
 27 29  1  0  0  0  0
 29 30  1  0  0  0  0
 29 31  1  0  0  0  0
 31 32  1  0  0  0  0
 31 33  1  0  0  0  0
 31 34  1  0  0  0  0
M  CHG  1  23   1
M  END
$$$$

  -OEChem-02102214153D

 34 33  0     1  0  0  0  0  0999 V2000
   -3.7274   -3.8928    2.8126 H   0  0  0  0  0  0  0  0  0  0  0  0
   -3.7917   -2.8628    2.4503 C   0  0  0  0  0  0  0  0  0  0  0  0
   -3.9633   -2.2029    3.3048 H   0  0  0  0  0  0  0  0  0  0  0  0
   -4.6367   -2.7807    1.7630 H   0  0  0  0  0  0  0  0  0  0  0  0
   -2.5049   -2.4737    1.7485 C   0  0  0  0  0  0  0  0  0  0  0  0
   -1.6149   -3.2944    1.5914 O   0  0  0  0  0  0  0  0  0  0  0  0
   -2.3724   -1.2184    1.1943 N   0  0  0  0  0  0  0  0  0  0  0  0
   -3.1361   -0.5661    1.3835 H   0  0  0  0  0  0  0  0  0  0  0  0
   -1.0695   -0.5783    0.9496 C   0  0  1  0  0  0  0  0  0  0  0  0
   -0.3189   -1.0631    1.5842 H   0  0  0  0  0  0  0  0  0  0  0  0
   -0.5345   -0.6143   -0.5109 C   0  0  0  0  0  0  0  0  0  0  0  0
   -0.0838    0.3571   -0.7442 H   0  0  0  0  0  0  0  0  0  0  0  0
    0.2825   -1.3435   -0.5290 H   0  0  0  0  0  0  0  0  0  0  0  0
   -1.4832   -0.9765   -1.6752 C   0  0  0  0  0  0  0  0  0  0  0  0
   -2.2794   -0.2256   -1.7344 H   0  0  0  0  0  0  0  0  0  0  0  0
   -0.9008   -0.9076   -2.6006 H   0  0  0  0  0  0  0  0  0  0  0  0
   -2.1150   -2.3749   -1.5753 C   0  0  0  0  0  0  0  0  0  0  0  0
   -1.4126   -3.0476   -1.0710 H   0  0  0  0  0  0  0  0  0  0  0  0
   -3.0355   -2.3288   -0.9878 H   0  0  0  0  0  0  0  0  0  0  0  0
   -2.4370   -2.9335   -2.9564 C   0  0  0  0  0  0  0  0  0  0  0  0
   -3.1894   -2.2971   -3.4451 H   0  0  0  0  0  0  0  0  0  0  0  0
   -1.5309   -2.9051   -3.5790 H   0  0  0  0  0  0  0  0  0  0  0  0
   -2.9224   -4.3201   -2.7879 N   0  3  0  0  0  0  0  0  0  0  0  0
   -3.8096   -4.3196   -2.2822 H   0  0  0  0  0  0  0  0  0  0  0  0
   -3.0574   -4.7618   -3.6994 H   0  0  0  0  0  0  0  0  0  0  0  0
   -2.2396   -4.8616   -2.2523 H   0  0  0  0  0  0  0  0  0  0  0  0
   -1.1598    0.8856    1.4322 C   0  0  0  0  0  0  0  0  0  0  0  0
   -2.1886    1.5158    1.2187 O   0  0  0  0  0  0  0  0  0  0  0  0
   -0.1501    1.4572    2.1837 N   0  0  0  0  0  0  0  0  0  0  0  0
    0.6745    0.8972    2.3833 H   0  0  0  0  0  0  0  0  0  0  0  0
   -0.2261    2.8114    2.7231 C   0  0  0  0  0  0  0  0  0  0  0  0
   -1.0860    2.9109    3.3942 H   0  0  0  0  0  0  0  0  0  0  0  0
    0.6806    3.0466    3.2892 H   0  0  0  0  0  0  0  0  0  0  0  0
   -0.3261    3.5419    1.9134 H   0  0  0  0  0  0  0  0  0  0  0  0
  1  2  1  0  0  0  0
  2  3  1  0  0  0  0
  2  4  1  0  0  0  0
  2  5  1  0  0  0  0
  5  6  2  0  0  0  0
  5  7  1  0  0  0  0
  7  8  1  0  0  0  0
  7  9  1  0  0  0  0
  9 10  1  0  0  0  0
  9 11  1  0  0  0  0
  9 27  1  0  0  0  0
 11 12  1  0  0  0  0
 11 13  1  0  0  0  0
 11 14  1  0  0  0  0
 14 15  1  0  0  0  0
 14 16  1  0  0  0  0
 14 17  1  0  0  0  0
 17 18  1  0  0  0  0
 17 19  1  0  0  0  0
 17 20  1  0  0  0  0
 20 21  1  0  0  0  0
 20 22  1  0  0  0  0
 20 23  1  0  0  0  0
 23 24  1  0  0  0  0
 23 25  1  0  0  0  0
 23 26  1  0  0  0  0
 27 28  2  0  0  0  0
 27 29  1  0  0  0  0
 29 30  1  0  0  0  0
 29 31  1  0  0  0  0
 31 32  1  0  0  0  0
 31 33  1  0  0  0  0
 31 34  1  0  0  0  0
M  CHG  1  23   1
M  END
$$$$

  -OEChem-02102214153D

 34 33  0     1  0  0  0  0  0999 V2000
   -3.6752   -3.8458    2.9978 H   0  0  0  0  0  0  0  0  0  0  0  0
   -3.7507   -2.8262    2.6095 C   0  0  0  0  0  0  0  0  0  0  0  0
   -3.8973   -2.1432    3.4503 H   0  0  0  0  0  0  0  0  0  0  0  0
   -4.6157   -2.7629    1.9460 H   0  0  0  0  0  0  0  0  0  0  0  0
   -2.4853   -2.4570    1.8595 C   0  0  0  0  0  0  0  0  0  0  0  0
   -1.6031   -3.2835    1.6934 O   0  0  0  0  0  0  0  0  0  0  0  0
   -2.3630   -1.2116    1.2820 N   0  0  0  0  0  0  0  0  0  0  0  0
   -3.1148   -0.5510    1.4891 H   0  0  0  0  0  0  0  0  0  0  0  0
   -1.0643   -0.5819    0.9961 C   0  0  1  0  0  0  0  0  0  0  0  0
   -0.3036   -1.0577    1.6255 H   0  0  0  0  0  0  0  0  0  0  0  0
   -0.5392   -0.6242   -0.4706 C   0  0  0  0  0  0  0  0  0  0  0  0
   -0.0558    0.3320   -0.7019 H   0  0  0  0  0  0  0  0  0  0  0  0
    0.2570   -1.3765   -0.4724 H   0  0  0  0  0  0  0  0  0  0  0  0
   -1.4525   -0.9832   -1.6685 C   0  0  0  0  0  0  0  0  0  0  0  0
   -2.0753   -0.1104   -1.8946 H   0  0  0  0  0  0  0  0  0  0  0  0
   -0.7990   -1.1467   -2.5324 H   0  0  0  0  0  0  0  0  0  0  0  0
   -2.3787   -2.1954   -1.4973 C   0  0  0  0  0  0  0  0  0  0  0  0
   -1.8450   -2.9696   -0.9361 H   0  0  0  0  0  0  0  0  0  0  0  0
   -3.2771   -1.9098   -0.9430 H   0  0  0  0  0  0  0  0  0  0  0  0
   -2.7869   -2.7545   -2.8561 C   0  0  0  0  0  0  0  0  0  0  0  0
   -3.3866   -2.0063   -3.3948 H   0  0  0  0  0  0  0  0  0  0  0  0
   -1.8838   -2.9420   -3.4550 H   0  0  0  0  0  0  0  0  0  0  0  0
   -3.5439   -4.0058   -2.6384 N   0  3  0  0  0  0  0  0  0  0  0  0
   -4.4141   -3.8055   -2.1428 H   0  0  0  0  0  0  0  0  0  0  0  0
   -3.7635   -4.4464   -3.5341 H   0  0  0  0  0  0  0  0  0  0  0  0
   -2.9854   -4.6529   -2.0766 H   0  0  0  0  0  0  0  0  0  0  0  0
   -1.1502    0.8882    1.4610 C   0  0  0  0  0  0  0  0  0  0  0  0
   -2.1863    1.5114    1.2608 O   0  0  0  0  0  0  0  0  0  0  0  0
   -0.1278    1.4748    2.1833 N   0  0  0  0  0  0  0  0  0  0  0  0
    0.6992    0.9181    2.3830 H   0  0  0  0  0  0  0  0  0  0  0  0
   -0.2039    2.8322    2.7147 C   0  0  0  0  0  0  0  0  0  0  0  0
   -1.0376    2.9233    3.4194 H   0  0  0  0  0  0  0  0  0  0  0  0
    0.7213    3.0867    3.2414 H   0  0  0  0  0  0  0  0  0  0  0  0
   -0.3484    3.5548    1.9044 H   0  0  0  0  0  0  0  0  0  0  0  0
  1  2  1  0  0  0  0
  2  3  1  0  0  0  0
  2  4  1  0  0  0  0
  2  5  1  0  0  0  0
  5  6  2  0  0  0  0
  5  7  1  0  0  0  0
  7  8  1  0  0  0  0
  7  9  1  0  0  0  0
  9 10  1  0  0  0  0
  9 11  1  0  0  0  0
  9 27  1  0  0  0  0
 11 12  1  0  0  0  0
 11 13  1  0  0  0  0
 11 14  1  0  0  0  0
 14 15  1  0  0  0  0
 14 16  1  0  0  0  0
 14 17  1  0  0  0  0
 17 18  1  0  0  0  0
 17 19  1  0  0  0  0
 17 20  1  0  0  0  0
 20 21  1  0  0  0  0
 20 22  1  0  0  0  0
 20 23  1  0  0  0  0
 23 24  1  0  0  0  0
 23 25  1  0  0  0  0
 23 26  1  0  0  0  0
 27 28  2  0  0  0  0
 27 29  1  0  0  0  0
 29 30  1  0  0  0  0
 29 31  1  0  0  0  0
 31 32  1  0  0  0  0
 31 33  1  0  0  0  0
 31 34  1  0  0  0  0
M  CHG  1  23   1
M  END
$$$$

  -OEChem-02102214153D

 34 33  0     1  0  0  0  0  0999 V2000
   -3.5136   -3.9046    3.0971 H   0  0  0  0  0  0  0  0  0  0  0  0
   -3.6276   -2.8863    2.7142 C   0  0  0  0  0  0  0  0  0  0  0  0
   -3.7680   -2.2095    3.5609 H   0  0  0  0  0  0  0  0  0  0  0  0
   -4.5121   -2.8448    2.0752 H   0  0  0  0  0  0  0  0  0  0  0  0
   -2.3945   -2.4822    1.9297 C   0  0  0  0  0  0  0  0  0  0  0  0
   -1.4978   -3.2848    1.7328 O   0  0  0  0  0  0  0  0  0  0  0  0
   -2.3199   -1.2332    1.3519 N   0  0  0  0  0  0  0  0  0  0  0  0
   -3.0723   -0.5864    1.5961 H   0  0  0  0  0  0  0  0  0  0  0  0
   -1.0424   -0.5810    1.0242 C   0  0  1  0  0  0  0  0  0  0  0  0
   -0.2554   -1.0421    1.6323 H   0  0  0  0  0  0  0  0  0  0  0  0
   -0.5498   -0.6075   -0.4557 C   0  0  0  0  0  0  0  0  0  0  0  0
   -0.0651    0.3482   -0.6861 H   0  0  0  0  0  0  0  0  0  0  0  0
    0.2473   -1.3589   -0.4645 H   0  0  0  0  0  0  0  0  0  0  0  0
   -1.4528   -0.9736   -1.6641 C   0  0  0  0  0  0  0  0  0  0  0  0
   -1.8900   -0.0406   -2.0374 H   0  0  0  0  0  0  0  0  0  0  0  0
   -0.7957   -1.3583   -2.4524 H   0  0  0  0  0  0  0  0  0  0  0  0
   -2.6067   -1.9604   -1.4514 C   0  0  0  0  0  0  0  0  0  0  0  0
   -2.2356   -2.8234   -0.8888 H   0  0  0  0  0  0  0  0  0  0  0  0
   -3.4115   -1.4810   -0.8864 H   0  0  0  0  0  0  0  0  0  0  0  0
   -3.1507   -2.4309   -2.7965 C   0  0  0  0  0  0  0  0  0  0  0  0
   -3.5737   -1.5726   -3.3389 H   0  0  0  0  0  0  0  0  0  0  0  0
   -2.3222   -2.8239   -3.4038 H   0  0  0  0  0  0  0  0  0  0  0  0
   -4.1698   -3.4742   -2.5551 N   0  3  0  0  0  0  0  0  0  0  0  0
   -4.9452   -3.0855   -2.0158 H   0  0  0  0  0  0  0  0  0  0  0  0
   -4.5274   -3.8306   -3.4438 H   0  0  0  0  0  0  0  0  0  0  0  0
   -3.7544   -4.2467   -2.0294 H   0  0  0  0  0  0  0  0  0  0  0  0
   -1.1430    0.8856    1.4973 C   0  0  0  0  0  0  0  0  0  0  0  0
   -2.1993    1.4867    1.3359 O   0  0  0  0  0  0  0  0  0  0  0  0
   -0.1103    1.4916    2.1883 N   0  0  0  0  0  0  0  0  0  0  0  0
    0.7337    0.9510    2.3602 H   0  0  0  0  0  0  0  0  0  0  0  0
   -0.2012    2.8418    2.7361 C   0  0  0  0  0  0  0  0  0  0  0  0
   -1.0153    2.9066    3.4659 H   0  0  0  0  0  0  0  0  0  0  0  0
    0.7333    3.1124    3.2378 H   0  0  0  0  0  0  0  0  0  0  0  0
   -0.3864    3.5687    1.9381 H   0  0  0  0  0  0  0  0  0  0  0  0
  1  2  1  0  0  0  0
  2  3  1  0  0  0  0
  2  4  1  0  0  0  0
  2  5  1  0  0  0  0
  5  6  2  0  0  0  0
  5  7  1  0  0  0  0
  7  8  1  0  0  0  0
  7  9  1  0  0  0  0
  9 10  1  0  0  0  0
  9 11  1  0  0  0  0
  9 27  1  0  0  0  0
 11 12  1  0  0  0  0
 11 13  1  0  0  0  0
 11 14  1  0  0  0  0
 14 15  1  0  0  0  0
 14 16  1  0  0  0  0
 14 17  1  0  0  0  0
 17 18  1  0  0  0  0
 17 19  1  0  0  0  0
 17 20  1  0  0  0  0
 20 21  1  0  0  0  0
 20 22  1  0  0  0  0
 20 23  1  0  0  0  0
 23 24  1  0  0  0  0
 23 25  1  0  0  0  0
 23 26  1  0  0  0  0
 27 28  2  0  0  0  0
 27 29  1  0  0  0  0
 29 30  1  0  0  0  0
 29 31  1  0  0  0  0
 31 32  1  0  0  0  0
 31 33  1  0  0  0  0
 31 34  1  0  0  0  0
M  CHG  1  23   1
M  END
$$$$

  -OEChem-02102214153D

 34 33  0     1  0  0  0  0  0999 V2000
   -3.3671   -4.0014    3.1054 H   0  0  0  0  0  0  0  0  0  0  0  0
   -3.5114   -2.9772    2.7494 C   0  0  0  0  0  0  0  0  0  0  0  0
   -3.6468   -2.3232    3.6147 H   0  0  0  0  0  0  0  0  0  0  0  0
   -4.4105   -2.9411    2.1309 H   0  0  0  0  0  0  0  0  0  0  0  0
   -2.3048   -2.5292    1.9471 C   0  0  0  0  0  0  0  0  0  0  0  0
   -1.3819   -3.2981    1.7399 O   0  0  0  0  0  0  0  0  0  0  0  0
   -2.2776   -1.2729    1.3796 N   0  0  0  0  0  0  0  0  0  0  0  0
   -3.0372   -0.6477    1.6538 H   0  0  0  0  0  0  0  0  0  0  0  0
   -1.0213   -0.5883    1.0348 C   0  0  1  0  0  0  0  0  0  0  0  0
   -0.2122   -1.0345    1.6250 H   0  0  0  0  0  0  0  0  0  0  0  0
   -0.5526   -0.5864   -0.4534 C   0  0  0  0  0  0  0  0  0  0  0  0
   -0.0879    0.3814   -0.6741 H   0  0  0  0  0  0  0  0  0  0  0  0
    0.2613   -1.3193   -0.4796 H   0  0  0  0  0  0  0  0  0  0  0  0
   -1.4545   -0.9553   -1.6648 C   0  0  0  0  0  0  0  0  0  0  0  0
   -1.6894   -0.0170   -2.1797 H   0  0  0  0  0  0  0  0  0  0  0  0
   -0.8463   -1.5522   -2.3539 H   0  0  0  0  0  0  0  0  0  0  0  0
   -2.7838   -1.6813   -1.4347 C   0  0  0  0  0  0  0  0  0  0  0  0
   -2.5973   -2.6051   -0.8775 H   0  0  0  0  0  0  0  0  0  0  0  0
   -3.4603   -1.0421   -0.8585 H   0  0  0  0  0  0  0  0  0  0  0  0
   -3.4267   -2.0198   -2.7768 C   0  0  0  0  0  0  0  0  0  0  0  0
   -3.6231   -1.0892   -3.3293 H   0  0  0  0  0  0  0  0  0  0  0  0
   -2.7195   -2.6109   -3.3771 H   0  0  0  0  0  0  0  0  0  0  0  0
   -4.6749   -2.7736   -2.5339 N   0  3  0  0  0  0  0  0  0  0  0  0
   -5.3181   -2.2099   -1.9753 H   0  0  0  0  0  0  0  0  0  0  0  0
   -5.1231   -3.0082   -3.4221 H   0  0  0  0  0  0  0  0  0  0  0  0
   -4.4647   -3.6371   -2.0292 H   0  0  0  0  0  0  0  0  0  0  0  0
   -1.1497    0.8704    1.5241 C   0  0  0  0  0  0  0  0  0  0  0  0
   -2.2231    1.4467    1.3834 O   0  0  0  0  0  0  0  0  0  0  0  0
   -0.1199    1.4944    2.2028 N   0  0  0  0  0  0  0  0  0  0  0  0
    0.7385    0.9710    2.3555 H   0  0  0  0  0  0  0  0  0  0  0  0
   -0.2362    2.8317    2.7761 C   0  0  0  0  0  0  0  0  0  0  0  0
   -1.0175    2.8537    3.5433 H   0  0  0  0  0  0  0  0  0  0  0  0
    0.7097    3.1297    3.2393 H   0  0  0  0  0  0  0  0  0  0  0  0
   -0.4847    3.5636    2.0000 H   0  0  0  0  0  0  0  0  0  0  0  0
  1  2  1  0  0  0  0
  2  3  1  0  0  0  0
  2  4  1  0  0  0  0
  2  5  1  0  0  0  0
  5  6  2  0  0  0  0
  5  7  1  0  0  0  0
  7  8  1  0  0  0  0
  7  9  1  0  0  0  0
  9 10  1  0  0  0  0
  9 11  1  0  0  0  0
  9 27  1  0  0  0  0
 11 12  1  0  0  0  0
 11 13  1  0  0  0  0
 11 14  1  0  0  0  0
 14 15  1  0  0  0  0
 14 16  1  0  0  0  0
 14 17  1  0  0  0  0
 17 18  1  0  0  0  0
 17 19  1  0  0  0  0
 17 20  1  0  0  0  0
 20 21  1  0  0  0  0
 20 22  1  0  0  0  0
 20 23  1  0  0  0  0
 23 24  1  0  0  0  0
 23 25  1  0  0  0  0
 23 26  1  0  0  0  0
 27 28  2  0  0  0  0
 27 29  1  0  0  0  0
 29 30  1  0  0  0  0
 29 31  1  0  0  0  0
 31 32  1  0  0  0  0
 31 33  1  0  0  0  0
 31 34  1  0  0  0  0
M  CHG  1  23   1
M  END
$$$$

  -OEChem-02102214153D

 34 33  0     1  0  0  0  0  0999 V2000
   -3.2078   -4.0984    3.1121 H   0  0  0  0  0  0  0  0  0  0  0  0
   -3.4178   -3.1052    2.7040 C   0  0  0  0  0  0  0  0  0  0  0  0
   -3.6360   -2.4272    3.5330 H   0  0  0  0  0  0  0  0  0  0  0  0
   -4.2925   -3.1690    2.0536 H   0  0  0  0  0  0  0  0  0  0  0  0
   -2.2195   -2.6007    1.9229 C   0  0  0  0  0  0  0  0  0  0  0  0
   -1.2566   -3.3249    1.7408 O   0  0  0  0  0  0  0  0  0  0  0  0
   -2.2319   -1.3379    1.3667 N   0  0  0  0  0  0  0  0  0  0  0  0
   -3.0075   -0.7375    1.6490 H   0  0  0  0  0  0  0  0  0  0  0  0
   -0.9920   -0.6212    1.0248 C   0  0  1  0  0  0  0  0  0  0  0  0
   -0.1651   -1.0527    1.6009 H   0  0  0  0  0  0  0  0  0  0  0  0
   -0.5415   -0.5827   -0.4687 C   0  0  0  0  0  0  0  0  0  0  0  0
   -0.1147    0.4062   -0.6723 H   0  0  0  0  0  0  0  0  0  0  0  0
    0.2996   -1.2827   -0.5262 H   0  0  0  0  0  0  0  0  0  0  0  0
   -1.4540   -0.9441   -1.6751 C   0  0  0  0  0  0  0  0  0  0  0  0
   -1.4730   -0.0640   -2.3277 H   0  0  0  0  0  0  0  0  0  0  0  0
   -0.9565   -1.7435   -2.2360 H   0  0  0  0  0  0  0  0  0  0  0  0
   -2.9054   -1.3728   -1.4353 C   0  0  0  0  0  0  0  0  0  0  0  0
   -2.9228   -2.3252   -0.8963 H   0  0  0  0  0  0  0  0  0  0  0  0
   -3.4160   -0.6099   -0.8377 H   0  0  0  0  0  0  0  0  0  0  0  0
   -3.6209   -1.5350   -2.7736 C   0  0  0  0  0  0  0  0  0  0  0  0
   -3.5559   -0.5913   -3.3352 H   0  0  0  0  0  0  0  0  0  0  0  0
   -3.1049   -2.3030   -3.3683 H   0  0  0  0  0  0  0  0  0  0  0  0
   -5.0291   -1.9083   -2.5241 N   0  3  0  0  0  0  0  0  0  0  0  0
   -5.4858   -1.1845   -1.9654 H   0  0  0  0  0  0  0  0  0  0  0  0
   -5.5285   -2.0091   -3.4104 H   0  0  0  0  0  0  0  0  0  0  0  0
   -5.0685   -2.7945   -2.0173 H   0  0  0  0  0  0  0  0  0  0  0  0
   -1.1608    0.8276    1.5309 C   0  0  0  0  0  0  0  0  0  0  0  0
   -2.2457    1.3808    1.3794 O   0  0  0  0  0  0  0  0  0  0  0  0
   -0.1487    1.4729    2.2157 N   0  0  0  0  0  0  0  0  0  0  0  0
    0.7198    0.9674    2.3720 H   0  0  0  0  0  0  0  0  0  0  0  0
   -0.2910    2.8117    2.7790 C   0  0  0  0  0  0  0  0  0  0  0  0
   -1.0666    2.8222    3.5521 H   0  0  0  0  0  0  0  0  0  0  0  0
    0.6517    3.1347    3.2316 H   0  0  0  0  0  0  0  0  0  0  0  0
   -0.5618    3.5320    1.9995 H   0  0  0  0  0  0  0  0  0  0  0  0
  1  2  1  0  0  0  0
  2  3  1  0  0  0  0
  2  4  1  0  0  0  0
  2  5  1  0  0  0  0
  5  6  2  0  0  0  0
  5  7  1  0  0  0  0
  7  8  1  0  0  0  0
  7  9  1  0  0  0  0
  9 10  1  0  0  0  0
  9 11  1  0  0  0  0
  9 27  1  0  0  0  0
 11 12  1  0  0  0  0
 11 13  1  0  0  0  0
 11 14  1  0  0  0  0
 14 15  1  0  0  0  0
 14 16  1  0  0  0  0
 14 17  1  0  0  0  0
 17 18  1  0  0  0  0
 17 19  1  0  0  0  0
 17 20  1  0  0  0  0
 20 21  1  0  0  0  0
 20 22  1  0  0  0  0
 20 23  1  0  0  0  0
 23 24  1  0  0  0  0
 23 25  1  0  0  0  0
 23 26  1  0  0  0  0
 27 28  2  0  0  0  0
 27 29  1  0  0  0  0
 29 30  1  0  0  0  0
 29 31  1  0  0  0  0
 31 32  1  0  0  0  0
 31 33  1  0  0  0  0
 31 34  1  0  0  0  0
M  CHG  1  23   1
M  END
$$$$

  -OEChem-02102214153D

 34 33  0     1  0  0  0  0  0999 V2000
   -3.1735   -4.1821    3.0011 H   0  0  0  0  0  0  0  0  0  0  0  0
   -3.3942   -3.1978    2.5778 C   0  0  0  0  0  0  0  0  0  0  0  0
   -3.6844   -2.5265    3.3897 H   0  0  0  0  0  0  0  0  0  0  0  0
   -4.2262   -3.2947    1.8771 H   0  0  0  0  0  0  0  0  0  0  0  0
   -2.1714   -2.6518    1.8657 C   0  0  0  0  0  0  0  0  0  0  0  0
   -1.1709   -3.3376    1.7502 O   0  0  0  0  0  0  0  0  0  0  0  0
   -2.1976   -1.3877    1.3123 N   0  0  0  0  0  0  0  0  0  0  0  0
   -2.9962   -0.8084    1.5705 H   0  0  0  0  0  0  0  0  0  0  0  0
   -0.9672   -0.6459    0.9919 C   0  0  1  0  0  0  0  0  0  0  0  0
   -0.1346   -1.0616    1.5710 H   0  0  0  0  0  0  0  0  0  0  0  0
   -0.5196   -0.5992   -0.5016 C   0  0  0  0  0  0  0  0  0  0  0  0
   -0.1393    0.4088   -0.7035 H   0  0  0  0  0  0  0  0  0  0  0  0
    0.3487   -1.2633   -0.5755 H   0  0  0  0  0  0  0  0  0  0  0  0
   -1.4439   -0.9763   -1.6929 C   0  0  0  0  0  0  0  0  0  0  0  0
   -1.2604   -0.2390   -2.4827 H   0  0  0  0  0  0  0  0  0  0  0  0
   -1.1091   -1.9453   -2.0802 H   0  0  0  0  0  0  0  0  0  0  0  0
   -2.9567   -1.0766   -1.4545 C   0  0  0  0  0  0  0  0  0  0  0  0
   -3.1909   -2.0019   -0.9194 H   0  0  0  0  0  0  0  0  0  0  0  0
   -3.2807   -0.2216   -0.8509 H   0  0  0  0  0  0  0  0  0  0  0  0
   -3.6974   -1.0654   -2.7889 C   0  0  0  0  0  0  0  0  0  0  0  0
   -3.3761   -0.1899   -3.3718 H   0  0  0  0  0  0  0  0  0  0  0  0
   -3.4214   -1.9596   -3.3669 H   0  0  0  0  0  0  0  0  0  0  0  0
   -5.1516   -1.0182   -2.5269 N   0  3  0  0  0  0  0  0  0  0  0  0
   -5.3760   -0.1877   -1.9743 H   0  0  0  0  0  0  0  0  0  0  0  0
   -5.6675   -0.9797   -3.4085 H   0  0  0  0  0  0  0  0  0  0  0  0
   -5.4397   -1.8497   -2.0086 H   0  0  0  0  0  0  0  0  0  0  0  0
   -1.1750    0.7973    1.4995 C   0  0  0  0  0  0  0  0  0  0  0  0
   -2.2622    1.3365    1.3096 O   0  0  0  0  0  0  0  0  0  0  0  0
   -0.1896    1.4630    2.2029 N   0  0  0  0  0  0  0  0  0  0  0  0
    0.6805    0.9698    2.3890 H   0  0  0  0  0  0  0  0  0  0  0  0
   -0.3678    2.8016    2.7564 C   0  0  0  0  0  0  0  0  0  0  0  0
   -1.1653    2.8045    3.5071 H   0  0  0  0  0  0  0  0  0  0  0  0
    0.5570    3.1405    3.2339 H   0  0  0  0  0  0  0  0  0  0  0  0
   -0.6268    3.5142    1.9658 H   0  0  0  0  0  0  0  0  0  0  0  0
  1  2  1  0  0  0  0
  2  3  1  0  0  0  0
  2  4  1  0  0  0  0
  2  5  1  0  0  0  0
  5  6  2  0  0  0  0
  5  7  1  0  0  0  0
  7  8  1  0  0  0  0
  7  9  1  0  0  0  0
  9 10  1  0  0  0  0
  9 11  1  0  0  0  0
  9 27  1  0  0  0  0
 11 12  1  0  0  0  0
 11 13  1  0  0  0  0
 11 14  1  0  0  0  0
 14 15  1  0  0  0  0
 14 16  1  0  0  0  0
 14 17  1  0  0  0  0
 17 18  1  0  0  0  0
 17 19  1  0  0  0  0
 17 20  1  0  0  0  0
 20 21  1  0  0  0  0
 20 22  1  0  0  0  0
 20 23  1  0  0  0  0
 23 24  1  0  0  0  0
 23 25  1  0  0  0  0
 23 26  1  0  0  0  0
 27 28  2  0  0  0  0
 27 29  1  0  0  0  0
 29 30  1  0  0  0  0
 29 31  1  0  0  0  0
 31 32  1  0  0  0  0
 31 33  1  0  0  0  0
 31 34  1  0  0  0  0
M  CHG  1  23   1
M  END
$$$$

  -OEChem-02102214153D

 34 33  0     1  0  0  0  0  0999 V2000
   -3.2050   -4.2098    2.8748 H   0  0  0  0  0  0  0  0  0  0  0  0
   -3.4280   -3.2326    2.4363 C   0  0  0  0  0  0  0  0  0  0  0  0
   -3.7818   -2.5675    3.2280 H   0  0  0  0  0  0  0  0  0  0  0  0
   -4.2161   -3.3540    1.6901 H   0  0  0  0  0  0  0  0  0  0  0  0
   -2.1826   -2.6562    1.7903 C   0  0  0  0  0  0  0  0  0  0  0  0
   -1.1622   -3.3191    1.7266 O   0  0  0  0  0  0  0  0  0  0  0  0
   -2.2072   -1.3890    1.2429 N   0  0  0  0  0  0  0  0  0  0  0  0
   -3.0263   -0.8257    1.4673 H   0  0  0  0  0  0  0  0  0  0  0  0
   -0.9779   -0.6313    0.9576 C   0  0  1  0  0  0  0  0  0  0  0  0
   -0.1541   -1.0430    1.5521 H   0  0  0  0  0  0  0  0  0  0  0  0
   -0.5145   -0.6105   -0.5291 C   0  0  0  0  0  0  0  0  0  0  0  0
   -0.1603    0.4023   -0.7527 H   0  0  0  0  0  0  0  0  0  0  0  0
    0.3659   -1.2591   -0.5929 H   0  0  0  0  0  0  0  0  0  0  0  0
   -1.4481   -1.0288   -1.6949 C   0  0  0  0  0  0  0  0  0  0  0  0
   -1.0974   -0.5064   -2.5917 H   0  0  0  0  0  0  0  0  0  0  0  0
   -1.3065   -2.1009   -1.8732 H   0  0  0  0  0  0  0  0  0  0  0  0
   -2.9559   -0.7861   -1.5134 C   0  0  0  0  0  0  0  0  0  0  0  0
   -3.4067   -1.6085   -0.9502 H   0  0  0  0  0  0  0  0  0  0  0  0
   -3.1040    0.1454   -0.9577 H   0  0  0  0  0  0  0  0  0  0  0  0
   -3.6411   -0.6726   -2.8719 C   0  0  0  0  0  0  0  0  0  0  0  0
   -3.1094    0.0726   -3.4818 H   0  0  0  0  0  0  0  0  0  0  0  0
   -3.5705   -1.6353   -3.3993 H   0  0  0  0  0  0  0  0  0  0  0  0
   -5.0480   -0.2702   -2.6601 N   0  3  0  0  0  0  0  0  0  0  0  0
   -5.0806    0.6033   -2.1290 H   0  0  0  0  0  0  0  0  0  0  0  0
   -5.5143   -0.1301   -3.5588 H   0  0  0  0  0  0  0  0  0  0  0  0
   -5.5433   -0.9937   -2.1367 H   0  0  0  0  0  0  0  0  0  0  0  0
   -1.1928    0.8130    1.4597 C   0  0  0  0  0  0  0  0  0  0  0  0
   -2.2709    1.3600    1.2420 O   0  0  0  0  0  0  0  0  0  0  0  0
   -0.2189    1.4741    2.1834 N   0  0  0  0  0  0  0  0  0  0  0  0
    0.6378    0.9695    2.3991 H   0  0  0  0  0  0  0  0  0  0  0  0
   -0.4028    2.8099    2.7417 C   0  0  0  0  0  0  0  0  0  0  0  0
   -1.2302    2.8160    3.4593 H   0  0  0  0  0  0  0  0  0  0  0  0
    0.5057    3.1318    3.2606 H   0  0  0  0  0  0  0  0  0  0  0  0
   -0.6194    3.5330    1.9481 H   0  0  0  0  0  0  0  0  0  0  0  0
  1  2  1  0  0  0  0
  2  3  1  0  0  0  0
  2  4  1  0  0  0  0
  2  5  1  0  0  0  0
  5  6  2  0  0  0  0
  5  7  1  0  0  0  0
  7  8  1  0  0  0  0
  7  9  1  0  0  0  0
  9 10  1  0  0  0  0
  9 11  1  0  0  0  0
  9 27  1  0  0  0  0
 11 12  1  0  0  0  0
 11 13  1  0  0  0  0
 11 14  1  0  0  0  0
 14 15  1  0  0  0  0
 14 16  1  0  0  0  0
 14 17  1  0  0  0  0
 17 18  1  0  0  0  0
 17 19  1  0  0  0  0
 17 20  1  0  0  0  0
 20 21  1  0  0  0  0
 20 22  1  0  0  0  0
 20 23  1  0  0  0  0
 23 24  1  0  0  0  0
 23 25  1  0  0  0  0
 23 26  1  0  0  0  0
 27 28  2  0  0  0  0
 27 29  1  0  0  0  0
 29 30  1  0  0  0  0
 29 31  1  0  0  0  0
 31 32  1  0  0  0  0
 31 33  1  0  0  0  0
 31 34  1  0  0  0  0
M  CHG  1  23   1
M  END
$$$$

  -OEChem-02102214153D

 34 33  0     1  0  0  0  0  0999 V2000
   -3.3192   -4.2289    2.6607 H   0  0  0  0  0  0  0  0  0  0  0  0
   -3.5019   -3.2160    2.2899 C   0  0  0  0  0  0  0  0  0  0  0  0
   -3.8346   -2.5935    3.1241 H   0  0  0  0  0  0  0  0  0  0  0  0
   -4.2897   -3.2558    1.5347 H   0  0  0  0  0  0  0  0  0  0  0  0
   -2.2314   -2.6447    1.6901 C   0  0  0  0  0  0  0  0  0  0  0  0
   -1.2135   -3.3140    1.6573 O   0  0  0  0  0  0  0  0  0  0  0  0
   -2.2265   -1.3712    1.1569 N   0  0  0  0  0  0  0  0  0  0  0  0
   -3.0489   -0.8043    1.3580 H   0  0  0  0  0  0  0  0  0  0  0  0
   -0.9813   -0.6228    0.9176 C   0  0  1  0  0  0  0  0  0  0  0  0
   -0.1756   -1.0501    1.5258 H   0  0  0  0  0  0  0  0  0  0  0  0
   -0.4966   -0.6088   -0.5596 C   0  0  0  0  0  0  0  0  0  0  0  0
   -0.1228    0.3951   -0.7898 H   0  0  0  0  0  0  0  0  0  0  0  0
    0.3679   -1.2795   -0.6174 H   0  0  0  0  0  0  0  0  0  0  0  0
   -1.4525   -1.0232   -1.7030 C   0  0  0  0  0  0  0  0  0  0  0  0
   -0.9793   -0.7353   -2.6480 H   0  0  0  0  0  0  0  0  0  0  0  0
   -1.5413   -2.1155   -1.7031 H   0  0  0  0  0  0  0  0  0  0  0  0
   -2.8680   -0.4222   -1.6248 C   0  0  0  0  0  0  0  0  0  0  0  0
   -3.4948   -0.9913   -0.9342 H   0  0  0  0  0  0  0  0  0  0  0  0
   -2.7949    0.6075   -1.2597 H   0  0  0  0  0  0  0  0  0  0  0  0
   -3.5232   -0.4176   -3.0017 C   0  0  0  0  0  0  0  0  0  0  0  0
   -2.8478    0.0690   -3.7204 H   0  0  0  0  0  0  0  0  0  0  0  0
   -3.6700   -1.4534   -3.3414 H   0  0  0  0  0  0  0  0  0  0  0  0
   -4.8064    0.3113   -2.9058 N   0  3  0  0  0  0  0  0  0  0  0  0
   -4.6430    1.2510   -2.5368 H   0  0  0  0  0  0  0  0  0  0  0  0
   -5.2402    0.3867   -3.8279 H   0  0  0  0  0  0  0  0  0  0  0  0
   -5.4424   -0.1820   -2.2773 H   0  0  0  0  0  0  0  0  0  0  0  0
   -1.1870    0.8203    1.4264 C   0  0  0  0  0  0  0  0  0  0  0  0
   -2.2475    1.3898    1.1808 O   0  0  0  0  0  0  0  0  0  0  0  0
   -0.2237    1.4590    2.1832 N   0  0  0  0  0  0  0  0  0  0  0  0
    0.6150    0.9359    2.4240 H   0  0  0  0  0  0  0  0  0  0  0  0
   -0.4050    2.7898    2.7542 C   0  0  0  0  0  0  0  0  0  0  0  0
   -1.2379    2.7928    3.4654 H   0  0  0  0  0  0  0  0  0  0  0  0
    0.5009    3.1021    3.2833 H   0  0  0  0  0  0  0  0  0  0  0  0
   -0.6116    3.5222    1.9667 H   0  0  0  0  0  0  0  0  0  0  0  0
  1  2  1  0  0  0  0
  2  3  1  0  0  0  0
  2  4  1  0  0  0  0
  2  5  1  0  0  0  0
  5  6  2  0  0  0  0
  5  7  1  0  0  0  0
  7  8  1  0  0  0  0
  7  9  1  0  0  0  0
  9 10  1  0  0  0  0
  9 11  1  0  0  0  0
  9 27  1  0  0  0  0
 11 12  1  0  0  0  0
 11 13  1  0  0  0  0
 11 14  1  0  0  0  0
 14 15  1  0  0  0  0
 14 16  1  0  0  0  0
 14 17  1  0  0  0  0
 17 18  1  0  0  0  0
 17 19  1  0  0  0  0
 17 20  1  0  0  0  0
 20 21  1  0  0  0  0
 20 22  1  0  0  0  0
 20 23  1  0  0  0  0
 23 24  1  0  0  0  0
 23 25  1  0  0  0  0
 23 26  1  0  0  0  0
 27 28  2  0  0  0  0
 27 29  1  0  0  0  0
 29 30  1  0  0  0  0
 29 31  1  0  0  0  0
 31 32  1  0  0  0  0
 31 33  1  0  0  0  0
 31 34  1  0  0  0  0
M  CHG  1  23   1
M  END
$$$$

  -OEChem-02102214153D

 34 33  0     1  0  0  0  0  0999 V2000
   -3.4452   -4.2069    2.4408 H   0  0  0  0  0  0  0  0  0  0  0  0
   -3.5968   -3.1949    2.0538 C   0  0  0  0  0  0  0  0  0  0  0  0
   -3.9866   -2.5678    2.8594 H   0  0  0  0  0  0  0  0  0  0  0  0
   -4.3281   -3.2347    1.2435 H   0  0  0  0  0  0  0  0  0  0  0  0
   -2.2841   -2.6306    1.5451 C   0  0  0  0  0  0  0  0  0  0  0  0
   -1.2725   -3.3096    1.5725 O   0  0  0  0  0  0  0  0  0  0  0  0
   -2.2319   -1.3508    1.0301 N   0  0  0  0  0  0  0  0  0  0  0  0
   -3.0597   -0.7782    1.1864 H   0  0  0  0  0  0  0  0  0  0  0  0
   -0.9642   -0.6142    0.8757 C   0  0  1  0  0  0  0  0  0  0  0  0
   -0.1934   -1.0618    1.5138 H   0  0  0  0  0  0  0  0  0  0  0  0
   -0.4230   -0.5798   -0.5793 C   0  0  0  0  0  0  0  0  0  0  0  0
   -0.0065    0.4118   -0.7887 H   0  0  0  0  0  0  0  0  0  0  0  0
    0.4149   -1.2842   -0.6233 H   0  0  0  0  0  0  0  0  0  0  0  0
   -1.3828   -0.9639   -1.7242 C   0  0  0  0  0  0  0  0  0  0  0  0
   -0.8277   -0.9075   -2.6668 H   0  0  0  0  0  0  0  0  0  0  0  0
   -1.7043   -2.0035   -1.5943 H   0  0  0  0  0  0  0  0  0  0  0  0
   -2.6150   -0.0447   -1.7978 C   0  0  0  0  0  0  0  0  0  0  0  0
   -3.2723   -0.2022   -0.9402 H   0  0  0  0  0  0  0  0  0  0  0  0
   -2.2763    0.9970   -1.7716 H   0  0  0  0  0  0  0  0  0  0  0  0
   -3.3990   -0.2946   -3.0801 C   0  0  0  0  0  0  0  0  0  0  0  0
   -2.7234   -0.2041   -3.9433 H   0  0  0  0  0  0  0  0  0  0  0  0
   -3.7866   -1.3238   -3.0762 H   0  0  0  0  0  0  0  0  0  0  0  0
   -4.4933    0.6977   -3.1520 N   0  3  0  0  0  0  0  0  0  0  0  0
   -4.1036    1.6427   -3.1580 H   0  0  0  0  0  0  0  0  0  0  0  0
   -5.0431    0.5583   -4.0019 H   0  0  0  0  0  0  0  0  0  0  0  0
   -5.1042    0.6016   -2.3387 H   0  0  0  0  0  0  0  0  0  0  0  0
   -1.1810    0.8250    1.3899 C   0  0  0  0  0  0  0  0  0  0  0  0
   -2.2096    1.4178    1.0727 O   0  0  0  0  0  0  0  0  0  0  0  0
   -0.2572    1.4422    2.2113 N   0  0  0  0  0  0  0  0  0  0  0  0
    0.5539    0.9024    2.5047 H   0  0  0  0  0  0  0  0  0  0  0  0
   -0.4495    2.7752    2.7732 C   0  0  0  0  0  0  0  0  0  0  0  0
   -1.3348    2.7968    3.4179 H   0  0  0  0  0  0  0  0  0  0  0  0
    0.4200    3.0638    3.3724 H   0  0  0  0  0  0  0  0  0  0  0  0
   -0.5765    3.5139    1.9747 H   0  0  0  0  0  0  0  0  0  0  0  0
  1  2  1  0  0  0  0
  2  3  1  0  0  0  0
  2  4  1  0  0  0  0
  2  5  1  0  0  0  0
  5  6  2  0  0  0  0
  5  7  1  0  0  0  0
  7  8  1  0  0  0  0
  7  9  1  0  0  0  0
  9 10  1  0  0  0  0
  9 11  1  0  0  0  0
  9 27  1  0  0  0  0
 11 12  1  0  0  0  0
 11 13  1  0  0  0  0
 11 14  1  0  0  0  0
 14 15  1  0  0  0  0
 14 16  1  0  0  0  0
 14 17  1  0  0  0  0
 17 18  1  0  0  0  0
 17 19  1  0  0  0  0
 17 20  1  0  0  0  0
 20 21  1  0  0  0  0
 20 22  1  0  0  0  0
 20 23  1  0  0  0  0
 23 24  1  0  0  0  0
 23 25  1  0  0  0  0
 23 26  1  0  0  0  0
 27 28  2  0  0  0  0
 27 29  1  0  0  0  0
 29 30  1  0  0  0  0
 29 31  1  0  0  0  0
 31 32  1  0  0  0  0
 31 33  1  0  0  0  0
 31 34  1  0  0  0  0
M  CHG  1  23   1
M  END
$$$$

  -OEChem-02102214153D

 34 33  0     1  0  0  0  0  0999 V2000
   -3.5401   -4.1647    2.3198 H   0  0  0  0  0  0  0  0  0  0  0  0
   -3.6745   -3.1633    1.9001 C   0  0  0  0  0  0  0  0  0  0  0  0
   -4.1237   -2.5222    2.6626 H   0  0  0  0  0  0  0  0  0  0  0  0
   -4.3483   -3.2292    1.0429 H   0  0  0  0  0  0  0  0  0  0  0  0
   -2.3357   -2.5970    1.4682 C   0  0  0  0  0  0  0  0  0  0  0  0
   -1.3278   -3.2776    1.5476 O   0  0  0  0  0  0  0  0  0  0  0  0
   -2.2536   -1.3159    0.9597 N   0  0  0  0  0  0  0  0  0  0  0  0
   -3.0882   -0.7413    1.0642 H   0  0  0  0  0  0  0  0  0  0  0  0
   -0.9761   -0.5871    0.8518 C   0  0  1  0  0  0  0  0  0  0  0  0
   -0.2341   -1.0444    1.5163 H   0  0  0  0  0  0  0  0  0  0  0  0
   -0.3842   -0.5708   -0.5827 C   0  0  0  0  0  0  0  0  0  0  0  0
    0.0625    0.4067   -0.7958 H   0  0  0  0  0  0  0  0  0  0  0  0
    0.4368   -1.2961   -0.5888 H   0  0  0  0  0  0  0  0  0  0  0  0
   -1.3317   -0.9698   -1.7314 C   0  0  0  0  0  0  0  0  0  0  0  0
   -0.7240   -1.1583   -2.6235 H   0  0  0  0  0  0  0  0  0  0  0  0
   -1.8549   -1.9037   -1.4987 H   0  0  0  0  0  0  0  0  0  0  0  0
   -2.3270    0.1580   -2.0368 C   0  0  0  0  0  0  0  0  0  0  0  0
   -2.9760    0.3177   -1.1710 H   0  0  0  0  0  0  0  0  0  0  0  0
   -1.7757    1.0867   -2.2210 H   0  0  0  0  0  0  0  0  0  0  0  0
   -3.1830   -0.1844   -3.2495 C   0  0  0  0  0  0  0  0  0  0  0  0
   -2.5328   -0.3694   -4.1170 H   0  0  0  0  0  0  0  0  0  0  0  0
   -3.7368   -1.1140   -3.0529 H   0  0  0  0  0  0  0  0  0  0  0  0
   -4.1009    0.9485   -3.4958 N   0  3  0  0  0  0  0  0  0  0  0  0
   -3.5632    1.7903   -3.7119 H   0  0  0  0  0  0  0  0  0  0  0  0
   -4.7215    0.7387   -4.2801 H   0  0  0  0  0  0  0  0  0  0  0  0
   -4.6642    1.1258   -2.6615 H   0  0  0  0  0  0  0  0  0  0  0  0
   -1.1794    0.8565    1.3586 C   0  0  0  0  0  0  0  0  0  0  0  0
   -2.1811    1.4756    1.0098 O   0  0  0  0  0  0  0  0  0  0  0  0
   -0.2663    1.4517    2.2077 N   0  0  0  0  0  0  0  0  0  0  0  0
    0.5167    0.8884    2.5319 H   0  0  0  0  0  0  0  0  0  0  0  0
   -0.4473    2.7858    2.7709 C   0  0  0  0  0  0  0  0  0  0  0  0
   -1.3586    2.8273    3.3770 H   0  0  0  0  0  0  0  0  0  0  0  0
    0.4030    3.0461    3.4090 H   0  0  0  0  0  0  0  0  0  0  0  0
   -0.5205    3.5335    1.9742 H   0  0  0  0  0  0  0  0  0  0  0  0
  1  2  1  0  0  0  0
  2  3  1  0  0  0  0
  2  4  1  0  0  0  0
  2  5  1  0  0  0  0
  5  6  2  0  0  0  0
  5  7  1  0  0  0  0
  7  8  1  0  0  0  0
  7  9  1  0  0  0  0
  9 10  1  0  0  0  0
  9 11  1  0  0  0  0
  9 27  1  0  0  0  0
 11 12  1  0  0  0  0
 11 13  1  0  0  0  0
 11 14  1  0  0  0  0
 14 15  1  0  0  0  0
 14 16  1  0  0  0  0
 14 17  1  0  0  0  0
 17 18  1  0  0  0  0
 17 19  1  0  0  0  0
 17 20  1  0  0  0  0
 20 21  1  0  0  0  0
 20 22  1  0  0  0  0
 20 23  1  0  0  0  0
 23 24  1  0  0  0  0
 23 25  1  0  0  0  0
 23 26  1  0  0  0  0
 27 28  2  0  0  0  0
 27 29  1  0  0  0  0
 29 30  1  0  0  0  0
 29 31  1  0  0  0  0
 31 32  1  0  0  0  0
 31 33  1  0  0  0  0
 31 34  1  0  0  0  0
M  CHG  1  23   1
M  END
$$$$

  -OEChem-02102214153D

 34 33  0     1  0  0  0  0  0999 V2000
   -3.6018   -4.1447    2.2912 H   0  0  0  0  0  0  0  0  0  0  0  0
   -3.7153   -3.1414    1.8701 C   0  0  0  0  0  0  0  0  0  0  0  0
   -4.1700   -2.4949    2.6248 H   0  0  0  0  0  0  0  0  0  0  0  0
   -4.3747   -3.1979    1.0011 H   0  0  0  0  0  0  0  0  0  0  0  0
   -2.3616   -2.5919    1.4627 C   0  0  0  0  0  0  0  0  0  0  0  0
   -1.3600   -3.2763    1.5812 O   0  0  0  0  0  0  0  0  0  0  0  0
   -2.2575   -1.3189    0.9384 N   0  0  0  0  0  0  0  0  0  0  0  0
   -3.0930   -0.7389    0.9997 H   0  0  0  0  0  0  0  0  0  0  0  0
   -0.9740   -0.6008    0.8389 C   0  0  1  0  0  0  0  0  0  0  0  0
   -0.2430   -1.0539    1.5182 H   0  0  0  0  0  0  0  0  0  0  0  0
   -0.3607   -0.5883   -0.5874 C   0  0  0  0  0  0  0  0  0  0  0  0
    0.1163    0.3771   -0.7904 H   0  0  0  0  0  0  0  0  0  0  0  0
    0.4449   -1.3306   -0.5740 H   0  0  0  0  0  0  0  0  0  0  0  0
   -1.2906   -0.9815   -1.7559 C   0  0  0  0  0  0  0  0  0  0  0  0
   -0.6711   -1.4075   -2.5528 H   0  0  0  0  0  0  0  0  0  0  0  0
   -2.0054   -1.7586   -1.4701 H   0  0  0  0  0  0  0  0  0  0  0  0
   -2.0027    0.2591   -2.3092 C   0  0  0  0  0  0  0  0  0  0  0  0
   -2.5942    0.7173   -1.5104 H   0  0  0  0  0  0  0  0  0  0  0  0
   -1.2590    0.9916   -2.6422 H   0  0  0  0  0  0  0  0  0  0  0  0
   -2.9211   -0.1128   -3.4673 C   0  0  0  0  0  0  0  0  0  0  0  0
   -2.3255   -0.5508   -4.2816 H   0  0  0  0  0  0  0  0  0  0  0  0
   -3.6322   -0.8822   -3.1330 H   0  0  0  0  0  0  0  0  0  0  0  0
   -3.6253    1.1103   -3.9088 N   0  3  0  0  0  0  0  0  0  0  0  0
   -2.9494    1.7994   -4.2438 H   0  0  0  0  0  0  0  0  0  0  0  0
   -4.2790    0.8904   -4.6629 H   0  0  0  0  0  0  0  0  0  0  0  0
   -4.1435    1.5131   -3.1247 H   0  0  0  0  0  0  0  0  0  0  0  0
   -1.1835    0.8487    1.3242 C   0  0  0  0  0  0  0  0  0  0  0  0
   -2.1716    1.4685    0.9401 O   0  0  0  0  0  0  0  0  0  0  0  0
   -0.2838    1.4538    2.1807 N   0  0  0  0  0  0  0  0  0  0  0  0
    0.4844    0.8893    2.5363 H   0  0  0  0  0  0  0  0  0  0  0  0
   -0.4805    2.7909    2.7310 C   0  0  0  0  0  0  0  0  0  0  0  0
   -1.4001    2.8302    3.3248 H   0  0  0  0  0  0  0  0  0  0  0  0
    0.3598    3.0619    3.3781 H   0  0  0  0  0  0  0  0  0  0  0  0
   -0.5488    3.5320    1.9276 H   0  0  0  0  0  0  0  0  0  0  0  0
  1  2  1  0  0  0  0
  2  3  1  0  0  0  0
  2  4  1  0  0  0  0
  2  5  1  0  0  0  0
  5  6  2  0  0  0  0
  5  7  1  0  0  0  0
  7  8  1  0  0  0  0
  7  9  1  0  0  0  0
  9 10  1  0  0  0  0
  9 11  1  0  0  0  0
  9 27  1  0  0  0  0
 11 12  1  0  0  0  0
 11 13  1  0  0  0  0
 11 14  1  0  0  0  0
 14 15  1  0  0  0  0
 14 16  1  0  0  0  0
 14 17  1  0  0  0  0
 17 18  1  0  0  0  0
 17 19  1  0  0  0  0
 17 20  1  0  0  0  0
 20 21  1  0  0  0  0
 20 22  1  0  0  0  0
 20 23  1  0  0  0  0
 23 24  1  0  0  0  0
 23 25  1  0  0  0  0
 23 26  1  0  0  0  0
 27 28  2  0  0  0  0
 27 29  1  0  0  0  0
 29 30  1  0  0  0  0
 29 31  1  0  0  0  0
 31 32  1  0  0  0  0
 31 33  1  0  0  0  0
 31 34  1  0  0  0  0
M  CHG  1  23   1
M  END
$$$$

  -OEChem-02102214153D

 34 33  0     1  0  0  0  0  0999 V2000
   -3.6381   -4.1277    2.3549 H   0  0  0  0  0  0  0  0  0  0  0  0
   -3.7412   -3.1570    1.8610 C   0  0  0  0  0  0  0  0  0  0  0  0
   -4.2512   -2.4713    2.5420 H   0  0  0  0  0  0  0  0  0  0  0  0
   -4.3455   -3.2836    0.9597 H   0  0  0  0  0  0  0  0  0  0  0  0
   -2.3738   -2.6096    1.4980 C   0  0  0  0  0  0  0  0  0  0  0  0
   -1.3746   -3.2841    1.6787 O   0  0  0  0  0  0  0  0  0  0  0  0
   -2.2541   -1.3521    0.9410 N   0  0  0  0  0  0  0  0  0  0  0  0
   -3.0940   -0.7749    0.9430 H   0  0  0  0  0  0  0  0  0  0  0  0
   -0.9685   -0.6388    0.8386 C   0  0  1  0  0  0  0  0  0  0  0  0
   -0.2401   -1.0746    1.5319 H   0  0  0  0  0  0  0  0  0  0  0  0
   -0.3452   -0.6275   -0.5843 C   0  0  0  0  0  0  0  0  0  0  0  0
    0.1470    0.3325   -0.7771 H   0  0  0  0  0  0  0  0  0  0  0  0
    0.4549   -1.3756   -0.5619 H   0  0  0  0  0  0  0  0  0  0  0  0
   -1.2604   -1.0167   -1.7694 C   0  0  0  0  0  0  0  0  0  0  0  0
   -0.6977   -1.6783   -2.4376 H   0  0  0  0  0  0  0  0  0  0  0  0
   -2.1464   -1.5744   -1.4573 H   0  0  0  0  0  0  0  0  0  0  0  0
   -1.6566    0.2428   -2.5496 C   0  0  0  0  0  0  0  0  0  0  0  0
   -2.1132    0.9587   -1.8568 H   0  0  0  0  0  0  0  0  0  0  0  0
   -0.7612    0.7080   -2.9765 H   0  0  0  0  0  0  0  0  0  0  0  0
   -2.6484   -0.0967   -3.6561 C   0  0  0  0  0  0  0  0  0  0  0  0
   -2.1713   -0.7711   -4.3822 H   0  0  0  0  0  0  0  0  0  0  0  0
   -3.5028   -0.6364   -3.2222 H   0  0  0  0  0  0  0  0  0  0  0  0
   -3.0847    1.1649   -4.2924 N   0  3  0  0  0  0  0  0  0  0  0  0
   -2.2860    1.6311   -4.7266 H   0  0  0  0  0  0  0  0  0  0  0  0
   -3.7896    0.9753   -5.0077 H   0  0  0  0  0  0  0  0  0  0  0  0
   -3.4855    1.7869   -3.5863 H   0  0  0  0  0  0  0  0  0  0  0  0
   -1.1968    0.8206    1.2827 C   0  0  0  0  0  0  0  0  0  0  0  0
   -2.1595    1.4342    0.8297 O   0  0  0  0  0  0  0  0  0  0  0  0
   -0.3165    1.4558    2.1376 N   0  0  0  0  0  0  0  0  0  0  0  0
    0.4357    0.9011    2.5398 H   0  0  0  0  0  0  0  0  0  0  0  0
   -0.5126    2.8193    2.6191 C   0  0  0  0  0  0  0  0  0  0  0  0
   -1.4519    2.8989    3.1769 H   0  0  0  0  0  0  0  0  0  0  0  0
    0.3080    3.1083    3.2834 H   0  0  0  0  0  0  0  0  0  0  0  0
   -0.5401    3.5241    1.7813 H   0  0  0  0  0  0  0  0  0  0  0  0
  1  2  1  0  0  0  0
  2  3  1  0  0  0  0
  2  4  1  0  0  0  0
  2  5  1  0  0  0  0
  5  6  2  0  0  0  0
  5  7  1  0  0  0  0
  7  8  1  0  0  0  0
  7  9  1  0  0  0  0
  9 10  1  0  0  0  0
  9 11  1  0  0  0  0
  9 27  1  0  0  0  0
 11 12  1  0  0  0  0
 11 13  1  0  0  0  0
 11 14  1  0  0  0  0
 14 15  1  0  0  0  0
 14 16  1  0  0  0  0
 14 17  1  0  0  0  0
 17 18  1  0  0  0  0
 17 19  1  0  0  0  0
 17 20  1  0  0  0  0
 20 21  1  0  0  0  0
 20 22  1  0  0  0  0
 20 23  1  0  0  0  0
 23 24  1  0  0  0  0
 23 25  1  0  0  0  0
 23 26  1  0  0  0  0
 27 28  2  0  0  0  0
 27 29  1  0  0  0  0
 29 30  1  0  0  0  0
 29 31  1  0  0  0  0
 31 32  1  0  0  0  0
 31 33  1  0  0  0  0
 31 34  1  0  0  0  0
M  CHG  1  23   1
M  END
$$$$

  -OEChem-02102214153D

 34 33  0     1  0  0  0  0  0999 V2000
   -3.6425   -4.1214    2.3893 H   0  0  0  0  0  0  0  0  0  0  0  0
   -3.7460   -3.1509    1.8952 C   0  0  0  0  0  0  0  0  0  0  0  0
   -4.2462   -2.4621    2.5805 H   0  0  0  0  0  0  0  0  0  0  0  0
   -4.3599   -3.2758    1.0001 H   0  0  0  0  0  0  0  0  0  0  0  0
   -2.3801   -2.6095    1.5182 C   0  0  0  0  0  0  0  0  0  0  0  0
   -1.3811   -3.2866    1.6926 O   0  0  0  0  0  0  0  0  0  0  0  0
   -2.2607   -1.3532    0.9590 N   0  0  0  0  0  0  0  0  0  0  0  0
   -3.1005   -0.7754    0.9572 H   0  0  0  0  0  0  0  0  0  0  0  0
   -0.9746   -0.6435    0.8420 C   0  0  1  0  0  0  0  0  0  0  0  0
   -0.2404   -1.0817    1.5276 H   0  0  0  0  0  0  0  0  0  0  0  0
   -0.3668   -0.6365   -0.5878 C   0  0  0  0  0  0  0  0  0  0  0  0
    0.1082    0.3325   -0.7797 H   0  0  0  0  0  0  0  0  0  0  0  0
    0.4462   -1.3706   -0.5792 H   0  0  0  0  0  0  0  0  0  0  0  0
   -1.2942   -1.0249   -1.7663 C   0  0  0  0  0  0  0  0  0  0  0  0
   -0.8775   -1.9045   -2.2694 H   0  0  0  0  0  0  0  0  0  0  0  0
   -2.3001   -1.2942   -1.4377 H   0  0  0  0  0  0  0  0  0  0  0  0
   -1.3941    0.1393   -2.7596 C   0  0  0  0  0  0  0  0  0  0  0  0
   -1.7508    1.0290   -2.2268 H   0  0  0  0  0  0  0  0  0  0  0  0
   -0.4012    0.3601   -3.1673 H   0  0  0  0  0  0  0  0  0  0  0  0
   -2.3594   -0.2034   -3.8898 C   0  0  0  0  0  0  0  0  0  0  0  0
   -1.9787   -1.0749   -4.4424 H   0  0  0  0  0  0  0  0  0  0  0  0
   -3.3314   -0.4886   -3.4610 H   0  0  0  0  0  0  0  0  0  0  0  0
   -2.4933    0.9778   -4.7693 N   0  3  0  0  0  0  0  0  0  0  0  0
   -1.5864    1.2152   -5.1757 H   0  0  0  0  0  0  0  0  0  0  0  0
   -3.1555    0.7835   -5.5232 H   0  0  0  0  0  0  0  0  0  0  0  0
   -2.8316    1.7761   -4.2274 H   0  0  0  0  0  0  0  0  0  0  0  0
   -1.1899    0.8177    1.2860 C   0  0  0  0  0  0  0  0  0  0  0  0
   -2.1433    1.4405    0.8279 O   0  0  0  0  0  0  0  0  0  0  0  0
   -0.2964    1.4495    2.1299 N   0  0  0  0  0  0  0  0  0  0  0  0
    0.4446    0.8860    2.5399 H   0  0  0  0  0  0  0  0  0  0  0  0
   -0.4794    2.8162    2.6079 C   0  0  0  0  0  0  0  0  0  0  0  0
   -1.4109    2.9024    3.1776 H   0  0  0  0  0  0  0  0  0  0  0  0
    0.3514    3.1041    3.2597 H   0  0  0  0  0  0  0  0  0  0  0  0
   -0.5149    3.5168    1.7669 H   0  0  0  0  0  0  0  0  0  0  0  0
  1  2  1  0  0  0  0
  2  3  1  0  0  0  0
  2  4  1  0  0  0  0
  2  5  1  0  0  0  0
  5  6  2  0  0  0  0
  5  7  1  0  0  0  0
  7  8  1  0  0  0  0
  7  9  1  0  0  0  0
  9 10  1  0  0  0  0
  9 11  1  0  0  0  0
  9 27  1  0  0  0  0
 11 12  1  0  0  0  0
 11 13  1  0  0  0  0
 11 14  1  0  0  0  0
 14 15  1  0  0  0  0
 14 16  1  0  0  0  0
 14 17  1  0  0  0  0
 17 18  1  0  0  0  0
 17 19  1  0  0  0  0
 17 20  1  0  0  0  0
 20 21  1  0  0  0  0
 20 22  1  0  0  0  0
 20 23  1  0  0  0  0
 23 24  1  0  0  0  0
 23 25  1  0  0  0  0
 23 26  1  0  0  0  0
 27 28  2  0  0  0  0
 27 29  1  0  0  0  0
 29 30  1  0  0  0  0
 29 31  1  0  0  0  0
 31 32  1  0  0  0  0
 31 33  1  0  0  0  0
 31 34  1  0  0  0  0
M  CHG  1  23   1
M  END
$$$$

  -OEChem-02102214153D

 34 33  0     1  0  0  0  0  0999 V2000
   -3.6710   -4.1047    2.3203 H   0  0  0  0  0  0  0  0  0  0  0  0
   -3.7629   -3.1205    1.8522 C   0  0  0  0  0  0  0  0  0  0  0  0
   -4.2568   -2.4437    2.5536 H   0  0  0  0  0  0  0  0  0  0  0  0
   -4.3758   -3.2144    0.9530 H   0  0  0  0  0  0  0  0  0  0  0  0
   -2.3906   -2.5851    1.4921 C   0  0  0  0  0  0  0  0  0  0  0  0
   -1.3980   -3.2732    1.6604 O   0  0  0  0  0  0  0  0  0  0  0  0
   -2.2592   -1.3234    0.9491 N   0  0  0  0  0  0  0  0  0  0  0  0
   -3.0942   -0.7382    0.9520 H   0  0  0  0  0  0  0  0  0  0  0  0
   -0.9678   -0.6215    0.8425 C   0  0  1  0  0  0  0  0  0  0  0  0
   -0.2399   -1.0738    1.5257 H   0  0  0  0  0  0  0  0  0  0  0  0
   -0.3629   -0.6287   -0.5879 C   0  0  0  0  0  0  0  0  0  0  0  0
    0.0820    0.3532   -0.7849 H   0  0  0  0  0  0  0  0  0  0  0  0
    0.4659   -1.3448   -0.5923 H   0  0  0  0  0  0  0  0  0  0  0  0
   -1.3110   -1.0190   -1.7475 C   0  0  0  0  0  0  0  0  0  0  0  0
   -1.1094   -2.0528   -2.0501 H   0  0  0  0  0  0  0  0  0  0  0  0
   -2.3587   -0.9631   -1.4403 H   0  0  0  0  0  0  0  0  0  0  0  0
   -1.1387   -0.0574   -2.9292 C   0  0  0  0  0  0  0  0  0  0  0  0
   -1.3426    0.9654   -2.5917 H   0  0  0  0  0  0  0  0  0  0  0  0
   -0.1037   -0.1003   -3.2867 H   0  0  0  0  0  0  0  0  0  0  0  0
   -2.0994   -0.4291   -4.0549 C   0  0  0  0  0  0  0  0  0  0  0  0
   -1.8779   -1.4498   -4.3999 H   0  0  0  0  0  0  0  0  0  0  0  0
   -3.1276   -0.4346   -3.6641 H   0  0  0  0  0  0  0  0  0  0  0  0
   -1.9528    0.5531   -5.1504 N   0  3  0  0  0  0  0  0  0  0  0  0
   -0.9929    0.5452   -5.5001 H   0  0  0  0  0  0  0  0  0  0  0  0
   -2.5881    0.3231   -5.9175 H   0  0  0  0  0  0  0  0  0  0  0  0
   -2.1725    1.4906   -4.8073 H   0  0  0  0  0  0  0  0  0  0  0  0
   -1.1655    0.8372    1.3024 C   0  0  0  0  0  0  0  0  0  0  0  0
   -2.1197    1.4710    0.8637 O   0  0  0  0  0  0  0  0  0  0  0  0
   -0.2646    1.4493    2.1532 N   0  0  0  0  0  0  0  0  0  0  0  0
    0.4780    0.8767    2.5474 H   0  0  0  0  0  0  0  0  0  0  0  0
   -0.4396    2.8086    2.6550 C   0  0  0  0  0  0  0  0  0  0  0  0
   -1.3672    2.8885    3.2321 H   0  0  0  0  0  0  0  0  0  0  0  0
    0.3964    3.0833    3.3061 H   0  0  0  0  0  0  0  0  0  0  0  0
   -0.4787    3.5231    1.8258 H   0  0  0  0  0  0  0  0  0  0  0  0
  1  2  1  0  0  0  0
  2  3  1  0  0  0  0
  2  4  1  0  0  0  0
  2  5  1  0  0  0  0
  5  6  2  0  0  0  0
  5  7  1  0  0  0  0
  7  8  1  0  0  0  0
  7  9  1  0  0  0  0
  9 10  1  0  0  0  0
  9 11  1  0  0  0  0
  9 27  1  0  0  0  0
 11 12  1  0  0  0  0
 11 13  1  0  0  0  0
 11 14  1  0  0  0  0
 14 15  1  0  0  0  0
 14 16  1  0  0  0  0
 14 17  1  0  0  0  0
 17 18  1  0  0  0  0
 17 19  1  0  0  0  0
 17 20  1  0  0  0  0
 20 21  1  0  0  0  0
 20 22  1  0  0  0  0
 20 23  1  0  0  0  0
 23 24  1  0  0  0  0
 23 25  1  0  0  0  0
 23 26  1  0  0  0  0
 27 28  2  0  0  0  0
 27 29  1  0  0  0  0
 29 30  1  0  0  0  0
 29 31  1  0  0  0  0
 31 32  1  0  0  0  0
 31 33  1  0  0  0  0
 31 34  1  0  0  0  0
M  CHG  1  23   1
M  END
$$$$

  -OEChem-02102214153D

 34 33  0     1  0  0  0  0  0999 V2000
   -3.6998   -4.0748    2.2637 H   0  0  0  0  0  0  0  0  0  0  0  0
   -3.7799   -3.0890    1.7963 C   0  0  0  0  0  0  0  0  0  0  0  0
   -4.2758   -2.4101    2.4946 H   0  0  0  0  0  0  0  0  0  0  0  0
   -4.3851   -3.1775    0.8911 H   0  0  0  0  0  0  0  0  0  0  0  0
   -2.4003   -2.5623    1.4497 C   0  0  0  0  0  0  0  0  0  0  0  0
   -1.4159   -3.2654    1.6050 O   0  0  0  0  0  0  0  0  0  0  0  0
   -2.2533   -1.2958    0.9225 N   0  0  0  0  0  0  0  0  0  0  0  0
   -3.0831   -0.7028    0.9273 H   0  0  0  0  0  0  0  0  0  0  0  0
   -0.9554   -0.6015    0.8394 C   0  0  1  0  0  0  0  0  0  0  0  0
   -0.2384   -1.0663    1.5254 H   0  0  0  0  0  0  0  0  0  0  0  0
   -0.3436   -0.6185   -0.5864 C   0  0  0  0  0  0  0  0  0  0  0  0
    0.0901    0.3666   -0.7918 H   0  0  0  0  0  0  0  0  0  0  0  0
    0.4854   -1.3343   -0.5950 H   0  0  0  0  0  0  0  0  0  0  0  0
   -1.3111   -1.0068   -1.7242 C   0  0  0  0  0  0  0  0  0  0  0  0
   -1.3306   -2.0971   -1.8322 H   0  0  0  0  0  0  0  0  0  0  0  0
   -2.3260   -0.6721   -1.4847 H   0  0  0  0  0  0  0  0  0  0  0  0
   -0.9089   -0.3232   -3.0360 C   0  0  0  0  0  0  0  0  0  0  0  0
   -0.9252    0.7639   -2.8980 H   0  0  0  0  0  0  0  0  0  0  0  0
    0.1120   -0.6193   -3.3015 H   0  0  0  0  0  0  0  0  0  0  0  0
   -1.8751   -0.7177   -4.1493 C   0  0  0  0  0  0  0  0  0  0  0  0
   -1.8522   -1.8099   -4.2785 H   0  0  0  0  0  0  0  0  0  0  0  0
   -2.8990   -0.4473   -3.8514 H   0  0  0  0  0  0  0  0  0  0  0  0
   -1.4816   -0.0220   -5.3935 N   0  3  0  0  0  0  0  0  0  0  0  0
   -0.5307   -0.2881   -5.6560 H   0  0  0  0  0  0  0  0  0  0  0  0
   -2.1183   -0.2719   -6.1532 H   0  0  0  0  0  0  0  0  0  0  0  0
   -1.5152    0.9896   -5.2518 H   0  0  0  0  0  0  0  0  0  0  0  0
   -1.1421    0.8547    1.3120 C   0  0  0  0  0  0  0  0  0  0  0  0
   -2.0963    1.4959    0.8856 O   0  0  0  0  0  0  0  0  0  0  0  0
   -0.2449    1.4499    2.1787 N   0  0  0  0  0  0  0  0  0  0  0  0
    0.4910    0.8683    2.5717 H   0  0  0  0  0  0  0  0  0  0  0  0
   -0.4174    2.8032    2.6972 C   0  0  0  0  0  0  0  0  0  0  0  0
   -1.3513    2.8810    3.2640 H   0  0  0  0  0  0  0  0  0  0  0  0
    0.4122    3.0637    3.3621 H   0  0  0  0  0  0  0  0  0  0  0  0
   -0.4421    3.5293    1.8776 H   0  0  0  0  0  0  0  0  0  0  0  0
  1  2  1  0  0  0  0
  2  3  1  0  0  0  0
  2  4  1  0  0  0  0
  2  5  1  0  0  0  0
  5  6  2  0  0  0  0
  5  7  1  0  0  0  0
  7  8  1  0  0  0  0
  7  9  1  0  0  0  0
  9 10  1  0  0  0  0
  9 11  1  0  0  0  0
  9 27  1  0  0  0  0
 11 12  1  0  0  0  0
 11 13  1  0  0  0  0
 11 14  1  0  0  0  0
 14 15  1  0  0  0  0
 14 16  1  0  0  0  0
 14 17  1  0  0  0  0
 17 18  1  0  0  0  0
 17 19  1  0  0  0  0
 17 20  1  0  0  0  0
 20 21  1  0  0  0  0
 20 22  1  0  0  0  0
 20 23  1  0  0  0  0
 23 24  1  0  0  0  0
 23 25  1  0  0  0  0
 23 26  1  0  0  0  0
 27 28  2  0  0  0  0
 27 29  1  0  0  0  0
 29 30  1  0  0  0  0
 29 31  1  0  0  0  0
 31 32  1  0  0  0  0
 31 33  1  0  0  0  0
 31 34  1  0  0  0  0
M  CHG  1  23   1
M  END
$$$$

  -OEChem-02102214153D

 34 33  0     1  0  0  0  0  0999 V2000
   -3.7238   -4.0505    2.2185 H   0  0  0  0  0  0  0  0  0  0  0  0
   -3.7954   -3.0657    1.7481 C   0  0  0  0  0  0  0  0  0  0  0  0
   -4.2965   -2.3835    2.4393 H   0  0  0  0  0  0  0  0  0  0  0  0
   -4.3902   -3.1532    0.8361 H   0  0  0  0  0  0  0  0  0  0  0  0
   -2.4106   -2.5448    1.4157 C   0  0  0  0  0  0  0  0  0  0  0  0
   -1.4322   -3.2587    1.5607 O   0  0  0  0  0  0  0  0  0  0  0  0
   -2.2524   -1.2746    0.9010 N   0  0  0  0  0  0  0  0  0  0  0  0
   -3.0786   -0.6761    0.9081 H   0  0  0  0  0  0  0  0  0  0  0  0
   -0.9505   -0.5852    0.8387 C   0  0  1  0  0  0  0  0  0  0  0  0
   -0.2455   -1.0600    1.5303 H   0  0  0  0  0  0  0  0  0  0  0  0
   -0.3264   -0.6085   -0.5805 C   0  0  0  0  0  0  0  0  0  0  0  0
    0.1076    0.3744   -0.7953 H   0  0  0  0  0  0  0  0  0  0  0  0
    0.4979   -1.3297   -0.5811 H   0  0  0  0  0  0  0  0  0  0  0  0
   -1.3008   -0.9970   -1.7077 C   0  0  0  0  0  0  0  0  0  0  0  0
   -1.5197   -2.0695   -1.6484 H   0  0  0  0  0  0  0  0  0  0  0  0
   -2.2412   -0.4487   -1.5793 H   0  0  0  0  0  0  0  0  0  0  0  0
   -0.7160   -0.6422   -3.0788 C   0  0  0  0  0  0  0  0  0  0  0  0
   -0.5261    0.4360   -3.1250 H   0  0  0  0  0  0  0  0  0  0  0  0
    0.2385   -1.1633   -3.2114 H   0  0  0  0  0  0  0  0  0  0  0  0
   -1.6910   -1.0472   -4.1815 C   0  0  0  0  0  0  0  0  0  0  0  0
   -1.8866   -2.1276   -4.1124 H   0  0  0  0  0  0  0  0  0  0  0  0
   -2.6507   -0.5335   -4.0221 H   0  0  0  0  0  0  0  0  0  0  0  0
   -1.1086   -0.6930   -5.4941 N   0  3  0  0  0  0  0  0  0  0  0  0
   -0.2190   -1.1788   -5.6234 H   0  0  0  0  0  0  0  0  0  0  0  0
   -1.7463   -0.9624   -6.2463 H   0  0  0  0  0  0  0  0  0  0  0  0
   -0.9461    0.3148   -5.5422 H   0  0  0  0  0  0  0  0  0  0  0  0
   -1.1296    0.8690    1.3204 C   0  0  0  0  0  0  0  0  0  0  0  0
   -2.0801    1.5177    0.8983 O   0  0  0  0  0  0  0  0  0  0  0  0
   -0.2362    1.4502    2.2005 N   0  0  0  0  0  0  0  0  0  0  0  0
    0.4978    0.8631    2.5886 H   0  0  0  0  0  0  0  0  0  0  0  0
   -0.4018    2.8014    2.7266 C   0  0  0  0  0  0  0  0  0  0  0  0
   -1.3411    2.8849    3.2838 H   0  0  0  0  0  0  0  0  0  0  0  0
    0.4229    3.0495    3.4023 H   0  0  0  0  0  0  0  0  0  0  0  0
   -0.4107    3.5331    1.9117 H   0  0  0  0  0  0  0  0  0  0  0  0
  1  2  1  0  0  0  0
  2  3  1  0  0  0  0
  2  4  1  0  0  0  0
  2  5  1  0  0  0  0
  5  6  2  0  0  0  0
  5  7  1  0  0  0  0
  7  8  1  0  0  0  0
  7  9  1  0  0  0  0
  9 10  1  0  0  0  0
  9 11  1  0  0  0  0
  9 27  1  0  0  0  0
 11 12  1  0  0  0  0
 11 13  1  0  0  0  0
 11 14  1  0  0  0  0
 14 15  1  0  0  0  0
 14 16  1  0  0  0  0
 14 17  1  0  0  0  0
 17 18  1  0  0  0  0
 17 19  1  0  0  0  0
 17 20  1  0  0  0  0
 20 21  1  0  0  0  0
 20 22  1  0  0  0  0
 20 23  1  0  0  0  0
 23 24  1  0  0  0  0
 23 25  1  0  0  0  0
 23 26  1  0  0  0  0
 27 28  2  0  0  0  0
 27 29  1  0  0  0  0
 29 30  1  0  0  0  0
 29 31  1  0  0  0  0
 31 32  1  0  0  0  0
 31 33  1  0  0  0  0
 31 34  1  0  0  0  0
M  CHG  1  23   1
M  END
$$$$

  -OEChem-02102214153D

 34 33  0     1  0  0  0  0  0999 V2000
   -3.7256   -4.0655    2.1580 H   0  0  0  0  0  0  0  0  0  0  0  0
   -3.7929   -3.0615    1.7290 C   0  0  0  0  0  0  0  0  0  0  0  0
   -4.2798   -2.4036    2.4531 H   0  0  0  0  0  0  0  0  0  0  0  0
   -4.3994   -3.1065    0.8215 H   0  0  0  0  0  0  0  0  0  0  0  0
   -2.4066   -2.5397    1.4033 C   0  0  0  0  0  0  0  0  0  0  0  0
   -1.4272   -3.2470    1.5721 O   0  0  0  0  0  0  0  0  0  0  0  0
   -2.2460   -1.2722    0.8825 N   0  0  0  0  0  0  0  0  0  0  0  0
   -3.0732   -0.6754    0.8776 H   0  0  0  0  0  0  0  0  0  0  0  0
   -0.9453   -0.5822    0.8316 C   0  0  1  0  0  0  0  0  0  0  0  0
   -0.2431   -1.0521    1.5292 H   0  0  0  0  0  0  0  0  0  0  0  0
   -0.3172   -0.6091   -0.5814 C   0  0  0  0  0  0  0  0  0  0  0  0
    0.3521    0.2503   -0.6999 H   0  0  0  0  0  0  0  0  0  0  0  0
    0.2983   -1.5125   -0.6513 H   0  0  0  0  0  0  0  0  0  0  0  0
   -1.3386   -0.6387   -1.7327 C   0  0  0  0  0  0  0  0  0  0  0  0
   -1.9692   -1.5305   -1.6489 H   0  0  0  0  0  0  0  0  0  0  0  0
   -1.9854    0.2437   -1.6644 H   0  0  0  0  0  0  0  0  0  0  0  0
   -0.6251   -0.6624   -3.0880 C   0  0  0  0  0  0  0  0  0  0  0  0
    0.0174    0.2207   -3.1759 H   0  0  0  0  0  0  0  0  0  0  0  0
    0.0091   -1.5539   -3.1501 H   0  0  0  0  0  0  0  0  0  0  0  0
   -1.6551   -0.6727   -4.2142 C   0  0  0  0  0  0  0  0  0  0  0  0
   -2.2993   -1.5578   -4.1066 H   0  0  0  0  0  0  0  0  0  0  0  0
   -2.3024    0.2120   -4.1203 H   0  0  0  0  0  0  0  0  0  0  0  0
   -0.9478   -0.6809   -5.5127 N   0  3  0  0  0  0  0  0  0  0  0  0
   -0.3568   -1.5117   -5.5826 H   0  0  0  0  0  0  0  0  0  0  0  0
   -1.6225   -0.6877   -6.2807 H   0  0  0  0  0  0  0  0  0  0  0  0
   -0.3606    0.1514   -5.5945 H   0  0  0  0  0  0  0  0  0  0  0  0
   -1.1258    0.8751    1.3016 C   0  0  0  0  0  0  0  0  0  0  0  0
   -2.0749    1.5236    0.8760 O   0  0  0  0  0  0  0  0  0  0  0  0
   -0.2378    1.4554    2.1875 N   0  0  0  0  0  0  0  0  0  0  0  0
    0.4904    0.8652    2.5817 H   0  0  0  0  0  0  0  0  0  0  0  0
   -0.4152    2.7994    2.7276 C   0  0  0  0  0  0  0  0  0  0  0  0
   -1.3511    2.8655    3.2929 H   0  0  0  0  0  0  0  0  0  0  0  0
    0.4120    3.0503    3.3991 H   0  0  0  0  0  0  0  0  0  0  0  0
   -0.4390    3.5390    1.9201 H   0  0  0  0  0  0  0  0  0  0  0  0
  1  2  1  0  0  0  0
  2  3  1  0  0  0  0
  2  4  1  0  0  0  0
  2  5  1  0  0  0  0
  5  6  2  0  0  0  0
  5  7  1  0  0  0  0
  7  8  1  0  0  0  0
  7  9  1  0  0  0  0
  9 10  1  0  0  0  0
  9 11  1  0  0  0  0
  9 27  1  0  0  0  0
 11 12  1  0  0  0  0
 11 13  1  0  0  0  0
 11 14  1  0  0  0  0
 14 15  1  0  0  0  0
 14 16  1  0  0  0  0
 14 17  1  0  0  0  0
 17 18  1  0  0  0  0
 17 19  1  0  0  0  0
 17 20  1  0  0  0  0
 20 21  1  0  0  0  0
 20 22  1  0  0  0  0
 20 23  1  0  0  0  0
 23 24  1  0  0  0  0
 23 25  1  0  0  0  0
 23 26  1  0  0  0  0
 27 28  2  0  0  0  0
 27 29  1  0  0  0  0
 29 30  1  0  0  0  0
 29 31  1  0  0  0  0
 31 32  1  0  0  0  0
 31 33  1  0  0  0  0
 31 34  1  0  0  0  0
M  CHG  1  23   1
M  END
$$$$

  -OEChem-02102214153D

 34 33  0     1  0  0  0  0  0999 V2000
   -3.7409   -4.0531    2.2230 H   0  0  0  0  0  0  0  0  0  0  0  0
   -3.8072   -3.0485    1.7956 C   0  0  0  0  0  0  0  0  0  0  0  0
   -4.2692   -2.3853    2.5311 H   0  0  0  0  0  0  0  0  0  0  0  0
   -4.4362   -3.0861    0.9034 H   0  0  0  0  0  0  0  0  0  0  0  0
   -2.4236   -2.5418    1.4357 C   0  0  0  0  0  0  0  0  0  0  0  0
   -1.4474   -3.2602    1.5756 O   0  0  0  0  0  0  0  0  0  0  0  0
   -2.2633   -1.2768    0.9095 N   0  0  0  0  0  0  0  0  0  0  0  0
   -3.0860   -0.6732    0.9202 H   0  0  0  0  0  0  0  0  0  0  0  0
   -0.9604   -0.5936    0.8377 C   0  0  1  0  0  0  0  0  0  0  0  0
   -0.2535   -1.0639    1.5306 H   0  0  0  0  0  0  0  0  0  0  0  0
   -0.3381   -0.6162   -0.5790 C   0  0  0  0  0  0  0  0  0  0  0  0
    0.3464    0.2306   -0.7000 H   0  0  0  0  0  0  0  0  0  0  0  0
    0.2642   -1.5291   -0.6378 H   0  0  0  0  0  0  0  0  0  0  0  0
   -1.3453   -0.6388   -1.7459 C   0  0  0  0  0  0  0  0  0  0  0  0
   -2.1340   -1.3741   -1.5595 H   0  0  0  0  0  0  0  0  0  0  0  0
   -1.8171    0.3468   -1.8329 H   0  0  0  0  0  0  0  0  0  0  0  0
   -0.6451   -1.0267   -3.0531 C   0  0  0  0  0  0  0  0  0  0  0  0
    0.1607   -0.3132   -3.2584 H   0  0  0  0  0  0  0  0  0  0  0  0
   -0.2007   -2.0229   -2.9482 H   0  0  0  0  0  0  0  0  0  0  0  0
   -1.6509   -1.0238   -4.2009 C   0  0  0  0  0  0  0  0  0  0  0  0
   -2.4658   -1.7250   -3.9680 H   0  0  0  0  0  0  0  0  0  0  0  0
   -2.0993   -0.0228   -4.2860 H   0  0  0  0  0  0  0  0  0  0  0  0
   -0.9581   -1.4075   -5.4499 N   0  3  0  0  0  0  0  0  0  0  0  0
   -0.5558   -2.3418   -5.3523 H   0  0  0  0  0  0  0  0  0  0  0  0
   -1.6171   -1.4099   -6.2314 H   0  0  0  0  0  0  0  0  0  0  0  0
   -0.2079   -0.7434   -5.6507 H   0  0  0  0  0  0  0  0  0  0  0  0
   -1.1347    0.8644    1.3073 C   0  0  0  0  0  0  0  0  0  0  0  0
   -2.0945    1.5085    0.8991 O   0  0  0  0  0  0  0  0  0  0  0  0
   -0.2355    1.4471    2.1803 N   0  0  0  0  0  0  0  0  0  0  0  0
    0.5033    0.8610    2.5608 H   0  0  0  0  0  0  0  0  0  0  0  0
   -0.4073    2.7927    2.7181 C   0  0  0  0  0  0  0  0  0  0  0  0
   -1.3365    2.8607    3.2940 H   0  0  0  0  0  0  0  0  0  0  0  0
    0.4274    3.0465    3.3791 H   0  0  0  0  0  0  0  0  0  0  0  0
   -0.4412    3.5290    1.9081 H   0  0  0  0  0  0  0  0  0  0  0  0
  1  2  1  0  0  0  0
  2  3  1  0  0  0  0
  2  4  1  0  0  0  0
  2  5  1  0  0  0  0
  5  6  2  0  0  0  0
  5  7  1  0  0  0  0
  7  8  1  0  0  0  0
  7  9  1  0  0  0  0
  9 10  1  0  0  0  0
  9 11  1  0  0  0  0
  9 27  1  0  0  0  0
 11 12  1  0  0  0  0
 11 13  1  0  0  0  0
 11 14  1  0  0  0  0
 14 15  1  0  0  0  0
 14 16  1  0  0  0  0
 14 17  1  0  0  0  0
 17 18  1  0  0  0  0
 17 19  1  0  0  0  0
 17 20  1  0  0  0  0
 20 21  1  0  0  0  0
 20 22  1  0  0  0  0
 20 23  1  0  0  0  0
 23 24  1  0  0  0  0
 23 25  1  0  0  0  0
 23 26  1  0  0  0  0
 27 28  2  0  0  0  0
 27 29  1  0  0  0  0
 29 30  1  0  0  0  0
 29 31  1  0  0  0  0
 31 32  1  0  0  0  0
 31 33  1  0  0  0  0
 31 34  1  0  0  0  0
M  CHG  1  23   1
M  END
$$$$

  -OEChem-02102214153D

 34 33  0     1  0  0  0  0  0999 V2000
   -3.7503   -4.0438    2.2688 H   0  0  0  0  0  0  0  0  0  0  0  0
   -3.8176   -3.0362    1.8490 C   0  0  0  0  0  0  0  0  0  0  0  0
   -4.2534   -2.3727    2.6002 H   0  0  0  0  0  0  0  0  0  0  0  0
   -4.4693   -3.0617    0.9727 H   0  0  0  0  0  0  0  0  0  0  0  0
   -2.4387   -2.5411    1.4576 C   0  0  0  0  0  0  0  0  0  0  0  0
   -1.4667   -3.2706    1.5659 O   0  0  0  0  0  0  0  0  0  0  0  0
   -2.2794   -1.2761    0.9315 N   0  0  0  0  0  0  0  0  0  0  0  0
   -3.0979   -0.6671    0.9605 H   0  0  0  0  0  0  0  0  0  0  0  0
   -0.9750   -0.5973    0.8484 C   0  0  1  0  0  0  0  0  0  0  0  0
   -0.2668   -1.0695    1.5386 H   0  0  0  0  0  0  0  0  0  0  0  0
   -0.3541   -0.6202   -0.5701 C   0  0  0  0  0  0  0  0  0  0  0  0
    0.3410    0.2181   -0.6901 H   0  0  0  0  0  0  0  0  0  0  0  0
    0.2440   -1.5366   -0.6157 H   0  0  0  0  0  0  0  0  0  0  0  0
   -1.3445   -0.6404   -1.7569 C   0  0  0  0  0  0  0  0  0  0  0  0
   -2.2703   -1.1586   -1.4947 H   0  0  0  0  0  0  0  0  0  0  0  0
   -1.6091    0.3908   -2.0171 H   0  0  0  0  0  0  0  0  0  0  0  0
   -0.7365   -1.3726   -2.9591 C   0  0  0  0  0  0  0  0  0  0  0  0
    0.1995   -0.8814   -3.2475 H   0  0  0  0  0  0  0  0  0  0  0  0
   -0.5073   -2.4063   -2.6767 H   0  0  0  0  0  0  0  0  0  0  0  0
   -1.7167   -1.3604   -4.1292 C   0  0  0  0  0  0  0  0  0  0  0  0
   -2.6628   -1.8231   -3.8120 H   0  0  0  0  0  0  0  0  0  0  0  0
   -1.9411   -0.3190   -4.4031 H   0  0  0  0  0  0  0  0  0  0  0  0
   -1.1197   -2.0961   -5.2647 N   0  3  0  0  0  0  0  0  0  0  0  0
   -0.9271   -3.0617   -4.9910 H   0  0  0  0  0  0  0  0  0  0  0  0
   -1.7621   -2.0985   -6.0598 H   0  0  0  0  0  0  0  0  0  0  0  0
   -0.2442   -1.6513   -5.5468 H   0  0  0  0  0  0  0  0  0  0  0  0
   -1.1419    0.8605    1.3217 C   0  0  0  0  0  0  0  0  0  0  0  0
   -2.1083    1.5032    0.9279 O   0  0  0  0  0  0  0  0  0  0  0  0
   -0.2353    1.4431    2.1874 N   0  0  0  0  0  0  0  0  0  0  0  0
    0.5088    0.8589    2.5603 H   0  0  0  0  0  0  0  0  0  0  0  0
   -0.3983    2.7928    2.7186 C   0  0  0  0  0  0  0  0  0  0  0  0
   -1.3206    2.8666    3.3049 H   0  0  0  0  0  0  0  0  0  0  0  0
    0.4447    3.0499    3.3677 H   0  0  0  0  0  0  0  0  0  0  0  0
   -0.4404    3.5244    1.9046 H   0  0  0  0  0  0  0  0  0  0  0  0
  1  2  1  0  0  0  0
  2  3  1  0  0  0  0
  2  4  1  0  0  0  0
  2  5  1  0  0  0  0
  5  6  2  0  0  0  0
  5  7  1  0  0  0  0
  7  8  1  0  0  0  0
  7  9  1  0  0  0  0
  9 10  1  0  0  0  0
  9 11  1  0  0  0  0
  9 27  1  0  0  0  0
 11 12  1  0  0  0  0
 11 13  1  0  0  0  0
 11 14  1  0  0  0  0
 14 15  1  0  0  0  0
 14 16  1  0  0  0  0
 14 17  1  0  0  0  0
 17 18  1  0  0  0  0
 17 19  1  0  0  0  0
 17 20  1  0  0  0  0
 20 21  1  0  0  0  0
 20 22  1  0  0  0  0
 20 23  1  0  0  0  0
 23 24  1  0  0  0  0
 23 25  1  0  0  0  0
 23 26  1  0  0  0  0
 27 28  2  0  0  0  0
 27 29  1  0  0  0  0
 29 30  1  0  0  0  0
 29 31  1  0  0  0  0
 31 32  1  0  0  0  0
 31 33  1  0  0  0  0
 31 34  1  0  0  0  0
M  CHG  1  23   1
M  END
$$$$

  -OEChem-02102214153D

 34 33  0     1  0  0  0  0  0999 V2000
   -3.7563   -4.0253    2.2924 H   0  0  0  0  0  0  0  0  0  0  0  0
   -3.8219   -3.0123    1.8852 C   0  0  0  0  0  0  0  0  0  0  0  0
   -4.2249   -2.3513    2.6566 H   0  0  0  0  0  0  0  0  0  0  0  0
   -4.5021   -3.0190    1.0304 H   0  0  0  0  0  0  0  0  0  0  0  0
   -2.4490   -2.5318    1.4555 C   0  0  0  0  0  0  0  0  0  0  0  0
   -1.4848   -3.2769    1.5206 O   0  0  0  0  0  0  0  0  0  0  0  0
   -2.2900   -1.2657    0.9331 N   0  0  0  0  0  0  0  0  0  0  0  0
   -3.1028   -0.6505    0.9874 H   0  0  0  0  0  0  0  0  0  0  0  0
   -0.9836   -0.5901    0.8500 C   0  0  1  0  0  0  0  0  0  0  0  0
   -0.2800   -1.0660    1.5426 H   0  0  0  0  0  0  0  0  0  0  0  0
   -0.3546   -0.6191   -0.5642 C   0  0  0  0  0  0  0  0  0  0  0  0
    0.3367    0.2230   -0.6803 H   0  0  0  0  0  0  0  0  0  0  0  0
    0.2549   -1.5285   -0.5995 H   0  0  0  0  0  0  0  0  0  0  0  0
   -1.3322   -0.6418   -1.7642 C   0  0  0  0  0  0  0  0  0  0  0  0
   -2.3530   -0.8783   -1.4551 H   0  0  0  0  0  0  0  0  0  0  0  0
   -1.3628    0.3594   -2.2086 H   0  0  0  0  0  0  0  0  0  0  0  0
   -0.8914   -1.6754   -2.8077 C   0  0  0  0  0  0  0  0  0  0  0  0
    0.1231   -1.4394   -3.1484 H   0  0  0  0  0  0  0  0  0  0  0  0
   -0.8748   -2.6690   -2.3449 H   0  0  0  0  0  0  0  0  0  0  0  0
   -1.8547   -1.6721   -3.9909 C   0  0  0  0  0  0  0  0  0  0  0  0
   -2.8739   -1.8695   -3.6270 H   0  0  0  0  0  0  0  0  0  0  0  0
   -1.8621   -0.6725   -4.4502 H   0  0  0  0  0  0  0  0  0  0  0  0
   -1.4245   -2.7044   -4.9585 N   0  3  0  0  0  0  0  0  0  0  0  0
   -1.4327   -3.6240   -4.5122 H   0  0  0  0  0  0  0  0  0  0  0  0
   -2.0559   -2.7194   -5.7622 H   0  0  0  0  0  0  0  0  0  0  0  0
   -0.4770   -2.5035   -5.2840 H   0  0  0  0  0  0  0  0  0  0  0  0
   -1.1457    0.8671    1.3282 C   0  0  0  0  0  0  0  0  0  0  0  0
   -2.1252    1.5047    0.9594 O   0  0  0  0  0  0  0  0  0  0  0  0
   -0.2358    1.4445    2.1939 N   0  0  0  0  0  0  0  0  0  0  0  0
    0.5236    0.8653    2.5426 H   0  0  0  0  0  0  0  0  0  0  0  0
   -0.4007    2.7872    2.7417 C   0  0  0  0  0  0  0  0  0  0  0  0
   -1.3235    2.8517    3.3281 H   0  0  0  0  0  0  0  0  0  0  0  0
    0.4409    3.0371    3.3951 H   0  0  0  0  0  0  0  0  0  0  0  0
   -0.4431    3.5285    1.9366 H   0  0  0  0  0  0  0  0  0  0  0  0
  1  2  1  0  0  0  0
  2  3  1  0  0  0  0
  2  4  1  0  0  0  0
  2  5  1  0  0  0  0
  5  6  2  0  0  0  0
  5  7  1  0  0  0  0
  7  8  1  0  0  0  0
  7  9  1  0  0  0  0
  9 10  1  0  0  0  0
  9 11  1  0  0  0  0
  9 27  1  0  0  0  0
 11 12  1  0  0  0  0
 11 13  1  0  0  0  0
 11 14  1  0  0  0  0
 14 15  1  0  0  0  0
 14 16  1  0  0  0  0
 14 17  1  0  0  0  0
 17 18  1  0  0  0  0
 17 19  1  0  0  0  0
 17 20  1  0  0  0  0
 20 21  1  0  0  0  0
 20 22  1  0  0  0  0
 20 23  1  0  0  0  0
 23 24  1  0  0  0  0
 23 25  1  0  0  0  0
 23 26  1  0  0  0  0
 27 28  2  0  0  0  0
 27 29  1  0  0  0  0
 29 30  1  0  0  0  0
 29 31  1  0  0  0  0
 31 32  1  0  0  0  0
 31 33  1  0  0  0  0
 31 34  1  0  0  0  0
M  CHG  1  23   1
M  END
$$$$

  -OEChem-02102214153D

 34 33  0     1  0  0  0  0  0999 V2000
   -3.7587   -4.0080    2.2472 H   0  0  0  0  0  0  0  0  0  0  0  0
   -3.8177   -2.9836    1.8688 C   0  0  0  0  0  0  0  0  0  0  0  0
   -4.1800   -2.3355    2.6708 H   0  0  0  0  0  0  0  0  0  0  0  0
   -4.5266   -2.9532    1.0383 H   0  0  0  0  0  0  0  0  0  0  0  0
   -2.4507   -2.5184    1.4056 C   0  0  0  0  0  0  0  0  0  0  0  0
   -1.4995   -3.2827    1.4172 O   0  0  0  0  0  0  0  0  0  0  0  0
   -2.2869   -1.2472    0.8993 N   0  0  0  0  0  0  0  0  0  0  0  0
   -3.0927   -0.6258    0.9842 H   0  0  0  0  0  0  0  0  0  0  0  0
   -0.9779   -0.5726    0.8433 C   0  0  1  0  0  0  0  0  0  0  0  0
   -0.2876   -1.0559    1.5440 H   0  0  0  0  0  0  0  0  0  0  0  0
   -0.3298   -0.6121   -0.5606 C   0  0  0  0  0  0  0  0  0  0  0  0
    0.3416    0.2469   -0.6699 H   0  0  0  0  0  0  0  0  0  0  0  0
    0.3043   -1.5046   -0.5937 H   0  0  0  0  0  0  0  0  0  0  0  0
   -1.3037   -0.6393   -1.7630 C   0  0  0  0  0  0  0  0  0  0  0  0
   -2.3480   -0.5653   -1.4471 H   0  0  0  0  0  0  0  0  0  0  0  0
   -1.1080    0.2417   -2.3845 H   0  0  0  0  0  0  0  0  0  0  0  0
   -1.0947   -1.9063   -2.6015 C   0  0  0  0  0  0  0  0  0  0  0  0
   -0.0634   -1.9341   -2.9707 H   0  0  0  0  0  0  0  0  0  0  0  0
   -1.2532   -2.7842   -1.9639 H   0  0  0  0  0  0  0  0  0  0  0  0
   -2.0707   -1.9362   -3.7731 C   0  0  0  0  0  0  0  0  0  0  0  0
   -3.0991   -1.8694   -3.3888 H   0  0  0  0  0  0  0  0  0  0  0  0
   -1.9038   -1.0542   -4.4085 H   0  0  0  0  0  0  0  0  0  0  0  0
   -1.8639   -3.1908   -4.5282 N   0  3  0  0  0  0  0  0  0  0  0  0
   -2.0166   -3.9940   -3.9146 H   0  0  0  0  0  0  0  0  0  0  0  0
   -2.5168   -3.2426   -5.3129 H   0  0  0  0  0  0  0  0  0  0  0  0
   -0.9082   -3.2278   -4.8880 H   0  0  0  0  0  0  0  0  0  0  0  0
   -1.1423    0.8799    1.3343 C   0  0  0  0  0  0  0  0  0  0  0  0
   -2.1245    1.5166    0.9715 O   0  0  0  0  0  0  0  0  0  0  0  0
   -0.2441    1.4463    2.2191 N   0  0  0  0  0  0  0  0  0  0  0  0
    0.5188    0.8675    2.5608 H   0  0  0  0  0  0  0  0  0  0  0  0
   -0.4150    2.7827    2.7804 C   0  0  0  0  0  0  0  0  0  0  0  0
   -1.3451    2.8415    3.3560 H   0  0  0  0  0  0  0  0  0  0  0  0
    0.4189    3.0242    3.4468 H   0  0  0  0  0  0  0  0  0  0  0  0
   -0.4470    3.5336    1.9836 H   0  0  0  0  0  0  0  0  0  0  0  0
  1  2  1  0  0  0  0
  2  3  1  0  0  0  0
  2  4  1  0  0  0  0
  2  5  1  0  0  0  0
  5  6  2  0  0  0  0
  5  7  1  0  0  0  0
  7  8  1  0  0  0  0
  7  9  1  0  0  0  0
  9 10  1  0  0  0  0
  9 11  1  0  0  0  0
  9 27  1  0  0  0  0
 11 12  1  0  0  0  0
 11 13  1  0  0  0  0
 11 14  1  0  0  0  0
 14 15  1  0  0  0  0
 14 16  1  0  0  0  0
 14 17  1  0  0  0  0
 17 18  1  0  0  0  0
 17 19  1  0  0  0  0
 17 20  1  0  0  0  0
 20 21  1  0  0  0  0
 20 22  1  0  0  0  0
 20 23  1  0  0  0  0
 23 24  1  0  0  0  0
 23 25  1  0  0  0  0
 23 26  1  0  0  0  0
 27 28  2  0  0  0  0
 27 29  1  0  0  0  0
 29 30  1  0  0  0  0
 29 31  1  0  0  0  0
 31 32  1  0  0  0  0
 31 33  1  0  0  0  0
 31 34  1  0  0  0  0
M  CHG  1  23   1
M  END
$$$$

  -OEChem-02102214153D

 34 33  0     1  0  0  0  0  0999 V2000
   -3.7758   -3.9968    2.2033 H   0  0  0  0  0  0  0  0  0  0  0  0
   -3.8227   -2.9621    1.8514 C   0  0  0  0  0  0  0  0  0  0  0  0
   -4.1505   -2.3264    2.6779 H   0  0  0  0  0  0  0  0  0  0  0  0
   -4.5519   -2.8964    1.0409 H   0  0  0  0  0  0  0  0  0  0  0  0
   -2.4579   -2.5132    1.3660 C   0  0  0  0  0  0  0  0  0  0  0  0
   -1.5225   -3.2959    1.3382 O   0  0  0  0  0  0  0  0  0  0  0  0
   -2.2833   -1.2412    0.8664 N   0  0  0  0  0  0  0  0  0  0  0  0
   -3.0823   -0.6132    0.9674 H   0  0  0  0  0  0  0  0  0  0  0  0
   -0.9709   -0.5694    0.8369 C   0  0  1  0  0  0  0  0  0  0  0  0
   -0.2968   -1.0577    1.5499 H   0  0  0  0  0  0  0  0  0  0  0  0
   -0.2969   -0.6133   -0.5539 C   0  0  0  0  0  0  0  0  0  0  0  0
    0.3583    0.2594   -0.6532 H   0  0  0  0  0  0  0  0  0  0  0  0
    0.3537   -1.4936   -0.5894 H   0  0  0  0  0  0  0  0  0  0  0  0
   -1.2663   -0.6409   -1.7546 C   0  0  0  0  0  0  0  0  0  0  0  0
   -2.2631   -0.2886   -1.4690 H   0  0  0  0  0  0  0  0  0  0  0  0
   -0.8951    0.0542   -2.5156 H   0  0  0  0  0  0  0  0  0  0  0  0
   -1.3254   -2.0482   -2.3623 C   0  0  0  0  0  0  0  0  0  0  0  0
   -0.3322   -2.3263   -2.7321 H   0  0  0  0  0  0  0  0  0  0  0  0
   -1.6080   -2.7639   -1.5819 H   0  0  0  0  0  0  0  0  0  0  0  0
   -2.3382   -2.1011   -3.5000 C   0  0  0  0  0  0  0  0  0  0  0  0
   -3.3248   -1.7961   -3.1211 H   0  0  0  0  0  0  0  0  0  0  0  0
   -2.0505   -1.3790   -4.2782 H   0  0  0  0  0  0  0  0  0  0  0  0
   -2.3709   -3.4808   -4.0310 N   0  3  0  0  0  0  0  0  0  0  0  0
   -2.6107   -4.1347   -3.2828 H   0  0  0  0  0  0  0  0  0  0  0  0
   -3.0664   -3.5566   -4.7759 H   0  0  0  0  0  0  0  0  0  0  0  0
   -1.4537   -3.7314   -4.4051 H   0  0  0  0  0  0  0  0  0  0  0  0
   -1.1404    0.8827    1.3290 C   0  0  0  0  0  0  0  0  0  0  0  0
   -2.1248    1.5153    0.9652 O   0  0  0  0  0  0  0  0  0  0  0  0
   -0.2578    1.4453    2.2318 N   0  0  0  0  0  0  0  0  0  0  0  0
    0.5131    0.8733    2.5667 H   0  0  0  0  0  0  0  0  0  0  0  0
   -0.4337    2.7821    2.7909 C   0  0  0  0  0  0  0  0  0  0  0  0
   -1.3714    2.8428    3.3536 H   0  0  0  0  0  0  0  0  0  0  0  0
    0.3914    3.0217    3.4690 H   0  0  0  0  0  0  0  0  0  0  0  0
   -0.4529    3.5330    1.9937 H   0  0  0  0  0  0  0  0  0  0  0  0
  1  2  1  0  0  0  0
  2  3  1  0  0  0  0
  2  4  1  0  0  0  0
  2  5  1  0  0  0  0
  5  6  2  0  0  0  0
  5  7  1  0  0  0  0
  7  8  1  0  0  0  0
  7  9  1  0  0  0  0
  9 10  1  0  0  0  0
  9 11  1  0  0  0  0
  9 27  1  0  0  0  0
 11 12  1  0  0  0  0
 11 13  1  0  0  0  0
 11 14  1  0  0  0  0
 14 15  1  0  0  0  0
 14 16  1  0  0  0  0
 14 17  1  0  0  0  0
 17 18  1  0  0  0  0
 17 19  1  0  0  0  0
 17 20  1  0  0  0  0
 20 21  1  0  0  0  0
 20 22  1  0  0  0  0
 20 23  1  0  0  0  0
 23 24  1  0  0  0  0
 23 25  1  0  0  0  0
 23 26  1  0  0  0  0
 27 28  2  0  0  0  0
 27 29  1  0  0  0  0
 29 30  1  0  0  0  0
 29 31  1  0  0  0  0
 31 32  1  0  0  0  0
 31 33  1  0  0  0  0
 31 34  1  0  0  0  0
M  CHG  1  23   1
M  END
$$$$

  -OEChem-02102214153D

 34 33  0     1  0  0  0  0  0999 V2000
   -3.7728   -3.9917    2.3484 H   0  0  0  0  0  0  0  0  0  0  0  0
   -3.8169   -2.9571    1.9960 C   0  0  0  0  0  0  0  0  0  0  0  0
   -4.1160   -2.3168    2.8298 H   0  0  0  0  0  0  0  0  0  0  0  0
   -4.5660   -2.8837    1.2045 H   0  0  0  0  0  0  0  0  0  0  0  0
   -2.4601   -2.5247    1.4746 C   0  0  0  0  0  0  0  0  0  0  0  0
   -1.5281   -3.3111    1.4485 O   0  0  0  0  0  0  0  0  0  0  0  0
   -2.2923   -1.2657    0.9399 N   0  0  0  0  0  0  0  0  0  0  0  0
   -3.0872   -0.6326    1.0428 H   0  0  0  0  0  0  0  0  0  0  0  0
   -0.9805   -0.5971    0.8730 C   0  0  1  0  0  0  0  0  0  0  0  0
   -0.2959   -1.0684    1.5875 H   0  0  0  0  0  0  0  0  0  0  0  0
   -0.3101   -0.6425   -0.5218 C   0  0  0  0  0  0  0  0  0  0  0  0
    0.3425    0.2319   -0.6228 H   0  0  0  0  0  0  0  0  0  0  0  0
    0.3414   -1.5222   -0.5610 H   0  0  0  0  0  0  0  0  0  0  0  0
   -1.2686   -0.6791   -1.7283 C   0  0  0  0  0  0  0  0  0  0  0  0
   -2.1727   -0.1017   -1.5033 H   0  0  0  0  0  0  0  0  0  0  0  0
   -0.7762   -0.1914   -2.5767 H   0  0  0  0  0  0  0  0  0  0  0  0
   -1.6240   -2.1192   -2.1292 C   0  0  0  0  0  0  0  0  0  0  0  0
   -0.7057   -2.6495   -2.4041 H   0  0  0  0  0  0  0  0  0  0  0  0
   -2.0720   -2.6479   -1.2844 H   0  0  0  0  0  0  0  0  0  0  0  0
   -2.5946   -2.1215   -3.3044 C   0  0  0  0  0  0  0  0  0  0  0  0
   -3.5200   -1.6042   -3.0113 H   0  0  0  0  0  0  0  0  0  0  0  0
   -2.1570   -1.5564   -4.1405 H   0  0  0  0  0  0  0  0  0  0  0  0
   -2.8598   -3.5255   -3.6863 N   0  3  0  0  0  0  0  0  0  0  0  0
   -3.2274   -4.0402   -2.8835 H   0  0  0  0  0  0  0  0  0  0  0  0
   -3.5411   -3.5628   -4.4474 H   0  0  0  0  0  0  0  0  0  0  0  0
   -1.9930   -3.9715   -3.9932 H   0  0  0  0  0  0  0  0  0  0  0  0
   -1.1547    0.8649    1.3343 C   0  0  0  0  0  0  0  0  0  0  0  0
   -2.1527    1.4799    0.9762 O   0  0  0  0  0  0  0  0  0  0  0  0
   -0.2642    1.4538    2.2118 N   0  0  0  0  0  0  0  0  0  0  0  0
    0.5252    0.9011    2.5361 H   0  0  0  0  0  0  0  0  0  0  0  0
   -0.4365    2.8056    2.7348 C   0  0  0  0  0  0  0  0  0  0  0  0
   -1.3669    2.8803    3.3080 H   0  0  0  0  0  0  0  0  0  0  0  0
    0.3970    3.0669    3.3945 H   0  0  0  0  0  0  0  0  0  0  0  0
   -0.4688    3.5334    1.9168 H   0  0  0  0  0  0  0  0  0  0  0  0
  1  2  1  0  0  0  0
  2  3  1  0  0  0  0
  2  4  1  0  0  0  0
  2  5  1  0  0  0  0
  5  6  2  0  0  0  0
  5  7  1  0  0  0  0
  7  8  1  0  0  0  0
  7  9  1  0  0  0  0
  9 10  1  0  0  0  0
  9 11  1  0  0  0  0
  9 27  1  0  0  0  0
 11 12  1  0  0  0  0
 11 13  1  0  0  0  0
 11 14  1  0  0  0  0
 14 15  1  0  0  0  0
 14 16  1  0  0  0  0
 14 17  1  0  0  0  0
 17 18  1  0  0  0  0
 17 19  1  0  0  0  0
 17 20  1  0  0  0  0
 20 21  1  0  0  0  0
 20 22  1  0  0  0  0
 20 23  1  0  0  0  0
 23 24  1  0  0  0  0
 23 25  1  0  0  0  0
 23 26  1  0  0  0  0
 27 28  2  0  0  0  0
 27 29  1  0  0  0  0
 29 30  1  0  0  0  0
 29 31  1  0  0  0  0
 31 32  1  0  0  0  0
 31 33  1  0  0  0  0
 31 34  1  0  0  0  0
M  CHG  1  23   1
M  END
$$$$

  -OEChem-02102214153D

 34 33  0     1  0  0  0  0  0999 V2000
   -3.6254   -4.0253    2.6006 H   0  0  0  0  0  0  0  0  0  0  0  0
   -3.7132   -2.9846    2.2754 C   0  0  0  0  0  0  0  0  0  0  0  0
   -3.9242   -2.3627    3.1491 H   0  0  0  0  0  0  0  0  0  0  0  0
   -4.5442   -2.9032    1.5713 H   0  0  0  0  0  0  0  0  0  0  0  0
   -2.4229   -2.5309    1.6197 C   0  0  0  0  0  0  0  0  0  0  0  0
   -1.4936   -3.3086    1.4796 O   0  0  0  0  0  0  0  0  0  0  0  0
   -2.3206   -1.2619    1.0913 N   0  0  0  0  0  0  0  0  0  0  0  0
   -3.1072   -0.6386    1.2809 H   0  0  0  0  0  0  0  0  0  0  0  0
   -1.0288   -0.5807    0.9102 C   0  0  1  0  0  0  0  0  0  0  0  0
   -0.2829   -1.0541    1.5587 H   0  0  0  0  0  0  0  0  0  0  0  0
   -0.4668   -0.6012   -0.5331 C   0  0  0  0  0  0  0  0  0  0  0  0
    0.1742    0.2776   -0.6656 H   0  0  0  0  0  0  0  0  0  0  0  0
    0.1856   -1.4761   -0.6235 H   0  0  0  0  0  0  0  0  0  0  0  0
   -1.4756   -0.6379   -1.7004 C   0  0  0  0  0  0  0  0  0  0  0  0
   -2.2444    0.1278   -1.5451 H   0  0  0  0  0  0  0  0  0  0  0  0
   -0.9282   -0.3707   -2.6109 H   0  0  0  0  0  0  0  0  0  0  0  0
   -2.1357   -2.0134   -1.9062 C   0  0  0  0  0  0  0  0  0  0  0  0
   -1.3820   -2.7976   -1.7742 H   0  0  0  0  0  0  0  0  0  0  0  0
   -2.9236   -2.1737   -1.1673 H   0  0  0  0  0  0  0  0  0  0  0  0
   -2.7393   -2.1124   -3.3034 C   0  0  0  0  0  0  0  0  0  0  0  0
   -3.5249   -1.3506   -3.4161 H   0  0  0  0  0  0  0  0  0  0  0  0
   -1.9624   -1.8921   -4.0503 H   0  0  0  0  0  0  0  0  0  0  0  0
   -3.2799   -3.4771   -3.4839 N   0  3  0  0  0  0  0  0  0  0  0  0
   -4.0146   -3.6541   -2.7966 H   0  0  0  0  0  0  0  0  0  0  0  0
   -3.6693   -3.5818   -4.4229 H   0  0  0  0  0  0  0  0  0  0  0  0
   -2.5351   -4.1651   -3.3535 H   0  0  0  0  0  0  0  0  0  0  0  0
   -1.1684    0.8728    1.4085 C   0  0  0  0  0  0  0  0  0  0  0  0
   -2.1972    1.4875    1.1520 O   0  0  0  0  0  0  0  0  0  0  0  0
   -0.2010    1.4552    2.2057 N   0  0  0  0  0  0  0  0  0  0  0  0
    0.6193    0.9037    2.4438 H   0  0  0  0  0  0  0  0  0  0  0  0
   -0.3252    2.8008    2.7574 C   0  0  0  0  0  0  0  0  0  0  0  0
   -1.1993    2.8684    3.4140 H   0  0  0  0  0  0  0  0  0  0  0  0
    0.5650    3.0549    3.3415 H   0  0  0  0  0  0  0  0  0  0  0  0
   -0.4316    3.5377    1.9540 H   0  0  0  0  0  0  0  0  0  0  0  0
  1  2  1  0  0  0  0
  2  3  1  0  0  0  0
  2  4  1  0  0  0  0
  2  5  1  0  0  0  0
  5  6  2  0  0  0  0
  5  7  1  0  0  0  0
  7  8  1  0  0  0  0
  7  9  1  0  0  0  0
  9 10  1  0  0  0  0
  9 11  1  0  0  0  0
  9 27  1  0  0  0  0
 11 12  1  0  0  0  0
 11 13  1  0  0  0  0
 11 14  1  0  0  0  0
 14 15  1  0  0  0  0
 14 16  1  0  0  0  0
 14 17  1  0  0  0  0
 17 18  1  0  0  0  0
 17 19  1  0  0  0  0
 17 20  1  0  0  0  0
 20 21  1  0  0  0  0
 20 22  1  0  0  0  0
 20 23  1  0  0  0  0
 23 24  1  0  0  0  0
 23 25  1  0  0  0  0
 23 26  1  0  0  0  0
 27 28  2  0  0  0  0
 27 29  1  0  0  0  0
 29 30  1  0  0  0  0
 29 31  1  0  0  0  0
 31 32  1  0  0  0  0
 31 33  1  0  0  0  0
 31 34  1  0  0  0  0
M  CHG  1  23   1
M  END
$$$$

  -OEChem-02102214153D

 34 33  0     1  0  0  0  0  0999 V2000
   -3.5084   -4.0208    2.7535 H   0  0  0  0  0  0  0  0  0  0  0  0
   -3.6355   -2.9909    2.4078 C   0  0  0  0  0  0  0  0  0  0  0  0
   -3.8117   -2.3513    3.2766 H   0  0  0  0  0  0  0  0  0  0  0  0
   -4.5044   -2.9430    1.7480 H   0  0  0  0  0  0  0  0  0  0  0  0
   -2.3923   -2.5303    1.6716 C   0  0  0  0  0  0  0  0  0  0  0  0
   -1.4830   -3.3109    1.4450 O   0  0  0  0  0  0  0  0  0  0  0  0
   -2.3190   -1.2511    1.1648 N   0  0  0  0  0  0  0  0  0  0  0  0
   -3.0861   -0.6286    1.4249 H   0  0  0  0  0  0  0  0  0  0  0  0
   -1.0393   -0.5684    0.9185 C   0  0  1  0  0  0  0  0  0  0  0  0
   -0.2602   -1.0552    1.5160 H   0  0  0  0  0  0  0  0  0  0  0  0
   -0.5428   -0.5488   -0.5511 C   0  0  0  0  0  0  0  0  0  0  0  0
    0.1142    0.3179   -0.6850 H   0  0  0  0  0  0  0  0  0  0  0  0
    0.0848   -1.4369   -0.6819 H   0  0  0  0  0  0  0  0  0  0  0  0
   -1.5684   -0.5547   -1.7066 C   0  0  0  0  0  0  0  0  0  0  0  0
   -2.1751    0.3562   -1.6478 H   0  0  0  0  0  0  0  0  0  0  0  0
   -0.9988   -0.5063   -2.6410 H   0  0  0  0  0  0  0  0  0  0  0  0
   -2.5013   -1.7768   -1.7466 C   0  0  0  0  0  0  0  0  0  0  0  0
   -1.9560   -2.6561   -1.3855 H   0  0  0  0  0  0  0  0  0  0  0  0
   -3.3630   -1.6103   -1.0941 H   0  0  0  0  0  0  0  0  0  0  0  0
   -2.9938   -2.0307   -3.1678 C   0  0  0  0  0  0  0  0  0  0  0  0
   -3.5857   -1.1683   -3.5082 H   0  0  0  0  0  0  0  0  0  0  0  0
   -2.1279   -2.1180   -3.8406 H   0  0  0  0  0  0  0  0  0  0  0  0
   -3.7946   -3.2735   -3.1724 N   0  3  0  0  0  0  0  0  0  0  0  0
   -4.6147   -3.1615   -2.5743 H   0  0  0  0  0  0  0  0  0  0  0  0
   -4.1017   -3.4923   -4.1222 H   0  0  0  0  0  0  0  0  0  0  0  0
   -3.2309   -4.0493   -2.8178 H   0  0  0  0  0  0  0  0  0  0  0  0
   -1.1526    0.8727    1.4573 C   0  0  0  0  0  0  0  0  0  0  0  0
   -2.2002    1.4849    1.2841 O   0  0  0  0  0  0  0  0  0  0  0  0
   -0.1416    1.4421    2.2083 N   0  0  0  0  0  0  0  0  0  0  0  0
    0.6937    0.8897    2.3846 H   0  0  0  0  0  0  0  0  0  0  0  0
   -0.2486    2.7653    2.8149 C   0  0  0  0  0  0  0  0  0  0  0  0
   -1.0814    2.7955    3.5257 H   0  0  0  0  0  0  0  0  0  0  0  0
    0.6721    3.0130    3.3524 H   0  0  0  0  0  0  0  0  0  0  0  0
   -0.4146    3.5284    2.0467 H   0  0  0  0  0  0  0  0  0  0  0  0
  1  2  1  0  0  0  0
  2  3  1  0  0  0  0
  2  4  1  0  0  0  0
  2  5  1  0  0  0  0
  5  6  2  0  0  0  0
  5  7  1  0  0  0  0
  7  8  1  0  0  0  0
  7  9  1  0  0  0  0
  9 10  1  0  0  0  0
  9 11  1  0  0  0  0
  9 27  1  0  0  0  0
 11 12  1  0  0  0  0
 11 13  1  0  0  0  0
 11 14  1  0  0  0  0
 14 15  1  0  0  0  0
 14 16  1  0  0  0  0
 14 17  1  0  0  0  0
 17 18  1  0  0  0  0
 17 19  1  0  0  0  0
 17 20  1  0  0  0  0
 20 21  1  0  0  0  0
 20 22  1  0  0  0  0
 20 23  1  0  0  0  0
 23 24  1  0  0  0  0
 23 25  1  0  0  0  0
 23 26  1  0  0  0  0
 27 28  2  0  0  0  0
 27 29  1  0  0  0  0
 29 30  1  0  0  0  0
 29 31  1  0  0  0  0
 31 32  1  0  0  0  0
 31 33  1  0  0  0  0
 31 34  1  0  0  0  0
M  CHG  1  23   1
M  END
$$$$

  -OEChem-02102214153D

 34 33  0     1  0  0  0  0  0999 V2000
   -3.4234   -4.0760    2.8413 H   0  0  0  0  0  0  0  0  0  0  0  0
   -3.5593   -3.0392    2.5198 C   0  0  0  0  0  0  0  0  0  0  0  0
   -3.7192   -2.4180    3.4047 H   0  0  0  0  0  0  0  0  0  0  0  0
   -4.4416   -2.9808    1.8790 H   0  0  0  0  0  0  0  0  0  0  0  0
   -2.3316   -2.5606    1.7684 C   0  0  0  0  0  0  0  0  0  0  0  0
   -1.4023   -3.3211    1.5579 O   0  0  0  0  0  0  0  0  0  0  0  0
   -2.2888   -1.2856    1.2460 N   0  0  0  0  0  0  0  0  0  0  0  0
   -3.0585   -0.6714    1.5168 H   0  0  0  0  0  0  0  0  0  0  0  0
   -1.0231   -0.5900    0.9638 C   0  0  1  0  0  0  0  0  0  0  0  0
   -0.2244   -1.0596    1.5494 H   0  0  0  0  0  0  0  0  0  0  0  0
   -0.5447   -0.5497   -0.5139 C   0  0  0  0  0  0  0  0  0  0  0  0
    0.1284    0.3052   -0.6431 H   0  0  0  0  0  0  0  0  0  0  0  0
    0.0689   -1.4480   -0.6443 H   0  0  0  0  0  0  0  0  0  0  0  0
   -1.5442   -0.5534   -1.6960 C   0  0  0  0  0  0  0  0  0  0  0  0
   -1.9697    0.4531   -1.7806 H   0  0  0  0  0  0  0  0  0  0  0  0
   -0.9625   -0.7356   -2.6064 H   0  0  0  0  0  0  0  0  0  0  0  0
   -2.7066   -1.5533   -1.6339 C   0  0  0  0  0  0  0  0  0  0  0  0
   -2.3358   -2.5105   -1.2505 H   0  0  0  0  0  0  0  0  0  0  0  0
   -3.4844   -1.1796   -0.9613 H   0  0  0  0  0  0  0  0  0  0  0  0
   -3.3004   -1.7535   -3.0250 C   0  0  0  0  0  0  0  0  0  0  0  0
   -3.6980   -0.7957   -3.3918 H   0  0  0  0  0  0  0  0  0  0  0  0
   -2.5029   -2.0610   -3.7175 H   0  0  0  0  0  0  0  0  0  0  0  0
   -4.3587   -2.7828   -2.9466 N   0  3  0  0  0  0  0  0  0  0  0  0
   -5.0979   -2.4742   -2.3130 H   0  0  0  0  0  0  0  0  0  0  0  0
   -4.7601   -2.9465   -3.8723 H   0  0  0  0  0  0  0  0  0  0  0  0
   -3.9645   -3.6583   -2.5953 H   0  0  0  0  0  0  0  0  0  0  0  0
   -1.1533    0.8531    1.4934 C   0  0  0  0  0  0  0  0  0  0  0  0
   -2.2130    1.4475    1.3281 O   0  0  0  0  0  0  0  0  0  0  0  0
   -0.1386    1.4476    2.2195 N   0  0  0  0  0  0  0  0  0  0  0  0
    0.7082    0.9103    2.3877 H   0  0  0  0  0  0  0  0  0  0  0  0
   -0.2477    2.7832    2.7980 C   0  0  0  0  0  0  0  0  0  0  0  0
   -1.0495    2.8148    3.5434 H   0  0  0  0  0  0  0  0  0  0  0  0
    0.6901    3.0628    3.2882 H   0  0  0  0  0  0  0  0  0  0  0  0
   -0.4619    3.5233    2.0195 H   0  0  0  0  0  0  0  0  0  0  0  0
  1  2  1  0  0  0  0
  2  3  1  0  0  0  0
  2  4  1  0  0  0  0
  2  5  1  0  0  0  0
  5  6  2  0  0  0  0
  5  7  1  0  0  0  0
  7  8  1  0  0  0  0
  7  9  1  0  0  0  0
  9 10  1  0  0  0  0
  9 11  1  0  0  0  0
  9 27  1  0  0  0  0
 11 12  1  0  0  0  0
 11 13  1  0  0  0  0
 11 14  1  0  0  0  0
 14 15  1  0  0  0  0
 14 16  1  0  0  0  0
 14 17  1  0  0  0  0
 17 18  1  0  0  0  0
 17 19  1  0  0  0  0
 17 20  1  0  0  0  0
 20 21  1  0  0  0  0
 20 22  1  0  0  0  0
 20 23  1  0  0  0  0
 23 24  1  0  0  0  0
 23 25  1  0  0  0  0
 23 26  1  0  0  0  0
 27 28  2  0  0  0  0
 27 29  1  0  0  0  0
 29 30  1  0  0  0  0
 29 31  1  0  0  0  0
 31 32  1  0  0  0  0
 31 33  1  0  0  0  0
 31 34  1  0  0  0  0
M  CHG  1  23   1
M  END
$$$$

  -OEChem-02102214153D

 34 33  0     1  0  0  0  0  0999 V2000
   -3.2647   -4.2511    2.7752 H   0  0  0  0  0  0  0  0  0  0  0  0
   -3.4909   -3.3121    2.2609 C   0  0  0  0  0  0  0  0  0  0  0  0
   -3.8723   -2.5981    2.9952 H   0  0  0  0  0  0  0  0  0  0  0  0
   -4.2596   -3.5013    1.5093 H   0  0  0  0  0  0  0  0  0  0  0  0
   -2.2365   -2.7665    1.6052 C   0  0  0  0  0  0  0  0  0  0  0  0
   -1.2166   -3.4308    1.5909 O   0  0  0  0  0  0  0  0  0  0  0  0
   -2.2512   -1.5326    0.9836 N   0  0  0  0  0  0  0  0  0  0  0  0
   -3.0710   -0.9653    1.1959 H   0  0  0  0  0  0  0  0  0  0  0  0
   -1.0068   -0.7554    0.8341 C   0  0  1  0  0  0  0  0  0  0  0  0
   -0.2667   -1.1070    1.5628 H   0  0  0  0  0  0  0  0  0  0  0  0
   -0.3121   -0.7307   -0.5564 C   0  0  0  0  0  0  0  0  0  0  0  0
    0.3379    0.1499   -0.6086 H   0  0  0  0  0  0  0  0  0  0  0  0
    0.3561   -1.5990   -0.5365 H   0  0  0  0  0  0  0  0  0  0  0  0
   -1.0635   -0.8443   -1.9090 C   0  0  0  0  0  0  0  0  0  0  0  0
   -1.2552    0.1741   -2.2648 H   0  0  0  0  0  0  0  0  0  0  0  0
   -0.3571   -1.2879   -2.6201 H   0  0  0  0  0  0  0  0  0  0  0  0
   -2.3724   -1.6369   -2.0109 C   0  0  0  0  0  0  0  0  0  0  0  0
   -2.3409   -2.5194   -1.3651 H   0  0  0  0  0  0  0  0  0  0  0  0
   -2.4725   -1.9969   -3.0406 H   0  0  0  0  0  0  0  0  0  0  0  0
   -3.5609   -0.7257   -1.6948 C   0  0  0  0  0  0  0  0  0  0  0  0
   -3.4830   -0.3613   -0.6618 H   0  0  0  0  0  0  0  0  0  0  0  0
   -3.5136    0.1629   -2.3409 H   0  0  0  0  0  0  0  0  0  0  0  0
   -4.8179   -1.4707   -1.9167 N   0  3  0  0  0  0  0  0  0  0  0  0
   -5.6165   -0.8994   -1.6325 H   0  0  0  0  0  0  0  0  0  0  0  0
   -4.9120   -1.7036   -2.9070 H   0  0  0  0  0  0  0  0  0  0  0  0
   -4.8110   -2.3341   -1.3728 H   0  0  0  0  0  0  0  0  0  0  0  0
   -1.3551    0.6959    1.2257 C   0  0  0  0  0  0  0  0  0  0  0  0
   -2.4345    1.1517    0.8528 O   0  0  0  0  0  0  0  0  0  0  0  0
   -0.5355    1.4428    2.0494 N   0  0  0  0  0  0  0  0  0  0  0  0
    0.3318    1.0199    2.3727 H   0  0  0  0  0  0  0  0  0  0  0  0
   -0.8615    2.7945    2.4935 C   0  0  0  0  0  0  0  0  0  0  0  0
   -1.7923    2.7963    3.0707 H   0  0  0  0  0  0  0  0  0  0  0  0
   -0.0620    3.1878    3.1296 H   0  0  0  0  0  0  0  0  0  0  0  0
   -0.9784    3.4646    1.6350 H   0  0  0  0  0  0  0  0  0  0  0  0
  1  2  1  0  0  0  0
  2  3  1  0  0  0  0
  2  4  1  0  0  0  0
  2  5  1  0  0  0  0
  5  6  2  0  0  0  0
  5  7  1  0  0  0  0
  7  8  1  0  0  0  0
  7  9  1  0  0  0  0
  9 10  1  0  0  0  0
  9 11  1  0  0  0  0
  9 27  1  0  0  0  0
 11 12  1  0  0  0  0
 11 13  1  0  0  0  0
 11 14  1  0  0  0  0
 14 15  1  0  0  0  0
 14 16  1  0  0  0  0
 14 17  1  0  0  0  0
 17 18  1  0  0  0  0
 17 19  1  0  0  0  0
 17 20  1  0  0  0  0
 20 21  1  0  0  0  0
 20 22  1  0  0  0  0
 20 23  1  0  0  0  0
 23 24  1  0  0  0  0
 23 25  1  0  0  0  0
 23 26  1  0  0  0  0
 27 28  2  0  0  0  0
 27 29  1  0  0  0  0
 29 30  1  0  0  0  0
 29 31  1  0  0  0  0
 31 32  1  0  0  0  0
 31 33  1  0  0  0  0
 31 34  1  0  0  0  0
M  CHG  1  23   1
M  END
$$$$

  -OEChem-02102214153D

 34 33  0     1  0  0  0  0  0999 V2000
   -3.1708   -4.2023    2.9402 H   0  0  0  0  0  0  0  0  0  0  0  0
   -3.3896   -3.2073    2.5416 C   0  0  0  0  0  0  0  0  0  0  0  0
   -3.6559   -2.5500    3.3732 H   0  0  0  0  0  0  0  0  0  0  0  0
   -4.2368   -3.2812    1.8567 H   0  0  0  0  0  0  0  0  0  0  0  0
   -2.1751   -2.6602    1.8160 C   0  0  0  0  0  0  0  0  0  0  0  0
   -1.1821   -3.3520    1.6754 O   0  0  0  0  0  0  0  0  0  0  0  0
   -2.1975   -1.3879    1.2821 N   0  0  0  0  0  0  0  0  0  0  0  0
   -2.9916   -0.8091    1.5552 H   0  0  0  0  0  0  0  0  0  0  0  0
   -0.9618   -0.6446    0.9834 C   0  0  1  0  0  0  0  0  0  0  0  0
   -0.1317   -1.0739    1.5565 H   0  0  0  0  0  0  0  0  0  0  0  0
   -0.5123   -0.5623   -0.5033 C   0  0  0  0  0  0  0  0  0  0  0  0
    0.1548    0.2992   -0.6218 H   0  0  0  0  0  0  0  0  0  0  0  0
    0.1136   -1.4502   -0.6467 H   0  0  0  0  0  0  0  0  0  0  0  0
   -1.5014   -0.5716   -1.7011 C   0  0  0  0  0  0  0  0  0  0  0  0
   -1.5312    0.4540   -2.0860 H   0  0  0  0  0  0  0  0  0  0  0  0
   -1.0635   -1.1948   -2.4890 H   0  0  0  0  0  0  0  0  0  0  0  0
   -2.9534   -1.0078   -1.4809 C   0  0  0  0  0  0  0  0  0  0  0  0
   -2.9773   -2.0414   -1.1198 H   0  0  0  0  0  0  0  0  0  0  0  0
   -3.4191   -0.3550   -0.7353 H   0  0  0  0  0  0  0  0  0  0  0  0
   -3.7234   -0.9018   -2.7943 C   0  0  0  0  0  0  0  0  0  0  0  0
   -3.6212    0.1197   -3.1896 H   0  0  0  0  0  0  0  0  0  0  0  0
   -3.2755   -1.5823   -3.5334 H   0  0  0  0  0  0  0  0  0  0  0  0
   -5.1426   -1.2345   -2.5493 N   0  3  0  0  0  0  0  0  0  0  0  0
   -5.5322   -0.5962   -1.8527 H   0  0  0  0  0  0  0  0  0  0  0  0
   -5.6785   -1.1480   -3.4154 H   0  0  0  0  0  0  0  0  0  0  0  0
   -5.2207   -2.1925   -2.2038 H   0  0  0  0  0  0  0  0  0  0  0  0
   -1.1650    0.7917    1.5096 C   0  0  0  0  0  0  0  0  0  0  0  0
   -2.2519    1.3351    1.3314 O   0  0  0  0  0  0  0  0  0  0  0  0
   -0.1803    1.4408    2.2296 N   0  0  0  0  0  0  0  0  0  0  0  0
    0.6879    0.9416    2.4075 H   0  0  0  0  0  0  0  0  0  0  0  0
   -0.3568    2.7681    2.8102 C   0  0  0  0  0  0  0  0  0  0  0  0
   -1.1601    2.7585    3.5547 H   0  0  0  0  0  0  0  0  0  0  0  0
    0.5656    3.0925    3.3023 H   0  0  0  0  0  0  0  0  0  0  0  0
   -0.6064    3.4982    2.0328 H   0  0  0  0  0  0  0  0  0  0  0  0
  1  2  1  0  0  0  0
  2  3  1  0  0  0  0
  2  4  1  0  0  0  0
  2  5  1  0  0  0  0
  5  6  2  0  0  0  0
  5  7  1  0  0  0  0
  7  8  1  0  0  0  0
  7  9  1  0  0  0  0
  9 10  1  0  0  0  0
  9 11  1  0  0  0  0
  9 27  1  0  0  0  0
 11 12  1  0  0  0  0
 11 13  1  0  0  0  0
 11 14  1  0  0  0  0
 14 15  1  0  0  0  0
 14 16  1  0  0  0  0
 14 17  1  0  0  0  0
 17 18  1  0  0  0  0
 17 19  1  0  0  0  0
 17 20  1  0  0  0  0
 20 21  1  0  0  0  0
 20 22  1  0  0  0  0
 20 23  1  0  0  0  0
 23 24  1  0  0  0  0
 23 25  1  0  0  0  0
 23 26  1  0  0  0  0
 27 28  2  0  0  0  0
 27 29  1  0  0  0  0
 29 30  1  0  0  0  0
 29 31  1  0  0  0  0
 31 32  1  0  0  0  0
 31 33  1  0  0  0  0
 31 34  1  0  0  0  0
M  CHG  1  23   1
M  END
$$$$

  -OEChem-02102214153D

 34 33  0     1  0  0  0  0  0999 V2000
   -3.1326   -4.2674    2.8265 H   0  0  0  0  0  0  0  0  0  0  0  0
   -3.3637   -3.2708    2.4391 C   0  0  0  0  0  0  0  0  0  0  0  0
   -3.6706   -2.6350    3.2732 H   0  0  0  0  0  0  0  0  0  0  0  0
   -4.1878   -3.3530    1.7275 H   0  0  0  0  0  0  0  0  0  0  0  0
   -2.1424   -2.6819    1.7594 C   0  0  0  0  0  0  0  0  0  0  0  0
   -1.1250   -3.3429    1.6470 O   0  0  0  0  0  0  0  0  0  0  0  0
   -2.1837   -1.4012    1.2457 N   0  0  0  0  0  0  0  0  0  0  0  0
   -2.9956   -0.8457    1.5116 H   0  0  0  0  0  0  0  0  0  0  0  0
   -0.9606   -0.6312    0.9647 C   0  0  1  0  0  0  0  0  0  0  0  0
   -0.1266   -1.0554    1.5358 H   0  0  0  0  0  0  0  0  0  0  0  0
   -0.5126   -0.5502   -0.5223 C   0  0  0  0  0  0  0  0  0  0  0  0
    0.1173    0.3389   -0.6391 H   0  0  0  0  0  0  0  0  0  0  0  0
    0.1516   -1.4095   -0.6670 H   0  0  0  0  0  0  0  0  0  0  0  0
   -1.5050   -0.5873   -1.7192 C   0  0  0  0  0  0  0  0  0  0  0  0
   -1.3418    0.3361   -2.2864 H   0  0  0  0  0  0  0  0  0  0  0  0
   -1.2117   -1.4164   -2.3732 H   0  0  0  0  0  0  0  0  0  0  0  0
   -3.0102   -0.7071   -1.4456 C   0  0  0  0  0  0  0  0  0  0  0  0
   -3.2408   -1.7036   -1.0559 H   0  0  0  0  0  0  0  0  0  0  0  0
   -3.3032    0.0426   -0.7047 H   0  0  0  0  0  0  0  0  0  0  0  0
   -3.7923   -0.4705   -2.7343 C   0  0  0  0  0  0  0  0  0  0  0  0
   -3.4511    0.4684   -3.1950 H   0  0  0  0  0  0  0  0  0  0  0  0
   -3.5747   -1.2801   -3.4465 H   0  0  0  0  0  0  0  0  0  0  0  0
   -5.2332   -0.4036   -2.4108 N   0  3  0  0  0  0  0  0  0  0  0  0
   -5.3977    0.3358   -1.7238 H   0  0  0  0  0  0  0  0  0  0  0  0
   -5.7746   -0.2003   -3.2534 H   0  0  0  0  0  0  0  0  0  0  0  0
   -5.5450   -1.2944   -2.0209 H   0  0  0  0  0  0  0  0  0  0  0  0
   -1.1752    0.7978    1.5073 C   0  0  0  0  0  0  0  0  0  0  0  0
   -2.2644    1.3391    1.3353 O   0  0  0  0  0  0  0  0  0  0  0  0
   -0.1947    1.4440    2.2357 N   0  0  0  0  0  0  0  0  0  0  0  0
    0.6724    0.9434    2.4164 H   0  0  0  0  0  0  0  0  0  0  0  0
   -0.3808    2.7605    2.8373 C   0  0  0  0  0  0  0  0  0  0  0  0
   -1.1783    2.7312    3.5875 H   0  0  0  0  0  0  0  0  0  0  0  0
    0.5418    3.0879    3.3272 H   0  0  0  0  0  0  0  0  0  0  0  0
   -0.6438    3.4993    2.0728 H   0  0  0  0  0  0  0  0  0  0  0  0
  1  2  1  0  0  0  0
  2  3  1  0  0  0  0
  2  4  1  0  0  0  0
  2  5  1  0  0  0  0
  5  6  2  0  0  0  0
  5  7  1  0  0  0  0
  7  8  1  0  0  0  0
  7  9  1  0  0  0  0
  9 10  1  0  0  0  0
  9 11  1  0  0  0  0
  9 27  1  0  0  0  0
 11 12  1  0  0  0  0
 11 13  1  0  0  0  0
 11 14  1  0  0  0  0
 14 15  1  0  0  0  0
 14 16  1  0  0  0  0
 14 17  1  0  0  0  0
 17 18  1  0  0  0  0
 17 19  1  0  0  0  0
 17 20  1  0  0  0  0
 20 21  1  0  0  0  0
 20 22  1  0  0  0  0
 20 23  1  0  0  0  0
 23 24  1  0  0  0  0
 23 25  1  0  0  0  0
 23 26  1  0  0  0  0
 27 28  2  0  0  0  0
 27 29  1  0  0  0  0
 29 30  1  0  0  0  0
 29 31  1  0  0  0  0
 31 32  1  0  0  0  0
 31 33  1  0  0  0  0
 31 34  1  0  0  0  0
M  CHG  1  23   1
M  END
$$$$

  -OEChem-02102214153D

 34 33  0     1  0  0  0  0  0999 V2000
   -3.1495   -4.2842    2.6909 H   0  0  0  0  0  0  0  0  0  0  0  0
   -3.3866   -3.2850    2.3136 C   0  0  0  0  0  0  0  0  0  0  0  0
   -3.7321   -2.6699    3.1481 H   0  0  0  0  0  0  0  0  0  0  0  0
   -4.1854   -3.3691    1.5736 H   0  0  0  0  0  0  0  0  0  0  0  0
   -2.1558   -2.6624    1.6832 C   0  0  0  0  0  0  0  0  0  0  0  0
   -1.1267   -3.3073    1.5828 O   0  0  0  0  0  0  0  0  0  0  0  0
   -2.2007   -1.3689    1.2020 N   0  0  0  0  0  0  0  0  0  0  0  0
   -3.0207   -0.8278    1.4715 H   0  0  0  0  0  0  0  0  0  0  0  0
   -0.9812   -0.5857    0.9441 C   0  0  1  0  0  0  0  0  0  0  0  0
   -0.1521   -1.0199    1.5144 H   0  0  0  0  0  0  0  0  0  0  0  0
   -0.5276   -0.5296   -0.5414 C   0  0  0  0  0  0  0  0  0  0  0  0
    0.0646    0.3835   -0.6678 H   0  0  0  0  0  0  0  0  0  0  0  0
    0.1691   -1.3640   -0.6797 H   0  0  0  0  0  0  0  0  0  0  0  0
   -1.5257   -0.6022   -1.7312 C   0  0  0  0  0  0  0  0  0  0  0  0
   -1.1902    0.1309   -2.4732 H   0  0  0  0  0  0  0  0  0  0  0  0
   -1.4224   -1.5908   -2.1928 H   0  0  0  0  0  0  0  0  0  0  0  0
   -3.0204   -0.3784   -1.4538 C   0  0  0  0  0  0  0  0  0  0  0  0
   -3.4542   -1.2639   -0.9803 H   0  0  0  0  0  0  0  0  0  0  0  0
   -3.1385    0.4758   -0.7830 H   0  0  0  0  0  0  0  0  0  0  0  0
   -3.7603   -0.0887   -2.7563 C   0  0  0  0  0  0  0  0  0  0  0  0
   -3.2337    0.7102   -3.2989 H   0  0  0  0  0  0  0  0  0  0  0  0
   -3.7428   -0.9829   -3.3967 H   0  0  0  0  0  0  0  0  0  0  0  0
   -5.1427    0.3217   -2.4294 N   0  3  0  0  0  0  0  0  0  0  0  0
   -5.1226    1.1176   -1.7869 H   0  0  0  0  0  0  0  0  0  0  0  0
   -5.6408    0.5934   -3.2794 H   0  0  0  0  0  0  0  0  0  0  0  0
   -5.6405   -0.4504   -1.9834 H   0  0  0  0  0  0  0  0  0  0  0  0
   -1.1743    0.8374    1.5123 C   0  0  0  0  0  0  0  0  0  0  0  0
   -2.2587    1.3967    1.3731 O   0  0  0  0  0  0  0  0  0  0  0  0
   -0.1788    1.4523    2.2474 N   0  0  0  0  0  0  0  0  0  0  0  0
    0.6802    0.9324    2.4121 H   0  0  0  0  0  0  0  0  0  0  0  0
   -0.3446    2.7487    2.8970 C   0  0  0  0  0  0  0  0  0  0  0  0
   -1.1427    2.7047    3.6458 H   0  0  0  0  0  0  0  0  0  0  0  0
    0.5827    3.0424    3.3990 H   0  0  0  0  0  0  0  0  0  0  0  0
   -0.5947    3.5198    2.1605 H   0  0  0  0  0  0  0  0  0  0  0  0
  1  2  1  0  0  0  0
  2  3  1  0  0  0  0
  2  4  1  0  0  0  0
  2  5  1  0  0  0  0
  5  6  2  0  0  0  0
  5  7  1  0  0  0  0
  7  8  1  0  0  0  0
  7  9  1  0  0  0  0
  9 10  1  0  0  0  0
  9 11  1  0  0  0  0
  9 27  1  0  0  0  0
 11 12  1  0  0  0  0
 11 13  1  0  0  0  0
 11 14  1  0  0  0  0
 14 15  1  0  0  0  0
 14 16  1  0  0  0  0
 14 17  1  0  0  0  0
 17 18  1  0  0  0  0
 17 19  1  0  0  0  0
 17 20  1  0  0  0  0
 20 21  1  0  0  0  0
 20 22  1  0  0  0  0
 20 23  1  0  0  0  0
 23 24  1  0  0  0  0
 23 25  1  0  0  0  0
 23 26  1  0  0  0  0
 27 28  2  0  0  0  0
 27 29  1  0  0  0  0
 29 30  1  0  0  0  0
 29 31  1  0  0  0  0
 31 32  1  0  0  0  0
 31 33  1  0  0  0  0
 31 34  1  0  0  0  0
M  CHG  1  23   1
M  END
$$$$

  -OEChem-02102214153D

 34 33  0     1  0  0  0  0  0999 V2000
   -3.2905   -4.2244    2.5702 H   0  0  0  0  0  0  0  0  0  0  0  0
   -3.4833   -3.2026    2.2300 C   0  0  0  0  0  0  0  0  0  0  0  0
   -3.8191   -2.6080    3.0830 H   0  0  0  0  0  0  0  0  0  0  0  0
   -4.2728   -3.2270    1.4758 H   0  0  0  0  0  0  0  0  0  0  0  0
   -2.2195   -2.6032    1.6437 C   0  0  0  0  0  0  0  0  0  0  0  0
   -1.1999   -3.2677    1.5797 O   0  0  0  0  0  0  0  0  0  0  0  0
   -2.2225   -1.3097    1.1600 N   0  0  0  0  0  0  0  0  0  0  0  0
   -3.0393   -0.7507    1.4002 H   0  0  0  0  0  0  0  0  0  0  0  0
   -0.9803   -0.5565    0.9210 C   0  0  1  0  0  0  0  0  0  0  0  0
   -0.1700   -1.0086    1.5042 H   0  0  0  0  0  0  0  0  0  0  0  0
   -0.5182   -0.5441   -0.5613 C   0  0  0  0  0  0  0  0  0  0  0  0
    0.0852    0.3586   -0.7072 H   0  0  0  0  0  0  0  0  0  0  0  0
    0.1626   -1.3932   -0.6881 H   0  0  0  0  0  0  0  0  0  0  0  0
   -1.5334   -0.6179   -1.7323 C   0  0  0  0  0  0  0  0  0  0  0  0
   -1.0673   -0.1424   -2.6023 H   0  0  0  0  0  0  0  0  0  0  0  0
   -1.6772   -1.6754   -1.9817 H   0  0  0  0  0  0  0  0  0  0  0  0
   -2.9249   -0.0067   -1.4984 C   0  0  0  0  0  0  0  0  0  0  0  0
   -2.8032    0.9802   -1.0444 H   0  0  0  0  0  0  0  0  0  0  0  0
   -3.5204   -0.6310   -0.8291 H   0  0  0  0  0  0  0  0  0  0  0  0
   -3.6669    0.1512   -2.8210 C   0  0  0  0  0  0  0  0  0  0  0  0
   -3.0242    0.6881   -3.5341 H   0  0  0  0  0  0  0  0  0  0  0  0
   -3.8712   -0.8413   -3.2492 H   0  0  0  0  0  0  0  0  0  0  0  0
   -4.9146    0.9026   -2.5645 N   0  3  0  0  0  0  0  0  0  0  0  0
   -4.6956    1.7824   -2.0906 H   0  0  0  0  0  0  0  0  0  0  0  0
   -5.3917    1.1082   -3.4446 H   0  0  0  0  0  0  0  0  0  0  0  0
   -5.5361    0.3545   -1.9676 H   0  0  0  0  0  0  0  0  0  0  0  0
   -1.1401    0.8742    1.4810 C   0  0  0  0  0  0  0  0  0  0  0  0
   -2.2086    1.4612    1.3326 O   0  0  0  0  0  0  0  0  0  0  0  0
   -0.1380    1.4633    2.2285 N   0  0  0  0  0  0  0  0  0  0  0  0
    0.7016    0.9179    2.4098 H   0  0  0  0  0  0  0  0  0  0  0  0
   -0.2801    2.7615    2.8804 C   0  0  0  0  0  0  0  0  0  0  0  0
   -1.0842    2.7326    3.6235 H   0  0  0  0  0  0  0  0  0  0  0  0
    0.6501    3.0340    3.3892 H   0  0  0  0  0  0  0  0  0  0  0  0
   -0.5091    3.5395    2.1445 H   0  0  0  0  0  0  0  0  0  0  0  0
  1  2  1  0  0  0  0
  2  3  1  0  0  0  0
  2  4  1  0  0  0  0
  2  5  1  0  0  0  0
  5  6  2  0  0  0  0
  5  7  1  0  0  0  0
  7  8  1  0  0  0  0
  7  9  1  0  0  0  0
  9 10  1  0  0  0  0
  9 11  1  0  0  0  0
  9 27  1  0  0  0  0
 11 12  1  0  0  0  0
 11 13  1  0  0  0  0
 11 14  1  0  0  0  0
 14 15  1  0  0  0  0
 14 16  1  0  0  0  0
 14 17  1  0  0  0  0
 17 18  1  0  0  0  0
 17 19  1  0  0  0  0
 17 20  1  0  0  0  0
 20 21  1  0  0  0  0
 20 22  1  0  0  0  0
 20 23  1  0  0  0  0
 23 24  1  0  0  0  0
 23 25  1  0  0  0  0
 23 26  1  0  0  0  0
 27 28  2  0  0  0  0
 27 29  1  0  0  0  0
 29 30  1  0  0  0  0
 29 31  1  0  0  0  0
 31 32  1  0  0  0  0
 31 33  1  0  0  0  0
 31 34  1  0  0  0  0
M  CHG  1  23   1
M  END
$$$$

  -OEChem-02102214153D

 34 33  0     1  0  0  0  0  0999 V2000
   -3.3798   -4.2268    2.3488 H   0  0  0  0  0  0  0  0  0  0  0  0
   -3.5593   -3.2157    1.9719 C   0  0  0  0  0  0  0  0  0  0  0  0
   -3.9833   -2.6128    2.7787 H   0  0  0  0  0  0  0  0  0  0  0  0
   -4.2755   -3.2701    1.1490 H   0  0  0  0  0  0  0  0  0  0  0  0
   -2.2584   -2.6027    1.4898 C   0  0  0  0  0  0  0  0  0  0  0  0
   -1.2360   -3.2661    1.4789 O   0  0  0  0  0  0  0  0  0  0  0  0
   -2.2303   -1.2986    1.0363 N   0  0  0  0  0  0  0  0  0  0  0  0
   -3.0603   -0.7445    1.2378 H   0  0  0  0  0  0  0  0  0  0  0  0
   -0.9738   -0.5443    0.8835 C   0  0  1  0  0  0  0  0  0  0  0  0
   -0.1931   -1.0144    1.4922 H   0  0  0  0  0  0  0  0  0  0  0  0
   -0.4566   -0.5110   -0.5783 C   0  0  0  0  0  0  0  0  0  0  0  0
    0.1602    0.3859   -0.7008 H   0  0  0  0  0  0  0  0  0  0  0  0
    0.2121   -1.3701   -0.7034 H   0  0  0  0  0  0  0  0  0  0  0  0
   -1.4691   -0.5617   -1.7472 C   0  0  0  0  0  0  0  0  0  0  0  0
   -0.9337   -0.3152   -2.6708 H   0  0  0  0  0  0  0  0  0  0  0  0
   -1.8306   -1.5915   -1.8446 H   0  0  0  0  0  0  0  0  0  0  0  0
   -2.6845    0.3663   -1.5898 C   0  0  0  0  0  0  0  0  0  0  0  0
   -3.3333    0.0275   -0.7794 H   0  0  0  0  0  0  0  0  0  0  0  0
   -2.3240    1.3708   -1.3435 H   0  0  0  0  0  0  0  0  0  0  0  0
   -3.4930    0.4287   -2.8795 C   0  0  0  0  0  0  0  0  0  0  0  0
   -2.8316    0.7117   -3.7115 H   0  0  0  0  0  0  0  0  0  0  0  0
   -3.8972   -0.5684   -3.1079 H   0  0  0  0  0  0  0  0  0  0  0  0
   -4.5707    1.4238   -2.6917 N   0  3  0  0  0  0  0  0  0  0  0  0
   -4.1646    2.3333   -2.4610 H   0  0  0  0  0  0  0  0  0  0  0  0
   -5.1256    1.5124   -3.5450 H   0  0  0  0  0  0  0  0  0  0  0  0
   -5.1802    1.1357   -1.9242 H   0  0  0  0  0  0  0  0  0  0  0  0
   -1.1519    0.8758    1.4639 C   0  0  0  0  0  0  0  0  0  0  0  0
   -2.2004    1.4829    1.2599 O   0  0  0  0  0  0  0  0  0  0  0  0
   -0.1857    1.4388    2.2756 N   0  0  0  0  0  0  0  0  0  0  0  0
    0.6347    0.8780    2.4949 H   0  0  0  0  0  0  0  0  0  0  0  0
   -0.3468    2.7280    2.9403 C   0  0  0  0  0  0  0  0  0  0  0  0
   -1.2086    2.7075    3.6159 H   0  0  0  0  0  0  0  0  0  0  0  0
    0.5456    2.9648    3.5283 H   0  0  0  0  0  0  0  0  0  0  0  0
   -0.4951    3.5251    2.2041 H   0  0  0  0  0  0  0  0  0  0  0  0
  1  2  1  0  0  0  0
  2  3  1  0  0  0  0
  2  4  1  0  0  0  0
  2  5  1  0  0  0  0
  5  6  2  0  0  0  0
  5  7  1  0  0  0  0
  7  8  1  0  0  0  0
  7  9  1  0  0  0  0
  9 10  1  0  0  0  0
  9 11  1  0  0  0  0
  9 27  1  0  0  0  0
 11 12  1  0  0  0  0
 11 13  1  0  0  0  0
 11 14  1  0  0  0  0
 14 15  1  0  0  0  0
 14 16  1  0  0  0  0
 14 17  1  0  0  0  0
 17 18  1  0  0  0  0
 17 19  1  0  0  0  0
 17 20  1  0  0  0  0
 20 21  1  0  0  0  0
 20 22  1  0  0  0  0
 20 23  1  0  0  0  0
 23 24  1  0  0  0  0
 23 25  1  0  0  0  0
 23 26  1  0  0  0  0
 27 28  2  0  0  0  0
 27 29  1  0  0  0  0
 29 30  1  0  0  0  0
 29 31  1  0  0  0  0
 31 32  1  0  0  0  0
 31 33  1  0  0  0  0
 31 34  1  0  0  0  0
M  CHG  1  23   1
M  END
$$$$

  -OEChem-02102214153D

 34 33  0     1  0  0  0  0  0999 V2000
   -3.4609   -4.2094    2.2288 H   0  0  0  0  0  0  0  0  0  0  0  0
   -3.6205   -3.1931    1.8564 C   0  0  0  0  0  0  0  0  0  0  0  0
   -4.0746   -2.5967    2.6514 H   0  0  0  0  0  0  0  0  0  0  0  0
   -4.3023   -3.2346    1.0039 H   0  0  0  0  0  0  0  0  0  0  0  0
   -2.2987   -2.5801    1.4358 C   0  0  0  0  0  0  0  0  0  0  0  0
   -1.2754   -3.2411    1.4779 O   0  0  0  0  0  0  0  0  0  0  0  0
   -2.2512   -1.2772    0.9807 N   0  0  0  0  0  0  0  0  0  0  0  0
   -3.0949   -0.7263    1.1255 H   0  0  0  0  0  0  0  0  0  0  0  0
   -0.9913   -0.5212    0.8644 C   0  0  1  0  0  0  0  0  0  0  0  0
   -0.2317   -0.9928    1.4984 H   0  0  0  0  0  0  0  0  0  0  0  0
   -0.4344   -0.5140   -0.5813 C   0  0  0  0  0  0  0  0  0  0  0  0
    0.1958    0.3716   -0.7181 H   0  0  0  0  0  0  0  0  0  0  0  0
    0.2220   -1.3864   -0.6766 H   0  0  0  0  0  0  0  0  0  0  0  0
   -1.4535   -0.5933   -1.7385 C   0  0  0  0  0  0  0  0  0  0  0  0
   -0.8928   -0.5937   -2.6798 H   0  0  0  0  0  0  0  0  0  0  0  0
   -1.9993   -1.5420   -1.6849 H   0  0  0  0  0  0  0  0  0  0  0  0
   -2.4455    0.5771   -1.7380 C   0  0  0  0  0  0  0  0  0  0  0  0
   -3.1452    0.4620   -0.9055 H   0  0  0  0  0  0  0  0  0  0  0  0
   -1.8951    1.5142   -1.5976 H   0  0  0  0  0  0  0  0  0  0  0  0
   -3.2328    0.6385   -3.0405 C   0  0  0  0  0  0  0  0  0  0  0  0
   -2.5360    0.7195   -3.8877 H   0  0  0  0  0  0  0  0  0  0  0  0
   -3.7982   -0.2958   -3.1704 H   0  0  0  0  0  0  0  0  0  0  0  0
   -4.1322    1.8103   -2.9696 N   0  3  0  0  0  0  0  0  0  0  0  0
   -3.5800    2.6656   -2.8786 H   0  0  0  0  0  0  0  0  0  0  0  0
   -4.7055    1.8707   -3.8132 H   0  0  0  0  0  0  0  0  0  0  0  0
   -4.7432    1.7294   -2.1542 H   0  0  0  0  0  0  0  0  0  0  0  0
   -1.1602    0.9070    1.4289 C   0  0  0  0  0  0  0  0  0  0  0  0
   -2.1803    1.5436    1.1796 O   0  0  0  0  0  0  0  0  0  0  0  0
   -0.2025    1.4577    2.2591 N   0  0  0  0  0  0  0  0  0  0  0  0
    0.5929    0.8767    2.5145 H   0  0  0  0  0  0  0  0  0  0  0  0
   -0.3487    2.7596    2.9023 C   0  0  0  0  0  0  0  0  0  0  0  0
   -1.2201    2.7653    3.5658 H   0  0  0  0  0  0  0  0  0  0  0  0
    0.5401    2.9893    3.4986 H   0  0  0  0  0  0  0  0  0  0  0  0
   -0.4715    3.5481    2.1524 H   0  0  0  0  0  0  0  0  0  0  0  0
  1  2  1  0  0  0  0
  2  3  1  0  0  0  0
  2  4  1  0  0  0  0
  2  5  1  0  0  0  0
  5  6  2  0  0  0  0
  5  7  1  0  0  0  0
  7  8  1  0  0  0  0
  7  9  1  0  0  0  0
  9 10  1  0  0  0  0
  9 11  1  0  0  0  0
  9 27  1  0  0  0  0
 11 12  1  0  0  0  0
 11 13  1  0  0  0  0
 11 14  1  0  0  0  0
 14 15  1  0  0  0  0
 14 16  1  0  0  0  0
 14 17  1  0  0  0  0
 17 18  1  0  0  0  0
 17 19  1  0  0  0  0
 17 20  1  0  0  0  0
 20 21  1  0  0  0  0
 20 22  1  0  0  0  0
 20 23  1  0  0  0  0
 23 24  1  0  0  0  0
 23 25  1  0  0  0  0
 23 26  1  0  0  0  0
 27 28  2  0  0  0  0
 27 29  1  0  0  0  0
 29 30  1  0  0  0  0
 29 31  1  0  0  0  0
 31 32  1  0  0  0  0
 31 33  1  0  0  0  0
 31 34  1  0  0  0  0
M  CHG  1  23   1
M  END
$$$$

  -OEChem-02102214153D

 34 33  0     1  0  0  0  0  0999 V2000
   -3.5247   -4.1774    2.1875 H   0  0  0  0  0  0  0  0  0  0  0  0
   -3.6696   -3.1616    1.8080 C   0  0  0  0  0  0  0  0  0  0  0  0
   -4.1378   -2.5601    2.5909 H   0  0  0  0  0  0  0  0  0  0  0  0
   -4.3324   -3.2015    0.9407 H   0  0  0  0  0  0  0  0  0  0  0  0
   -2.3347   -2.5580    1.4152 C   0  0  0  0  0  0  0  0  0  0  0  0
   -1.3169   -3.2254    1.4836 O   0  0  0  0  0  0  0  0  0  0  0  0
   -2.2663   -1.2562    0.9588 N   0  0  0  0  0  0  0  0  0  0  0  0
   -3.1119   -0.6991    1.0666 H   0  0  0  0  0  0  0  0  0  0  0  0
   -0.9986   -0.5123    0.8551 C   0  0  1  0  0  0  0  0  0  0  0  0
   -0.2519   -0.9914    1.4988 H   0  0  0  0  0  0  0  0  0  0  0  0
   -0.4214   -0.5093   -0.5827 C   0  0  0  0  0  0  0  0  0  0  0  0
    0.2365    0.3567   -0.7145 H   0  0  0  0  0  0  0  0  0  0  0  0
    0.2116   -1.4001   -0.6642 H   0  0  0  0  0  0  0  0  0  0  0  0
   -1.4316   -0.5813   -1.7485 C   0  0  0  0  0  0  0  0  0  0  0  0
   -0.8701   -0.8275   -2.6567 H   0  0  0  0  0  0  0  0  0  0  0  0
   -2.1517   -1.3910   -1.5914 H   0  0  0  0  0  0  0  0  0  0  0  0
   -2.1582    0.7512   -1.9670 C   0  0  0  0  0  0  0  0  0  0  0  0
   -2.8470    0.9231   -1.1363 H   0  0  0  0  0  0  0  0  0  0  0  0
   -1.4293    1.5689   -1.9843 H   0  0  0  0  0  0  0  0  0  0  0  0
   -2.9521    0.7374   -3.2676 C   0  0  0  0  0  0  0  0  0  0  0  0
   -2.2689    0.5769   -4.1145 H   0  0  0  0  0  0  0  0  0  0  0  0
   -3.6586   -0.1056   -3.2540 H   0  0  0  0  0  0  0  0  0  0  0  0
   -3.6602    2.0307   -3.3805 N   0  3  0  0  0  0  0  0  0  0  0  0
   -2.9831    2.7932   -3.4460 H   0  0  0  0  0  0  0  0  0  0  0  0
   -4.2544    2.0392   -4.2117 H   0  0  0  0  0  0  0  0  0  0  0  0
   -4.2411    2.1800   -2.5523 H   0  0  0  0  0  0  0  0  0  0  0  0
   -1.1556    0.9184    1.4142 C   0  0  0  0  0  0  0  0  0  0  0  0
   -2.1596    1.5710    1.1455 O   0  0  0  0  0  0  0  0  0  0  0  0
   -0.1991    1.4587    2.2529 N   0  0  0  0  0  0  0  0  0  0  0  0
    0.5747    0.8602    2.5332 H   0  0  0  0  0  0  0  0  0  0  0  0
   -0.3426    2.7582    2.9017 C   0  0  0  0  0  0  0  0  0  0  0  0
   -1.2169    2.7637    3.5616 H   0  0  0  0  0  0  0  0  0  0  0  0
    0.5448    2.9819    3.5026 H   0  0  0  0  0  0  0  0  0  0  0  0
   -0.4602    3.5511    2.1554 H   0  0  0  0  0  0  0  0  0  0  0  0
  1  2  1  0  0  0  0
  2  3  1  0  0  0  0
  2  4  1  0  0  0  0
  2  5  1  0  0  0  0
  5  6  2  0  0  0  0
  5  7  1  0  0  0  0
  7  8  1  0  0  0  0
  7  9  1  0  0  0  0
  9 10  1  0  0  0  0
  9 11  1  0  0  0  0
  9 27  1  0  0  0  0
 11 12  1  0  0  0  0
 11 13  1  0  0  0  0
 11 14  1  0  0  0  0
 14 15  1  0  0  0  0
 14 16  1  0  0  0  0
 14 17  1  0  0  0  0
 17 18  1  0  0  0  0
 17 19  1  0  0  0  0
 17 20  1  0  0  0  0
 20 21  1  0  0  0  0
 20 22  1  0  0  0  0
 20 23  1  0  0  0  0
 23 24  1  0  0  0  0
 23 25  1  0  0  0  0
 23 26  1  0  0  0  0
 27 28  2  0  0  0  0
 27 29  1  0  0  0  0
 29 30  1  0  0  0  0
 29 31  1  0  0  0  0
 31 32  1  0  0  0  0
 31 33  1  0  0  0  0
 31 34  1  0  0  0  0
M  CHG  1  23   1
M  END
$$$$

  -OEChem-02102214153D

 34 33  0     1  0  0  0  0  0999 V2000
   -3.6190   -4.1296    2.1268 H   0  0  0  0  0  0  0  0  0  0  0  0
   -3.7309   -3.1137    1.7366 C   0  0  0  0  0  0  0  0  0  0  0  0
   -4.2111   -2.4965    2.5000 H   0  0  0  0  0  0  0  0  0  0  0  0
   -4.3665   -3.1460    0.8487 H   0  0  0  0  0  0  0  0  0  0  0  0
   -2.3721   -2.5402    1.3840 C   0  0  0  0  0  0  0  0  0  0  0  0
   -1.3678   -3.2196    1.5110 O   0  0  0  0  0  0  0  0  0  0  0  0
   -2.2656   -1.2496    0.9048 N   0  0  0  0  0  0  0  0  0  0  0  0
   -3.1067   -0.6775    0.9642 H   0  0  0  0  0  0  0  0  0  0  0  0
   -0.9836   -0.5273    0.8320 C   0  0  1  0  0  0  0  0  0  0  0  0
   -0.2630   -1.0019    1.5083 H   0  0  0  0  0  0  0  0  0  0  0  0
   -0.3559   -0.5348   -0.5861 C   0  0  0  0  0  0  0  0  0  0  0  0
    0.3340    0.3090   -0.6944 H   0  0  0  0  0  0  0  0  0  0  0  0
    0.2538   -1.4437   -0.6391 H   0  0  0  0  0  0  0  0  0  0  0  0
   -1.3238   -0.5919   -1.7901 C   0  0  0  0  0  0  0  0  0  0  0  0
   -0.8061   -1.0919   -2.6162 H   0  0  0  0  0  0  0  0  0  0  0  0
   -2.2091   -1.1937   -1.5665 H   0  0  0  0  0  0  0  0  0  0  0  0
   -1.7252    0.8139   -2.2538 C   0  0  0  0  0  0  0  0  0  0  0  0
   -2.1908    1.3497   -1.4243 H   0  0  0  0  0  0  0  0  0  0  0  0
   -0.8316    1.3705   -2.5568 H   0  0  0  0  0  0  0  0  0  0  0  0
   -2.7131    0.7380   -3.4121 C   0  0  0  0  0  0  0  0  0  0  0  0
   -2.2252    0.2757   -4.2826 H   0  0  0  0  0  0  0  0  0  0  0  0
   -3.5544    0.0899   -3.1267 H   0  0  0  0  0  0  0  0  0  0  0  0
   -3.1786    2.1089   -3.7123 N   0  3  0  0  0  0  0  0  0  0  0  0
   -2.3895    2.6890   -4.0029 H   0  0  0  0  0  0  0  0  0  0  0  0
   -3.8740    2.0915   -4.4610 H   0  0  0  0  0  0  0  0  0  0  0  0
   -3.5993    2.5208   -2.8758 H   0  0  0  0  0  0  0  0  0  0  0  0
   -1.1638    0.9110    1.3610 C   0  0  0  0  0  0  0  0  0  0  0  0
   -2.1590    1.5545    1.0407 O   0  0  0  0  0  0  0  0  0  0  0  0
   -0.2436    1.4661    2.2297 N   0  0  0  0  0  0  0  0  0  0  0  0
    0.5139    0.8704    2.5565 H   0  0  0  0  0  0  0  0  0  0  0  0
   -0.4214    2.7711    2.8578 C   0  0  0  0  0  0  0  0  0  0  0  0
   -1.3147    2.7740    3.4916 H   0  0  0  0  0  0  0  0  0  0  0  0
    0.4452    3.0129    3.4815 H   0  0  0  0  0  0  0  0  0  0  0  0
   -0.5260    3.5531    2.0983 H   0  0  0  0  0  0  0  0  0  0  0  0
  1  2  1  0  0  0  0
  2  3  1  0  0  0  0
  2  4  1  0  0  0  0
  2  5  1  0  0  0  0
  5  6  2  0  0  0  0
  5  7  1  0  0  0  0
  7  8  1  0  0  0  0
  7  9  1  0  0  0  0
  9 10  1  0  0  0  0
  9 11  1  0  0  0  0
  9 27  1  0  0  0  0
 11 12  1  0  0  0  0
 11 13  1  0  0  0  0
 11 14  1  0  0  0  0
 14 15  1  0  0  0  0
 14 16  1  0  0  0  0
 14 17  1  0  0  0  0
 17 18  1  0  0  0  0
 17 19  1  0  0  0  0
 17 20  1  0  0  0  0
 20 21  1  0  0  0  0
 20 22  1  0  0  0  0
 20 23  1  0  0  0  0
 23 24  1  0  0  0  0
 23 25  1  0  0  0  0
 23 26  1  0  0  0  0
 27 28  2  0  0  0  0
 27 29  1  0  0  0  0
 29 30  1  0  0  0  0
 29 31  1  0  0  0  0
 31 32  1  0  0  0  0
 31 33  1  0  0  0  0
 31 34  1  0  0  0  0
M  CHG  1  23   1
M  END
$$$$

  -OEChem-02102214153D

 34 33  0     1  0  0  0  0  0999 V2000
   -3.6572   -4.1207    2.2096 H   0  0  0  0  0  0  0  0  0  0  0  0
   -3.7501   -3.1401    1.7335 C   0  0  0  0  0  0  0  0  0  0  0  0
   -4.2902   -2.4732    2.4099 H   0  0  0  0  0  0  0  0  0  0  0  0
   -4.3198   -3.2518    0.8079 H   0  0  0  0  0  0  0  0  0  0  0  0
   -2.3750   -2.5744    1.4328 C   0  0  0  0  0  0  0  0  0  0  0  0
   -1.3766   -3.2384    1.6530 O   0  0  0  0  0  0  0  0  0  0  0  0
   -2.2466   -1.3096    0.8939 N   0  0  0  0  0  0  0  0  0  0  0  0
   -3.0915   -0.7409    0.8673 H   0  0  0  0  0  0  0  0  0  0  0  0
   -0.9615   -0.5917    0.8212 C   0  0  1  0  0  0  0  0  0  0  0  0
   -0.2440   -1.0364    1.5200 H   0  0  0  0  0  0  0  0  0  0  0  0
   -0.3254   -0.5971   -0.5925 C   0  0  0  0  0  0  0  0  0  0  0  0
    0.3750    0.2394   -0.6926 H   0  0  0  0  0  0  0  0  0  0  0  0
    0.2777   -1.5103   -0.6452 H   0  0  0  0  0  0  0  0  0  0  0  0
   -1.2951   -0.6465   -1.7970 C   0  0  0  0  0  0  0  0  0  0  0  0
   -0.9100   -1.3679   -2.5260 H   0  0  0  0  0  0  0  0  0  0  0  0
   -2.2925   -0.9893   -1.5119 H   0  0  0  0  0  0  0  0  0  0  0  0
   -1.3813    0.7318   -2.4653 C   0  0  0  0  0  0  0  0  0  0  0  0
   -1.6267    1.4831   -1.7079 H   0  0  0  0  0  0  0  0  0  0  0  0
   -0.4091    0.9932   -2.8972 H   0  0  0  0  0  0  0  0  0  0  0  0
   -2.4562    0.7384   -3.5464 C   0  0  0  0  0  0  0  0  0  0  0  0
   -2.1655    0.0556   -4.3583 H   0  0  0  0  0  0  0  0  0  0  0  0
   -3.3972    0.3591   -3.1217 H   0  0  0  0  0  0  0  0  0  0  0  0
   -2.6175    2.1256   -4.0314 N   0  3  0  0  0  0  0  0  0  0  0  0
   -1.7403    2.4588   -4.4350 H   0  0  0  0  0  0  0  0  0  0  0  0
   -3.3503    2.1692   -4.7422 H   0  0  0  0  0  0  0  0  0  0  0  0
   -2.8744    2.7347   -3.2507 H   0  0  0  0  0  0  0  0  0  0  0  0
   -1.1771    0.8664    1.2759 C   0  0  0  0  0  0  0  0  0  0  0  0
   -2.1313    1.4988    0.8302 O   0  0  0  0  0  0  0  0  0  0  0  0
   -0.2963    1.4785    2.1471 N   0  0  0  0  0  0  0  0  0  0  0  0
    0.4382    0.9037    2.5541 H   0  0  0  0  0  0  0  0  0  0  0  0
   -0.4952    2.8263    2.6698 C   0  0  0  0  0  0  0  0  0  0  0  0
   -1.4351    2.8863    3.2291 H   0  0  0  0  0  0  0  0  0  0  0  0
    0.3244    3.0962    3.3433 H   0  0  0  0  0  0  0  0  0  0  0  0
   -0.5233    3.5564    1.8540 H   0  0  0  0  0  0  0  0  0  0  0  0
  1  2  1  0  0  0  0
  2  3  1  0  0  0  0
  2  4  1  0  0  0  0
  2  5  1  0  0  0  0
  5  6  2  0  0  0  0
  5  7  1  0  0  0  0
  7  8  1  0  0  0  0
  7  9  1  0  0  0  0
  9 10  1  0  0  0  0
  9 11  1  0  0  0  0
  9 27  1  0  0  0  0
 11 12  1  0  0  0  0
 11 13  1  0  0  0  0
 11 14  1  0  0  0  0
 14 15  1  0  0  0  0
 14 16  1  0  0  0  0
 14 17  1  0  0  0  0
 17 18  1  0  0  0  0
 17 19  1  0  0  0  0
 17 20  1  0  0  0  0
 20 21  1  0  0  0  0
 20 22  1  0  0  0  0
 20 23  1  0  0  0  0
 23 24  1  0  0  0  0
 23 25  1  0  0  0  0
 23 26  1  0  0  0  0
 27 28  2  0  0  0  0
 27 29  1  0  0  0  0
 29 30  1  0  0  0  0
 29 31  1  0  0  0  0
 31 32  1  0  0  0  0
 31 33  1  0  0  0  0
 31 34  1  0  0  0  0
M  CHG  1  23   1
M  END
$$$$

  -OEChem-02102214153D

 34 33  0     1  0  0  0  0  0999 V2000
   -3.6675   -4.1335    2.2085 H   0  0  0  0  0  0  0  0  0  0  0  0
   -3.7532   -3.1450    1.7476 C   0  0  0  0  0  0  0  0  0  0  0  0
   -4.2899   -2.4847    2.4330 H   0  0  0  0  0  0  0  0  0  0  0  0
   -4.3215   -3.2384    0.8193 H   0  0  0  0  0  0  0  0  0  0  0  0
   -2.3742   -2.5840    1.4586 C   0  0  0  0  0  0  0  0  0  0  0  0
   -1.3789   -3.2429    1.7077 O   0  0  0  0  0  0  0  0  0  0  0  0
   -2.2371   -1.3292    0.8999 N   0  0  0  0  0  0  0  0  0  0  0  0
   -3.0809   -0.7608    0.8434 H   0  0  0  0  0  0  0  0  0  0  0  0
   -0.9487   -0.6178    0.8267 C   0  0  1  0  0  0  0  0  0  0  0  0
   -0.2283   -1.0570    1.5257 H   0  0  0  0  0  0  0  0  0  0  0  0
   -0.3275   -0.6233   -0.5920 C   0  0  0  0  0  0  0  0  0  0  0  0
    0.3638    0.2211   -0.6906 H   0  0  0  0  0  0  0  0  0  0  0  0
    0.2845   -1.5291   -0.6636 H   0  0  0  0  0  0  0  0  0  0  0  0
   -1.3235   -0.6614   -1.7769 C   0  0  0  0  0  0  0  0  0  0  0  0
   -1.1486   -1.5691   -2.3656 H   0  0  0  0  0  0  0  0  0  0  0  0
   -2.3614   -0.6908   -1.4360 H   0  0  0  0  0  0  0  0  0  0  0  0
   -1.1406    0.5781   -2.6603 C   0  0  0  0  0  0  0  0  0  0  0  0
   -1.2308    1.4743   -2.0351 H   0  0  0  0  0  0  0  0  0  0  0  0
   -0.1394    0.5708   -3.1052 H   0  0  0  0  0  0  0  0  0  0  0  0
   -2.2044    0.6094   -3.7527 C   0  0  0  0  0  0  0  0  0  0  0  0
   -2.0687   -0.2544   -4.4198 H   0  0  0  0  0  0  0  0  0  0  0  0
   -3.1975    0.5112   -3.2900 H   0  0  0  0  0  0  0  0  0  0  0  0
   -2.0893    1.8867   -4.4879 N   0  3  0  0  0  0  0  0  0  0  0  0
   -1.1586    1.9698   -4.9007 H   0  0  0  0  0  0  0  0  0  0  0  0
   -2.7892    1.9303   -5.2312 H   0  0  0  0  0  0  0  0  0  0  0  0
   -2.2378    2.6683   -3.8455 H   0  0  0  0  0  0  0  0  0  0  0  0
   -1.1648    0.8474    1.2556 C   0  0  0  0  0  0  0  0  0  0  0  0
   -2.0822    1.4871    0.7484 O   0  0  0  0  0  0  0  0  0  0  0  0
   -0.2913    1.4715    2.1258 N   0  0  0  0  0  0  0  0  0  0  0  0
    0.4151    0.8938    2.5762 H   0  0  0  0  0  0  0  0  0  0  0  0
   -0.4838    2.8356    2.6068 C   0  0  0  0  0  0  0  0  0  0  0  0
   -1.4266    2.9184    3.1581 H   0  0  0  0  0  0  0  0  0  0  0  0
    0.3338    3.1202    3.2766 H   0  0  0  0  0  0  0  0  0  0  0  0
   -0.5024    3.5411    1.7694 H   0  0  0  0  0  0  0  0  0  0  0  0
  1  2  1  0  0  0  0
  2  3  1  0  0  0  0
  2  4  1  0  0  0  0
  2  5  1  0  0  0  0
  5  6  2  0  0  0  0
  5  7  1  0  0  0  0
  7  8  1  0  0  0  0
  7  9  1  0  0  0  0
  9 10  1  0  0  0  0
  9 11  1  0  0  0  0
  9 27  1  0  0  0  0
 11 12  1  0  0  0  0
 11 13  1  0  0  0  0
 11 14  1  0  0  0  0
 14 15  1  0  0  0  0
 14 16  1  0  0  0  0
 14 17  1  0  0  0  0
 17 18  1  0  0  0  0
 17 19  1  0  0  0  0
 17 20  1  0  0  0  0
 20 21  1  0  0  0  0
 20 22  1  0  0  0  0
 20 23  1  0  0  0  0
 23 24  1  0  0  0  0
 23 25  1  0  0  0  0
 23 26  1  0  0  0  0
 27 28  2  0  0  0  0
 27 29  1  0  0  0  0
 29 30  1  0  0  0  0
 29 31  1  0  0  0  0
 31 32  1  0  0  0  0
 31 33  1  0  0  0  0
 31 34  1  0  0  0  0
M  CHG  1  23   1
M  END
$$$$

  -OEChem-02102214153D

 34 33  0     1  0  0  0  0  0999 V2000
   -3.6829   -4.1107    2.1876 H   0  0  0  0  0  0  0  0  0  0  0  0
   -3.7595   -3.1239    1.7221 C   0  0  0  0  0  0  0  0  0  0  0  0
   -4.2934   -2.4562    2.4027 H   0  0  0  0  0  0  0  0  0  0  0  0
   -4.3262   -3.2170    0.7929 H   0  0  0  0  0  0  0  0  0  0  0  0
   -2.3754   -2.5747    1.4337 C   0  0  0  0  0  0  0  0  0  0  0  0
   -1.3860   -3.2494    1.6636 O   0  0  0  0  0  0  0  0  0  0  0  0
   -2.2288   -1.3131    0.8933 N   0  0  0  0  0  0  0  0  0  0  0  0
   -3.0686   -0.7372    0.8479 H   0  0  0  0  0  0  0  0  0  0  0  0
   -0.9365   -0.6065    0.8321 C   0  0  1  0  0  0  0  0  0  0  0  0
   -0.2193   -1.0591    1.5260 H   0  0  0  0  0  0  0  0  0  0  0  0
   -0.3232   -0.6153   -0.5885 C   0  0  0  0  0  0  0  0  0  0  0  0
    0.3469    0.2457   -0.6876 H   0  0  0  0  0  0  0  0  0  0  0  0
    0.3032   -1.5096   -0.6774 H   0  0  0  0  0  0  0  0  0  0  0  0
   -1.3438   -0.6460   -1.7495 C   0  0  0  0  0  0  0  0  0  0  0  0
   -1.4050   -1.6618   -2.1558 H   0  0  0  0  0  0  0  0  0  0  0  0
   -2.3412   -0.3691   -1.3941 H   0  0  0  0  0  0  0  0  0  0  0  0
   -0.9539    0.3581   -2.8398 C   0  0  0  0  0  0  0  0  0  0  0  0
   -0.8850    1.3585   -2.3966 H   0  0  0  0  0  0  0  0  0  0  0  0
    0.0289    0.0944   -3.2458 H   0  0  0  0  0  0  0  0  0  0  0  0
   -2.0001    0.3599   -3.9506 C   0  0  0  0  0  0  0  0  0  0  0  0
   -2.0463   -0.6394   -4.4080 H   0  0  0  0  0  0  0  0  0  0  0  0
   -2.9891    0.5637   -3.5136 H   0  0  0  0  0  0  0  0  0  0  0  0
   -1.6378    1.3918   -4.9459 N   0  3  0  0  0  0  0  0  0  0  0  0
   -0.7166    1.1895   -5.3390 H   0  0  0  0  0  0  0  0  0  0  0  0
   -2.3260    1.4091   -5.7016 H   0  0  0  0  0  0  0  0  0  0  0  0
   -1.6131    2.3107   -4.4985 H   0  0  0  0  0  0  0  0  0  0  0  0
   -1.1414    0.8548    1.2802 C   0  0  0  0  0  0  0  0  0  0  0  0
   -2.0660    1.5003    0.7960 O   0  0  0  0  0  0  0  0  0  0  0  0
   -0.2649    1.4630    2.1588 N   0  0  0  0  0  0  0  0  0  0  0  0
    0.4417    0.8781    2.5989 H   0  0  0  0  0  0  0  0  0  0  0  0
   -0.4503    2.8227    2.6551 C   0  0  0  0  0  0  0  0  0  0  0  0
   -1.3948    2.9054    3.2037 H   0  0  0  0  0  0  0  0  0  0  0  0
    0.3665    3.0943    3.3314 H   0  0  0  0  0  0  0  0  0  0  0  0
   -0.4615    3.5377    1.8256 H   0  0  0  0  0  0  0  0  0  0  0  0
  1  2  1  0  0  0  0
  2  3  1  0  0  0  0
  2  4  1  0  0  0  0
  2  5  1  0  0  0  0
  5  6  2  0  0  0  0
  5  7  1  0  0  0  0
  7  8  1  0  0  0  0
  7  9  1  0  0  0  0
  9 10  1  0  0  0  0
  9 11  1  0  0  0  0
  9 27  1  0  0  0  0
 11 12  1  0  0  0  0
 11 13  1  0  0  0  0
 11 14  1  0  0  0  0
 14 15  1  0  0  0  0
 14 16  1  0  0  0  0
 14 17  1  0  0  0  0
 17 18  1  0  0  0  0
 17 19  1  0  0  0  0
 17 20  1  0  0  0  0
 20 21  1  0  0  0  0
 20 22  1  0  0  0  0
 20 23  1  0  0  0  0
 23 24  1  0  0  0  0
 23 25  1  0  0  0  0
 23 26  1  0  0  0  0
 27 28  2  0  0  0  0
 27 29  1  0  0  0  0
 29 30  1  0  0  0  0
 29 31  1  0  0  0  0
 31 32  1  0  0  0  0
 31 33  1  0  0  0  0
 31 34  1  0  0  0  0
M  CHG  1  23   1
M  END
$$$$

  -OEChem-02102214153D

 34 33  0     1  0  0  0  0  0999 V2000
   -3.6961   -4.0896    2.1445 H   0  0  0  0  0  0  0  0  0  0  0  0
   -3.7688   -3.0995    1.6851 C   0  0  0  0  0  0  0  0  0  0  0  0
   -4.2974   -2.4334    2.3714 H   0  0  0  0  0  0  0  0  0  0  0  0
   -4.3386   -3.1836    0.7568 H   0  0  0  0  0  0  0  0  0  0  0  0
   -2.3827   -2.5554    1.3975 C   0  0  0  0  0  0  0  0  0  0  0  0
   -1.3974   -3.2440    1.6031 O   0  0  0  0  0  0  0  0  0  0  0  0
   -2.2288   -1.2869    0.8760 N   0  0  0  0  0  0  0  0  0  0  0  0
   -3.0646   -0.7041    0.8453 H   0  0  0  0  0  0  0  0  0  0  0  0
   -0.9335   -0.5844    0.8333 C   0  0  1  0  0  0  0  0  0  0  0  0
   -0.2257   -1.0487    1.5290 H   0  0  0  0  0  0  0  0  0  0  0  0
   -0.3135   -0.6048   -0.5831 C   0  0  0  0  0  0  0  0  0  0  0  0
    0.3436    0.2654   -0.6882 H   0  0  0  0  0  0  0  0  0  0  0  0
    0.3193   -1.4944   -0.6710 H   0  0  0  0  0  0  0  0  0  0  0  0
   -1.3438   -0.6380   -1.7303 C   0  0  0  0  0  0  0  0  0  0  0  0
   -1.6182   -1.6766   -1.9469 H   0  0  0  0  0  0  0  0  0  0  0  0
   -2.2523   -0.1062   -1.4265 H   0  0  0  0  0  0  0  0  0  0  0  0
   -0.7919    0.0567   -2.9794 C   0  0  0  0  0  0  0  0  0  0  0  0
   -0.5318    1.0922   -2.7320 H   0  0  0  0  0  0  0  0  0  0  0  0
    0.1190   -0.4561   -3.3079 H   0  0  0  0  0  0  0  0  0  0  0  0
   -1.8375    0.0391   -4.0912 C   0  0  0  0  0  0  0  0  0  0  0  0
   -2.0890   -1.0033   -4.3360 H   0  0  0  0  0  0  0  0  0  0  0  0
   -2.7584    0.5186   -3.7274 H   0  0  0  0  0  0  0  0  0  0  0  0
   -1.2976    0.7510   -5.2696 N   0  3  0  0  0  0  0  0  0  0  0  0
   -0.4420    0.2946   -5.5914 H   0  0  0  0  0  0  0  0  0  0  0  0
   -1.9826    0.7460   -6.0284 H   0  0  0  0  0  0  0  0  0  0  0  0
   -1.0838    1.7194   -5.0224 H   0  0  0  0  0  0  0  0  0  0  0  0
   -1.1261    0.8735    1.2991 C   0  0  0  0  0  0  0  0  0  0  0  0
   -2.0562    1.5261    0.8375 O   0  0  0  0  0  0  0  0  0  0  0  0
   -0.2483    1.4629    2.1896 N   0  0  0  0  0  0  0  0  0  0  0  0
    0.4650    0.8720    2.6100 H   0  0  0  0  0  0  0  0  0  0  0  0
   -0.4272    2.8157    2.7074 C   0  0  0  0  0  0  0  0  0  0  0  0
   -1.3730    2.8958    3.2540 H   0  0  0  0  0  0  0  0  0  0  0  0
    0.3887    3.0714    3.3908 H   0  0  0  0  0  0  0  0  0  0  0  0
   -0.4311    3.5442    1.8897 H   0  0  0  0  0  0  0  0  0  0  0  0
  1  2  1  0  0  0  0
  2  3  1  0  0  0  0
  2  4  1  0  0  0  0
  2  5  1  0  0  0  0
  5  6  2  0  0  0  0
  5  7  1  0  0  0  0
  7  8  1  0  0  0  0
  7  9  1  0  0  0  0
  9 10  1  0  0  0  0
  9 11  1  0  0  0  0
  9 27  1  0  0  0  0
 11 12  1  0  0  0  0
 11 13  1  0  0  0  0
 11 14  1  0  0  0  0
 14 15  1  0  0  0  0
 14 16  1  0  0  0  0
 14 17  1  0  0  0  0
 17 18  1  0  0  0  0
 17 19  1  0  0  0  0
 17 20  1  0  0  0  0
 20 21  1  0  0  0  0
 20 22  1  0  0  0  0
 20 23  1  0  0  0  0
 23 24  1  0  0  0  0
 23 25  1  0  0  0  0
 23 26  1  0  0  0  0
 27 28  2  0  0  0  0
 27 29  1  0  0  0  0
 29 30  1  0  0  0  0
 29 31  1  0  0  0  0
 31 32  1  0  0  0  0
 31 33  1  0  0  0  0
 31 34  1  0  0  0  0
M  CHG  1  23   1
M  END
$$$$

  -OEChem-02102214153D

 34 33  0     1  0  0  0  0  0999 V2000
   -3.7091   -4.0718    2.1332 H   0  0  0  0  0  0  0  0  0  0  0  0
   -3.7797   -3.0806    1.6760 C   0  0  0  0  0  0  0  0  0  0  0  0
   -4.3030   -2.4137    2.3656 H   0  0  0  0  0  0  0  0  0  0  0  0
   -4.3536   -3.1601    0.7499 H   0  0  0  0  0  0  0  0  0  0  0  0
   -2.3921   -2.5427    1.3835 C   0  0  0  0  0  0  0  0  0  0  0  0
   -1.4098   -3.2411    1.5704 O   0  0  0  0  0  0  0  0  0  0  0  0
   -2.2330   -1.2717    0.8706 N   0  0  0  0  0  0  0  0  0  0  0  0
   -3.0650   -0.6826    0.8486 H   0  0  0  0  0  0  0  0  0  0  0  0
   -0.9351   -0.5744    0.8327 C   0  0  1  0  0  0  0  0  0  0  0  0
   -0.2329   -1.0460    1.5293 H   0  0  0  0  0  0  0  0  0  0  0  0
   -0.3098   -0.5992   -0.5807 C   0  0  0  0  0  0  0  0  0  0  0  0
    0.3475    0.2701   -0.6932 H   0  0  0  0  0  0  0  0  0  0  0  0
    0.3177   -1.4932   -0.6628 H   0  0  0  0  0  0  0  0  0  0  0  0
   -1.3413   -0.6312   -1.7230 C   0  0  0  0  0  0  0  0  0  0  0  0
   -1.8017   -1.6246   -1.7731 H   0  0  0  0  0  0  0  0  0  0  0  0
   -2.1326    0.0992   -1.5183 H   0  0  0  0  0  0  0  0  0  0  0  0
   -0.6808   -0.2852   -3.0613 C   0  0  0  0  0  0  0  0  0  0  0  0
   -0.2304    0.7116   -2.9976 H   0  0  0  0  0  0  0  0  0  0  0  0
    0.1158   -1.0077   -3.2706 H   0  0  0  0  0  0  0  0  0  0  0  0
   -1.7219   -0.3136   -4.1767 C   0  0  0  0  0  0  0  0  0  0  0  0
   -2.1748   -1.3148   -4.2225 H   0  0  0  0  0  0  0  0  0  0  0  0
   -2.5273    0.3963   -3.9364 H   0  0  0  0  0  0  0  0  0  0  0  0
   -1.0671    0.0363   -5.4557 N   0  3  0  0  0  0  0  0  0  0  0  0
   -0.3193   -0.6300   -5.6583 H   0  0  0  0  0  0  0  0  0  0  0  0
   -1.7482    0.0132   -6.2176 H   0  0  0  0  0  0  0  0  0  0  0  0
   -0.6675    0.9751   -5.3965 H   0  0  0  0  0  0  0  0  0  0  0  0
   -1.1195    0.8813    1.3078 C   0  0  0  0  0  0  0  0  0  0  0  0
   -2.0584    1.5350    0.8673 O   0  0  0  0  0  0  0  0  0  0  0  0
   -0.2381    1.4604    2.2014 N   0  0  0  0  0  0  0  0  0  0  0  0
    0.4801    0.8666    2.6088 H   0  0  0  0  0  0  0  0  0  0  0  0
   -0.4136    2.8082    2.7332 C   0  0  0  0  0  0  0  0  0  0  0  0
   -1.3588    2.8846    3.2815 H   0  0  0  0  0  0  0  0  0  0  0  0
    0.4036    3.0550    3.4183 H   0  0  0  0  0  0  0  0  0  0  0  0
   -0.4168    3.5449    1.9227 H   0  0  0  0  0  0  0  0  0  0  0  0
  1  2  1  0  0  0  0
  2  3  1  0  0  0  0
  2  4  1  0  0  0  0
  2  5  1  0  0  0  0
  5  6  2  0  0  0  0
  5  7  1  0  0  0  0
  7  8  1  0  0  0  0
  7  9  1  0  0  0  0
  9 10  1  0  0  0  0
  9 11  1  0  0  0  0
  9 27  1  0  0  0  0
 11 12  1  0  0  0  0
 11 13  1  0  0  0  0
 11 14  1  0  0  0  0
 14 15  1  0  0  0  0
 14 16  1  0  0  0  0
 14 17  1  0  0  0  0
 17 18  1  0  0  0  0
 17 19  1  0  0  0  0
 17 20  1  0  0  0  0
 20 21  1  0  0  0  0
 20 22  1  0  0  0  0
 20 23  1  0  0  0  0
 23 24  1  0  0  0  0
 23 25  1  0  0  0  0
 23 26  1  0  0  0  0
 27 28  2  0  0  0  0
 27 29  1  0  0  0  0
 29 30  1  0  0  0  0
 29 31  1  0  0  0  0
 31 32  1  0  0  0  0
 31 33  1  0  0  0  0
 31 34  1  0  0  0  0
M  CHG  1  23   1
M  END
$$$$

  -OEChem-02102214153D

 34 33  0     1  0  0  0  0  0999 V2000
   -3.6918   -4.0684    2.0846 H   0  0  0  0  0  0  0  0  0  0  0  0
   -3.7691   -3.0703    1.6438 C   0  0  0  0  0  0  0  0  0  0  0  0
   -4.2855   -2.4152    2.3497 H   0  0  0  0  0  0  0  0  0  0  0  0
   -4.3535   -3.1364    0.7232 H   0  0  0  0  0  0  0  0  0  0  0  0
   -2.3862   -2.5244    1.3441 C   0  0  0  0  0  0  0  0  0  0  0  0
   -1.3998   -3.2225    1.5102 O   0  0  0  0  0  0  0  0  0  0  0  0
   -2.2368   -1.2434    0.8534 N   0  0  0  0  0  0  0  0  0  0  0  0
   -3.0723   -0.6587    0.8506 H   0  0  0  0  0  0  0  0  0  0  0  0
   -0.9452   -0.5369    0.8225 C   0  0  1  0  0  0  0  0  0  0  0  0
   -0.2440   -1.0188    1.5130 H   0  0  0  0  0  0  0  0  0  0  0  0
   -0.3218   -0.5719   -0.5886 C   0  0  0  0  0  0  0  0  0  0  0  0
    0.5179    0.1305   -0.6259 H   0  0  0  0  0  0  0  0  0  0  0  0
    0.0834   -1.5768   -0.7499 H   0  0  0  0  0  0  0  0  0  0  0  0
   -1.3126   -0.2578   -1.7251 C   0  0  0  0  0  0  0  0  0  0  0  0
   -2.1335   -0.9828   -1.7159 H   0  0  0  0  0  0  0  0  0  0  0  0
   -1.7417    0.7390   -1.5736 H   0  0  0  0  0  0  0  0  0  0  0  0
   -0.6063   -0.3152   -3.0834 C   0  0  0  0  0  0  0  0  0  0  0  0
    0.2205    0.4035   -3.0940 H   0  0  0  0  0  0  0  0  0  0  0  0
   -0.1894   -1.3174   -3.2342 H   0  0  0  0  0  0  0  0  0  0  0  0
   -1.5969    0.0133   -4.1975 C   0  0  0  0  0  0  0  0  0  0  0  0
   -2.4304   -0.7037   -4.1622 H   0  0  0  0  0  0  0  0  0  0  0  0
   -2.0218    1.0127   -4.0201 H   0  0  0  0  0  0  0  0  0  0  0  0
   -0.8968   -0.0458   -5.4990 N   0  3  0  0  0  0  0  0  0  0  0  0
   -0.5033   -0.9782   -5.6410 H   0  0  0  0  0  0  0  0  0  0  0  0
   -1.5494    0.1587   -6.2590 H   0  0  0  0  0  0  0  0  0  0  0  0
   -0.1394    0.6399   -5.5187 H   0  0  0  0  0  0  0  0  0  0  0  0
   -1.1184    0.9122    1.3214 C   0  0  0  0  0  0  0  0  0  0  0  0
   -2.0765    1.5692    0.9301 O   0  0  0  0  0  0  0  0  0  0  0  0
   -0.2245    1.4695    2.2165 N   0  0  0  0  0  0  0  0  0  0  0  0
    0.5019    0.8670    2.5955 H   0  0  0  0  0  0  0  0  0  0  0  0
   -0.4030    2.7960    2.7982 C   0  0  0  0  0  0  0  0  0  0  0  0
   -1.3407    2.8450    3.3624 H   0  0  0  0  0  0  0  0  0  0  0  0
    0.4220    3.0252    3.4803 H   0  0  0  0  0  0  0  0  0  0  0  0
   -0.4235    3.5605    2.0142 H   0  0  0  0  0  0  0  0  0  0  0  0
  1  2  1  0  0  0  0
  2  3  1  0  0  0  0
  2  4  1  0  0  0  0
  2  5  1  0  0  0  0
  5  6  2  0  0  0  0
  5  7  1  0  0  0  0
  7  8  1  0  0  0  0
  7  9  1  0  0  0  0
  9 10  1  0  0  0  0
  9 11  1  0  0  0  0
  9 27  1  0  0  0  0
 11 12  1  0  0  0  0
 11 13  1  0  0  0  0
 11 14  1  0  0  0  0
 14 15  1  0  0  0  0
 14 16  1  0  0  0  0
 14 17  1  0  0  0  0
 17 18  1  0  0  0  0
 17 19  1  0  0  0  0
 17 20  1  0  0  0  0
 20 21  1  0  0  0  0
 20 22  1  0  0  0  0
 20 23  1  0  0  0  0
 23 24  1  0  0  0  0
 23 25  1  0  0  0  0
 23 26  1  0  0  0  0
 27 28  2  0  0  0  0
 27 29  1  0  0  0  0
 29 30  1  0  0  0  0
 29 31  1  0  0  0  0
 31 32  1  0  0  0  0
 31 33  1  0  0  0  0
 31 34  1  0  0  0  0
M  CHG  1  23   1
M  END
$$$$

  -OEChem-02102214153D

 34 33  0     1  0  0  0  0  0999 V2000
   -3.7002   -4.0613    2.1467 H   0  0  0  0  0  0  0  0  0  0  0  0
   -3.7773   -3.0634    1.7058 C   0  0  0  0  0  0  0  0  0  0  0  0
   -4.2697   -2.4015    2.4226 H   0  0  0  0  0  0  0  0  0  0  0  0
   -4.3842   -3.1245    0.7998 H   0  0  0  0  0  0  0  0  0  0  0  0
   -2.3964   -2.5331    1.3719 C   0  0  0  0  0  0  0  0  0  0  0  0
   -1.4132   -3.2403    1.5174 O   0  0  0  0  0  0  0  0  0  0  0  0
   -2.2457   -1.2570    0.8697 N   0  0  0  0  0  0  0  0  0  0  0  0
   -3.0767   -0.6656    0.8783 H   0  0  0  0  0  0  0  0  0  0  0  0
   -0.9508   -0.5569    0.8263 C   0  0  1  0  0  0  0  0  0  0  0  0
   -0.2476   -1.0360    1.5168 H   0  0  0  0  0  0  0  0  0  0  0  0
   -0.3292   -0.5865   -0.5862 C   0  0  0  0  0  0  0  0  0  0  0  0
    0.5227    0.1009   -0.6279 H   0  0  0  0  0  0  0  0  0  0  0  0
    0.0607   -1.5986   -0.7391 H   0  0  0  0  0  0  0  0  0  0  0  0
   -1.3111   -0.2642   -1.7303 C   0  0  0  0  0  0  0  0  0  0  0  0
   -2.2520   -0.8058   -1.5934 H   0  0  0  0  0  0  0  0  0  0  0  0
   -1.5395    0.8077   -1.7196 H   0  0  0  0  0  0  0  0  0  0  0  0
   -0.7147   -0.6724   -3.0813 C   0  0  0  0  0  0  0  0  0  0  0  0
    0.2379   -0.1522   -3.2301 H   0  0  0  0  0  0  0  0  0  0  0  0
   -0.5183   -1.7505   -3.0820 H   0  0  0  0  0  0  0  0  0  0  0  0
   -1.6851   -0.3186   -4.2050 C   0  0  0  0  0  0  0  0  0  0  0  0
   -2.6433   -0.8295   -4.0292 H   0  0  0  0  0  0  0  0  0  0  0  0
   -1.8861    0.7627   -4.1826 H   0  0  0  0  0  0  0  0  0  0  0  0
   -1.0929   -0.7257   -5.4977 N   0  3  0  0  0  0  0  0  0  0  0  0
   -0.9034   -1.7300   -5.4932 H   0  0  0  0  0  0  0  0  0  0  0  0
   -1.7369   -0.5128   -6.2627 H   0  0  0  0  0  0  0  0  0  0  0  0
   -0.2163   -0.2241   -5.6529 H   0  0  0  0  0  0  0  0  0  0  0  0
   -1.1244    0.8949    1.3155 C   0  0  0  0  0  0  0  0  0  0  0  0
   -2.0860    1.5450    0.9210 O   0  0  0  0  0  0  0  0  0  0  0  0
   -0.2297    1.4615    2.2038 N   0  0  0  0  0  0  0  0  0  0  0  0
    0.5046    0.8669    2.5799 H   0  0  0  0  0  0  0  0  0  0  0  0
   -0.4093    2.7932    2.7729 C   0  0  0  0  0  0  0  0  0  0  0  0
   -1.3479    2.8473    3.3350 H   0  0  0  0  0  0  0  0  0  0  0  0
    0.4143    3.0290    3.4541 H   0  0  0  0  0  0  0  0  0  0  0  0
   -0.4289    3.5503    1.9818 H   0  0  0  0  0  0  0  0  0  0  0  0
  1  2  1  0  0  0  0
  2  3  1  0  0  0  0
  2  4  1  0  0  0  0
  2  5  1  0  0  0  0
  5  6  2  0  0  0  0
  5  7  1  0  0  0  0
  7  8  1  0  0  0  0
  7  9  1  0  0  0  0
  9 10  1  0  0  0  0
  9 11  1  0  0  0  0
  9 27  1  0  0  0  0
 11 12  1  0  0  0  0
 11 13  1  0  0  0  0
 11 14  1  0  0  0  0
 14 15  1  0  0  0  0
 14 16  1  0  0  0  0
 14 17  1  0  0  0  0
 17 18  1  0  0  0  0
 17 19  1  0  0  0  0
 17 20  1  0  0  0  0
 20 21  1  0  0  0  0
 20 22  1  0  0  0  0
 20 23  1  0  0  0  0
 23 24  1  0  0  0  0
 23 25  1  0  0  0  0
 23 26  1  0  0  0  0
 27 28  2  0  0  0  0
 27 29  1  0  0  0  0
 29 30  1  0  0  0  0
 29 31  1  0  0  0  0
 31 32  1  0  0  0  0
 31 33  1  0  0  0  0
 31 34  1  0  0  0  0
M  CHG  1  23   1
M  END
$$$$

  -OEChem-02102214153D

 34 33  0     1  0  0  0  0  0999 V2000
   -3.7125   -4.0692    2.1764 H   0  0  0  0  0  0  0  0  0  0  0  0
   -3.7864   -3.0626    1.7546 C   0  0  0  0  0  0  0  0  0  0  0  0
   -4.2551   -2.4076    2.4933 H   0  0  0  0  0  0  0  0  0  0  0  0
   -4.4138   -3.1001    0.8611 H   0  0  0  0  0  0  0  0  0  0  0  0
   -2.4059   -2.5433    1.4002 C   0  0  0  0  0  0  0  0  0  0  0  0
   -1.4261   -3.2577    1.5332 O   0  0  0  0  0  0  0  0  0  0  0  0
   -2.2530   -1.2714    0.8887 N   0  0  0  0  0  0  0  0  0  0  0  0
   -3.0801   -0.6747    0.9090 H   0  0  0  0  0  0  0  0  0  0  0  0
   -0.9555   -0.5757    0.8383 C   0  0  1  0  0  0  0  0  0  0  0  0
   -0.2515   -1.0524    1.5295 H   0  0  0  0  0  0  0  0  0  0  0  0
   -0.3322   -0.5992   -0.5738 C   0  0  0  0  0  0  0  0  0  0  0  0
    0.5277    0.0782   -0.6141 H   0  0  0  0  0  0  0  0  0  0  0  0
    0.0520   -1.6146   -0.7204 H   0  0  0  0  0  0  0  0  0  0  0  0
   -1.3031   -0.2694   -1.7289 C   0  0  0  0  0  0  0  0  0  0  0  0
   -2.3236   -0.5776   -1.4846 H   0  0  0  0  0  0  0  0  0  0  0  0
   -1.3210    0.8160   -1.8804 H   0  0  0  0  0  0  0  0  0  0  0  0
   -0.8848   -0.9905   -3.0151 C   0  0  0  0  0  0  0  0  0  0  0  0
    0.1391   -0.7009   -3.2766 H   0  0  0  0  0  0  0  0  0  0  0  0
   -0.9009   -2.0732   -2.8467 H   0  0  0  0  0  0  0  0  0  0  0  0
   -1.8381   -0.6258   -4.1499 C   0  0  0  0  0  0  0  0  0  0  0  0
   -2.8647   -0.8939   -3.8595 H   0  0  0  0  0  0  0  0  0  0  0  0
   -1.8190    0.4635   -4.3022 H   0  0  0  0  0  0  0  0  0  0  0  0
   -1.4255   -1.3449   -5.3747 N   0  3  0  0  0  0  0  0  0  0  0  0
   -1.4537   -2.3535   -5.2127 H   0  0  0  0  0  0  0  0  0  0  0  0
   -2.0548   -1.1149   -6.1468 H   0  0  0  0  0  0  0  0  0  0  0  0
   -0.4734   -1.0777   -5.6320 H   0  0  0  0  0  0  0  0  0  0  0  0
   -1.1303    0.8788    1.3184 C   0  0  0  0  0  0  0  0  0  0  0  0
   -2.0930    1.5230    0.9176 O   0  0  0  0  0  0  0  0  0  0  0  0
   -0.2379    1.4552    2.2026 N   0  0  0  0  0  0  0  0  0  0  0  0
    0.5026    0.8689    2.5795 H   0  0  0  0  0  0  0  0  0  0  0  0
   -0.4120    2.7983    2.7467 C   0  0  0  0  0  0  0  0  0  0  0  0
   -1.3451    2.8642    3.3166 H   0  0  0  0  0  0  0  0  0  0  0  0
    0.4184    3.0482    3.4146 H   0  0  0  0  0  0  0  0  0  0  0  0
   -0.4397    3.5396    1.9409 H   0  0  0  0  0  0  0  0  0  0  0  0
  1  2  1  0  0  0  0
  2  3  1  0  0  0  0
  2  4  1  0  0  0  0
  2  5  1  0  0  0  0
  5  6  2  0  0  0  0
  5  7  1  0  0  0  0
  7  8  1  0  0  0  0
  7  9  1  0  0  0  0
  9 10  1  0  0  0  0
  9 11  1  0  0  0  0
  9 27  1  0  0  0  0
 11 12  1  0  0  0  0
 11 13  1  0  0  0  0
 11 14  1  0  0  0  0
 14 15  1  0  0  0  0
 14 16  1  0  0  0  0
 14 17  1  0  0  0  0
 17 18  1  0  0  0  0
 17 19  1  0  0  0  0
 17 20  1  0  0  0  0
 20 21  1  0  0  0  0
 20 22  1  0  0  0  0
 20 23  1  0  0  0  0
 23 24  1  0  0  0  0
 23 25  1  0  0  0  0
 23 26  1  0  0  0  0
 27 28  2  0  0  0  0
 27 29  1  0  0  0  0
 29 30  1  0  0  0  0
 29 31  1  0  0  0  0
 31 32  1  0  0  0  0
 31 33  1  0  0  0  0
 31 34  1  0  0  0  0
M  CHG  1  23   1
M  END
$$$$

  -OEChem-02102214153D

 34 33  0     1  0  0  0  0  0999 V2000
   -3.7082   -4.0436    2.2067 H   0  0  0  0  0  0  0  0  0  0  0  0
   -3.7849   -3.0441    1.7684 C   0  0  0  0  0  0  0  0  0  0  0  0
   -4.2414   -2.3750    2.5021 H   0  0  0  0  0  0  0  0  0  0  0  0
   -4.4245   -3.0948    0.8842 H   0  0  0  0  0  0  0  0  0  0  0  0
   -2.4078   -2.5351    1.3877 C   0  0  0  0  0  0  0  0  0  0  0  0
   -1.4332   -3.2612    1.4899 O   0  0  0  0  0  0  0  0  0  0  0  0
   -2.2522   -1.2624    0.8794 N   0  0  0  0  0  0  0  0  0  0  0  0
   -3.0743   -0.6596    0.9190 H   0  0  0  0  0  0  0  0  0  0  0  0
   -0.9520   -0.5698    0.8398 C   0  0  1  0  0  0  0  0  0  0  0  0
   -0.2550   -1.0489    1.5367 H   0  0  0  0  0  0  0  0  0  0  0  0
   -0.3211   -0.6017   -0.5676 C   0  0  0  0  0  0  0  0  0  0  0  0
    0.5358    0.0796   -0.6040 H   0  0  0  0  0  0  0  0  0  0  0  0
    0.0740   -1.6137   -0.7065 H   0  0  0  0  0  0  0  0  0  0  0  0
   -1.2861   -0.2731   -1.7299 C   0  0  0  0  0  0  0  0  0  0  0  0
   -2.3292   -0.2991   -1.4012 H   0  0  0  0  0  0  0  0  0  0  0  0
   -1.0890    0.7501   -2.0694 H   0  0  0  0  0  0  0  0  0  0  0  0
   -1.1087   -1.2598   -2.8890 C   0  0  0  0  0  0  0  0  0  0  0  0
   -0.0713   -1.2261   -3.2399 H   0  0  0  0  0  0  0  0  0  0  0  0
   -1.3161   -2.2753   -2.5325 H   0  0  0  0  0  0  0  0  0  0  0  0
   -2.0602   -0.9051   -4.0279 C   0  0  0  0  0  0  0  0  0  0  0  0
   -3.0937   -0.9123   -3.6510 H   0  0  0  0  0  0  0  0  0  0  0  0
   -1.8485    0.1179   -4.3725 H   0  0  0  0  0  0  0  0  0  0  0  0
   -1.8834   -1.8867   -5.1197 N   0  3  0  0  0  0  0  0  0  0  0  0
   -2.0665   -2.8301   -4.7720 H   0  0  0  0  0  0  0  0  0  0  0  0
   -2.5299   -1.6831   -5.8847 H   0  0  0  0  0  0  0  0  0  0  0  0
   -0.9260   -1.8451   -5.4741 H   0  0  0  0  0  0  0  0  0  0  0  0
   -1.1270    0.8842    1.3218 C   0  0  0  0  0  0  0  0  0  0  0  0
   -2.0973    1.5237    0.9313 O   0  0  0  0  0  0  0  0  0  0  0  0
   -0.2398    1.4568    2.2135 N   0  0  0  0  0  0  0  0  0  0  0  0
    0.5122    0.8761    2.5758 H   0  0  0  0  0  0  0  0  0  0  0  0
   -0.4233    2.7930    2.7707 C   0  0  0  0  0  0  0  0  0  0  0  0
   -1.3681    2.8527    3.3217 H   0  0  0  0  0  0  0  0  0  0  0  0
    0.3928    3.0326    3.4594 H   0  0  0  0  0  0  0  0  0  0  0  0
   -0.4331    3.5441    1.9738 H   0  0  0  0  0  0  0  0  0  0  0  0
  1  2  1  0  0  0  0
  2  3  1  0  0  0  0
  2  4  1  0  0  0  0
  2  5  1  0  0  0  0
  5  6  2  0  0  0  0
  5  7  1  0  0  0  0
  7  8  1  0  0  0  0
  7  9  1  0  0  0  0
  9 10  1  0  0  0  0
  9 11  1  0  0  0  0
  9 27  1  0  0  0  0
 11 12  1  0  0  0  0
 11 13  1  0  0  0  0
 11 14  1  0  0  0  0
 14 15  1  0  0  0  0
 14 16  1  0  0  0  0
 14 17  1  0  0  0  0
 17 18  1  0  0  0  0
 17 19  1  0  0  0  0
 17 20  1  0  0  0  0
 20 21  1  0  0  0  0
 20 22  1  0  0  0  0
 20 23  1  0  0  0  0
 23 24  1  0  0  0  0
 23 25  1  0  0  0  0
 23 26  1  0  0  0  0
 27 28  2  0  0  0  0
 27 29  1  0  0  0  0
 29 30  1  0  0  0  0
 29 31  1  0  0  0  0
 31 32  1  0  0  0  0
 31 33  1  0  0  0  0
 31 34  1  0  0  0  0
M  CHG  1  23   1
M  END
$$$$

  -OEChem-02102214153D

 34 33  0     1  0  0  0  0  0999 V2000
   -3.7150   -4.0423    2.1639 H   0  0  0  0  0  0  0  0  0  0  0  0
   -3.7849   -3.0251    1.7678 C   0  0  0  0  0  0  0  0  0  0  0  0
   -4.2038   -2.3770    2.5416 H   0  0  0  0  0  0  0  0  0  0  0  0
   -4.4531   -3.0284    0.9039 H   0  0  0  0  0  0  0  0  0  0  0  0
   -2.4108   -2.5266    1.3632 C   0  0  0  0  0  0  0  0  0  0  0  0
   -1.4424   -3.2649    1.4301 O   0  0  0  0  0  0  0  0  0  0  0  0
   -2.2546   -1.2509    0.8640 N   0  0  0  0  0  0  0  0  0  0  0  0
   -3.0719   -0.6438    0.9321 H   0  0  0  0  0  0  0  0  0  0  0  0
   -0.9538   -0.5581    0.8383 C   0  0  1  0  0  0  0  0  0  0  0  0
   -0.2648   -1.0416    1.5402 H   0  0  0  0  0  0  0  0  0  0  0  0
   -0.3111   -0.6007   -0.5627 C   0  0  0  0  0  0  0  0  0  0  0  0
    0.5300    0.1007   -0.5906 H   0  0  0  0  0  0  0  0  0  0  0  0
    0.1108   -1.6022   -0.7005 H   0  0  0  0  0  0  0  0  0  0  0  0
   -1.2741   -0.2792   -1.7276 C   0  0  0  0  0  0  0  0  0  0  0  0
   -2.2717   -0.0216   -1.3567 H   0  0  0  0  0  0  0  0  0  0  0  0
   -0.8985    0.6035   -2.2568 H   0  0  0  0  0  0  0  0  0  0  0  0
   -1.3690   -1.4582   -2.7026 C   0  0  0  0  0  0  0  0  0  0  0  0
   -0.3738   -1.6779   -3.1054 H   0  0  0  0  0  0  0  0  0  0  0  0
   -1.7214   -2.3438   -2.1615 H   0  0  0  0  0  0  0  0  0  0  0  0
   -2.3318   -1.1253   -3.8382 C   0  0  0  0  0  0  0  0  0  0  0  0
   -3.3203   -0.8906   -3.4166 H   0  0  0  0  0  0  0  0  0  0  0  0
   -1.9798   -0.2232   -4.3599 H   0  0  0  0  0  0  0  0  0  0  0  0
   -2.4027   -2.2820   -4.7570 N   0  3  0  0  0  0  0  0  0  0  0  0
   -2.7208   -3.1101   -4.2498 H   0  0  0  0  0  0  0  0  0  0  0  0
   -3.0555   -2.0875   -5.5192 H   0  0  0  0  0  0  0  0  0  0  0  0
   -1.4789   -2.4710   -5.1510 H   0  0  0  0  0  0  0  0  0  0  0  0
   -1.1274    0.8940    1.3280 C   0  0  0  0  0  0  0  0  0  0  0  0
   -2.1041    1.5315    0.9507 O   0  0  0  0  0  0  0  0  0  0  0  0
   -0.2444    1.4593    2.2286 N   0  0  0  0  0  0  0  0  0  0  0  0
    0.5151    0.8809    2.5789 H   0  0  0  0  0  0  0  0  0  0  0  0
   -0.4246    2.7941    2.7909 C   0  0  0  0  0  0  0  0  0  0  0  0
   -1.3642    2.8517    3.3510 H   0  0  0  0  0  0  0  0  0  0  0  0
    0.3979    3.0332    3.4724 H   0  0  0  0  0  0  0  0  0  0  0  0
   -0.4426    3.5472    1.9957 H   0  0  0  0  0  0  0  0  0  0  0  0
  1  2  1  0  0  0  0
  2  3  1  0  0  0  0
  2  4  1  0  0  0  0
  2  5  1  0  0  0  0
  5  6  2  0  0  0  0
  5  7  1  0  0  0  0
  7  8  1  0  0  0  0
  7  9  1  0  0  0  0
  9 10  1  0  0  0  0
  9 11  1  0  0  0  0
  9 27  1  0  0  0  0
 11 12  1  0  0  0  0
 11 13  1  0  0  0  0
 11 14  1  0  0  0  0
 14 15  1  0  0  0  0
 14 16  1  0  0  0  0
 14 17  1  0  0  0  0
 17 18  1  0  0  0  0
 17 19  1  0  0  0  0
 17 20  1  0  0  0  0
 20 21  1  0  0  0  0
 20 22  1  0  0  0  0
 20 23  1  0  0  0  0
 23 24  1  0  0  0  0
 23 25  1  0  0  0  0
 23 26  1  0  0  0  0
 27 28  2  0  0  0  0
 27 29  1  0  0  0  0
 29 30  1  0  0  0  0
 29 31  1  0  0  0  0
 31 32  1  0  0  0  0
 31 33  1  0  0  0  0
 31 34  1  0  0  0  0
M  CHG  1  23   1
M  END
$$$$

  -OEChem-02102214153D

 34 33  0     1  0  0  0  0  0999 V2000
   -3.7139   -4.0358    2.1674 H   0  0  0  0  0  0  0  0  0  0  0  0
   -3.7838   -3.0068    1.8029 C   0  0  0  0  0  0  0  0  0  0  0  0
   -4.1580   -2.3745    2.6121 H   0  0  0  0  0  0  0  0  0  0  0  0
   -4.4888   -2.9745    0.9694 H   0  0  0  0  0  0  0  0  0  0  0  0
   -2.4200   -2.5188    1.3541 C   0  0  0  0  0  0  0  0  0  0  0  0
   -1.4599   -3.2702    1.3712 O   0  0  0  0  0  0  0  0  0  0  0  0
   -2.2679   -1.2408    0.8597 N   0  0  0  0  0  0  0  0  0  0  0  0
   -3.0788   -0.6294    0.9603 H   0  0  0  0  0  0  0  0  0  0  0  0
   -0.9663   -0.5497    0.8349 C   0  0  1  0  0  0  0  0  0  0  0  0
   -0.2833   -1.0360    1.5406 H   0  0  0  0  0  0  0  0  0  0  0  0
   -0.3105   -0.6010   -0.5599 C   0  0  0  0  0  0  0  0  0  0  0  0
    0.5161    0.1177   -0.5791 H   0  0  0  0  0  0  0  0  0  0  0  0
    0.1325   -1.5934   -0.6980 H   0  0  0  0  0  0  0  0  0  0  0  0
   -1.2662   -0.2884   -1.7300 C   0  0  0  0  0  0  0  0  0  0  0  0
   -2.1635    0.2272   -1.3707 H   0  0  0  0  0  0  0  0  0  0  0  0
   -0.7593    0.3945   -2.4209 H   0  0  0  0  0  0  0  0  0  0  0  0
   -1.6472   -1.5679   -2.4855 C   0  0  0  0  0  0  0  0  0  0  0  0
   -0.7416   -2.0310   -2.8926 H   0  0  0  0  0  0  0  0  0  0  0  0
   -2.1064   -2.2781   -1.7892 H   0  0  0  0  0  0  0  0  0  0  0  0
   -2.6197   -1.2441   -3.6150 C   0  0  0  0  0  0  0  0  0  0  0  0
   -3.5257   -0.7856   -3.1918 H   0  0  0  0  0  0  0  0  0  0  0  0
   -2.1630   -0.5011   -4.2852 H   0  0  0  0  0  0  0  0  0  0  0  0
   -2.9376   -2.4935   -4.3398 N   0  3  0  0  0  0  0  0  0  0  0  0
   -3.3474   -3.1740   -3.6972 H   0  0  0  0  0  0  0  0  0  0  0  0
   -3.6018   -2.3049   -5.0935 H   0  0  0  0  0  0  0  0  0  0  0  0
   -2.0850   -2.8903   -4.7399 H   0  0  0  0  0  0  0  0  0  0  0  0
   -1.1341    0.9012    1.3315 C   0  0  0  0  0  0  0  0  0  0  0  0
   -2.1232    1.5346    0.9808 O   0  0  0  0  0  0  0  0  0  0  0  0
   -0.2467    1.4597    2.2320 N   0  0  0  0  0  0  0  0  0  0  0  0
    0.5236    0.8843    2.5630 H   0  0  0  0  0  0  0  0  0  0  0  0
   -0.4228    2.7910    2.8036 C   0  0  0  0  0  0  0  0  0  0  0  0
   -1.3548    2.8426    3.3766 H   0  0  0  0  0  0  0  0  0  0  0  0
    0.4084    3.0294    3.4747 H   0  0  0  0  0  0  0  0  0  0  0  0
   -0.4541    3.5486    2.0132 H   0  0  0  0  0  0  0  0  0  0  0  0
  1  2  1  0  0  0  0
  2  3  1  0  0  0  0
  2  4  1  0  0  0  0
  2  5  1  0  0  0  0
  5  6  2  0  0  0  0
  5  7  1  0  0  0  0
  7  8  1  0  0  0  0
  7  9  1  0  0  0  0
  9 10  1  0  0  0  0
  9 11  1  0  0  0  0
  9 27  1  0  0  0  0
 11 12  1  0  0  0  0
 11 13  1  0  0  0  0
 11 14  1  0  0  0  0
 14 15  1  0  0  0  0
 14 16  1  0  0  0  0
 14 17  1  0  0  0  0
 17 18  1  0  0  0  0
 17 19  1  0  0  0  0
 17 20  1  0  0  0  0
 20 21  1  0  0  0  0
 20 22  1  0  0  0  0
 20 23  1  0  0  0  0
 23 24  1  0  0  0  0
 23 25  1  0  0  0  0
 23 26  1  0  0  0  0
 27 28  2  0  0  0  0
 27 29  1  0  0  0  0
 29 30  1  0  0  0  0
 29 31  1  0  0  0  0
 31 32  1  0  0  0  0
 31 33  1  0  0  0  0
 31 34  1  0  0  0  0
M  CHG  1  23   1
M  END
$$$$

  -OEChem-02102214153D

 34 33  0     1  0  0  0  0  0999 V2000
   -3.6513   -4.0444    2.3610 H   0  0  0  0  0  0  0  0  0  0  0  0
   -3.7474   -3.0266    1.9717 C   0  0  0  0  0  0  0  0  0  0  0  0
   -4.0898   -2.3755    2.7799 H   0  0  0  0  0  0  0  0  0  0  0  0
   -4.4904   -3.0231    1.1713 H   0  0  0  0  0  0  0  0  0  0  0  0
   -2.4096   -2.5408    1.4471 C   0  0  0  0  0  0  0  0  0  0  0  0
   -1.4490   -3.2908    1.4199 O   0  0  0  0  0  0  0  0  0  0  0  0
   -2.2842   -1.2657    0.9373 N   0  0  0  0  0  0  0  0  0  0  0  0
   -3.0917   -0.6560    1.0710 H   0  0  0  0  0  0  0  0  0  0  0  0
   -0.9890   -0.5692    0.8590 C   0  0  1  0  0  0  0  0  0  0  0  0
   -0.2842   -1.0452    1.5503 H   0  0  0  0  0  0  0  0  0  0  0  0
   -0.3508   -0.6080   -0.5472 C   0  0  0  0  0  0  0  0  0  0  0  0
    0.4672    0.1205   -0.5681 H   0  0  0  0  0  0  0  0  0  0  0  0
    0.1027   -1.5940   -0.6956 H   0  0  0  0  0  0  0  0  0  0  0  0
   -1.3016   -0.3069   -1.7233 C   0  0  0  0  0  0  0  0  0  0  0  0
   -2.0601    0.4208   -1.4144 H   0  0  0  0  0  0  0  0  0  0  0  0
   -0.7163    0.1553   -2.5260 H   0  0  0  0  0  0  0  0  0  0  0  0
   -1.9719   -1.5751   -2.2734 C   0  0  0  0  0  0  0  0  0  0  0  0
   -1.1969   -2.2802   -2.5937 H   0  0  0  0  0  0  0  0  0  0  0  0
   -2.5641   -2.0613   -1.4940 H   0  0  0  0  0  0  0  0  0  0  0  0
   -2.8705   -1.2186   -3.4532 C   0  0  0  0  0  0  0  0  0  0  0  0
   -3.6562   -0.5278   -3.1132 H   0  0  0  0  0  0  0  0  0  0  0  0
   -2.2786   -0.6872   -4.2130 H   0  0  0  0  0  0  0  0  0  0  0  0
   -3.4485   -2.4637   -4.0031 N   0  3  0  0  0  0  0  0  0  0  0  0
   -3.9847   -2.9471   -3.2803 H   0  0  0  0  0  0  0  0  0  0  0  0
   -4.0660   -2.2484   -4.7885 H   0  0  0  0  0  0  0  0  0  0  0  0
   -2.7009   -3.0807   -4.3270 H   0  0  0  0  0  0  0  0  0  0  0  0
   -1.1574    0.8831    1.3530 C   0  0  0  0  0  0  0  0  0  0  0  0
   -2.1689    1.5004    1.0382 O   0  0  0  0  0  0  0  0  0  0  0  0
   -0.2460    1.4579    2.2187 N   0  0  0  0  0  0  0  0  0  0  0  0
    0.5502    0.8990    2.5153 H   0  0  0  0  0  0  0  0  0  0  0  0
   -0.4117    2.7951    2.7802 C   0  0  0  0  0  0  0  0  0  0  0  0
   -1.3238    2.8484    3.3846 H   0  0  0  0  0  0  0  0  0  0  0  0
    0.4404    3.0466    3.4196 H   0  0  0  0  0  0  0  0  0  0  0  0
   -0.4745    3.5422    1.9817 H   0  0  0  0  0  0  0  0  0  0  0  0
  1  2  1  0  0  0  0
  2  3  1  0  0  0  0
  2  4  1  0  0  0  0
  2  5  1  0  0  0  0
  5  6  2  0  0  0  0
  5  7  1  0  0  0  0
  7  8  1  0  0  0  0
  7  9  1  0  0  0  0
  9 10  1  0  0  0  0
  9 11  1  0  0  0  0
  9 27  1  0  0  0  0
 11 12  1  0  0  0  0
 11 13  1  0  0  0  0
 11 14  1  0  0  0  0
 14 15  1  0  0  0  0
 14 16  1  0  0  0  0
 14 17  1  0  0  0  0
 17 18  1  0  0  0  0
 17 19  1  0  0  0  0
 17 20  1  0  0  0  0
 20 21  1  0  0  0  0
 20 22  1  0  0  0  0
 20 23  1  0  0  0  0
 23 24  1  0  0  0  0
 23 25  1  0  0  0  0
 23 26  1  0  0  0  0
 27 28  2  0  0  0  0
 27 29  1  0  0  0  0
 29 30  1  0  0  0  0
 29 31  1  0  0  0  0
 31 32  1  0  0  0  0
 31 33  1  0  0  0  0
 31 34  1  0  0  0  0
M  CHG  1  23   1
M  END
$$$$

  -OEChem-02102214153D

 34 33  0     1  0  0  0  0  0999 V2000
   -3.4891   -4.1008    2.5488 H   0  0  0  0  0  0  0  0  0  0  0  0
   -3.6321   -3.0841    2.1710 C   0  0  0  0  0  0  0  0  0  0  0  0
   -3.9275   -2.4412    3.0041 H   0  0  0  0  0  0  0  0  0  0  0  0
   -4.4305   -3.0932    1.4261 H   0  0  0  0  0  0  0  0  0  0  0  0
   -2.3451   -2.5721    1.5532 C   0  0  0  0  0  0  0  0  0  0  0  0
   -1.3779   -3.3067    1.4485 O   0  0  0  0  0  0  0  0  0  0  0  0
   -2.2762   -1.2890    1.0526 N   0  0  0  0  0  0  0  0  0  0  0  0
   -3.0790   -0.6917    1.2539 H   0  0  0  0  0  0  0  0  0  0  0  0
   -1.0007   -0.5745    0.8875 C   0  0  1  0  0  0  0  0  0  0  0  0
   -0.2409   -1.0475    1.5200 H   0  0  0  0  0  0  0  0  0  0  0  0
   -0.4537   -0.5643   -0.5588 C   0  0  0  0  0  0  0  0  0  0  0  0
    0.3607    0.1669   -0.6065 H   0  0  0  0  0  0  0  0  0  0  0  0
   -0.0072   -1.5450   -0.7553 H   0  0  0  0  0  0  0  0  0  0  0  0
   -1.4465   -0.2505   -1.6981 C   0  0  0  0  0  0  0  0  0  0  0  0
   -2.0241    0.6458   -1.4455 H   0  0  0  0  0  0  0  0  0  0  0  0
   -0.8524   -0.0136   -2.5876 H   0  0  0  0  0  0  0  0  0  0  0  0
   -2.4026   -1.4044   -2.0413 C   0  0  0  0  0  0  0  0  0  0  0  0
   -1.8389   -2.3433   -2.0779 H   0  0  0  0  0  0  0  0  0  0  0  0
   -3.1760   -1.4997   -1.2755 H   0  0  0  0  0  0  0  0  0  0  0  0
   -3.0641   -1.1432   -3.3909 C   0  0  0  0  0  0  0  0  0  0  0  0
   -3.6422   -0.2086   -3.3371 H   0  0  0  0  0  0  0  0  0  0  0  0
   -2.2845   -0.9991   -4.1533 H   0  0  0  0  0  0  0  0  0  0  0  0
   -3.9300   -2.2934   -3.7271 N   0  3  0  0  0  0  0  0  0  0  0  0
   -4.6596   -2.3981   -3.0201 H   0  0  0  0  0  0  0  0  0  0  0  0
   -4.3684   -2.1497   -4.6391 H   0  0  0  0  0  0  0  0  0  0  0  0
   -3.3730   -3.1499   -3.7569 H   0  0  0  0  0  0  0  0  0  0  0  0
   -1.1625    0.8658    1.4151 C   0  0  0  0  0  0  0  0  0  0  0  0
   -2.2026    1.4692    1.1744 O   0  0  0  0  0  0  0  0  0  0  0  0
   -0.2023    1.4461    2.2220 N   0  0  0  0  0  0  0  0  0  0  0  0
    0.6189    0.8950    2.4590 H   0  0  0  0  0  0  0  0  0  0  0  0
   -0.3527    2.7700    2.8174 C   0  0  0  0  0  0  0  0  0  0  0  0
   -1.2191    2.7938    3.4870 H   0  0  0  0  0  0  0  0  0  0  0  0
    0.5387    3.0284    3.3977 H   0  0  0  0  0  0  0  0  0  0  0  0
   -0.4881    3.5289    2.0393 H   0  0  0  0  0  0  0  0  0  0  0  0
  1  2  1  0  0  0  0
  2  3  1  0  0  0  0
  2  4  1  0  0  0  0
  2  5  1  0  0  0  0
  5  6  2  0  0  0  0
  5  7  1  0  0  0  0
  7  8  1  0  0  0  0
  7  9  1  0  0  0  0
  9 10  1  0  0  0  0
  9 11  1  0  0  0  0
  9 27  1  0  0  0  0
 11 12  1  0  0  0  0
 11 13  1  0  0  0  0
 11 14  1  0  0  0  0
 14 15  1  0  0  0  0
 14 16  1  0  0  0  0
 14 17  1  0  0  0  0
 17 18  1  0  0  0  0
 17 19  1  0  0  0  0
 17 20  1  0  0  0  0
 20 21  1  0  0  0  0
 20 22  1  0  0  0  0
 20 23  1  0  0  0  0
 23 24  1  0  0  0  0
 23 25  1  0  0  0  0
 23 26  1  0  0  0  0
 27 28  2  0  0  0  0
 27 29  1  0  0  0  0
 29 30  1  0  0  0  0
 29 31  1  0  0  0  0
 31 32  1  0  0  0  0
 31 33  1  0  0  0  0
 31 34  1  0  0  0  0
M  CHG  1  23   1
M  END
$$$$

  -OEChem-02102214153D

 34 33  0     1  0  0  0  0  0999 V2000
   -3.4025   -4.1530    2.6030 H   0  0  0  0  0  0  0  0  0  0  0  0
   -3.5600   -3.1270    2.2575 C   0  0  0  0  0  0  0  0  0  0  0  0
   -3.8236   -2.5063    3.1177 H   0  0  0  0  0  0  0  0  0  0  0  0
   -4.3865   -3.1180    1.5439 H   0  0  0  0  0  0  0  0  0  0  0  0
   -2.2976   -2.5978    1.6037 C   0  0  0  0  0  0  0  0  0  0  0  0
   -1.3277   -3.3223    1.4632 O   0  0  0  0  0  0  0  0  0  0  0  0
   -2.2558   -1.3096    1.1126 N   0  0  0  0  0  0  0  0  0  0  0  0
   -3.0514   -0.7187    1.3560 H   0  0  0  0  0  0  0  0  0  0  0  0
   -0.9913   -0.5854    0.9042 C   0  0  1  0  0  0  0  0  0  0  0  0
   -0.2044   -1.0601    1.5015 H   0  0  0  0  0  0  0  0  0  0  0  0
   -0.4892   -0.5300   -0.5592 C   0  0  0  0  0  0  0  0  0  0  0  0
    0.3362    0.1885   -0.6115 H   0  0  0  0  0  0  0  0  0  0  0  0
   -0.0645   -1.5139   -0.7864 H   0  0  0  0  0  0  0  0  0  0  0  0
   -1.4892   -0.1924   -1.6878 C   0  0  0  0  0  0  0  0  0  0  0  0
   -1.8752    0.8207   -1.5266 H   0  0  0  0  0  0  0  0  0  0  0  0
   -0.9203   -0.1778   -2.6240 H   0  0  0  0  0  0  0  0  0  0  0  0
   -2.6752   -1.1551   -1.8425 C   0  0  0  0  0  0  0  0  0  0  0  0
   -2.3252   -2.1858   -1.7151 H   0  0  0  0  0  0  0  0  0  0  0  0
   -3.4272   -0.9450   -1.0770 H   0  0  0  0  0  0  0  0  0  0  0  0
   -3.3061   -0.9842   -3.2217 C   0  0  0  0  0  0  0  0  0  0  0  0
   -3.6563    0.0528   -3.3332 H   0  0  0  0  0  0  0  0  0  0  0  0
   -2.5406   -1.1529   -3.9933 H   0  0  0  0  0  0  0  0  0  0  0  0
   -4.4207   -1.9452   -3.3608 N   0  3  0  0  0  0  0  0  0  0  0  0
   -5.1265   -1.7643   -2.6450 H   0  0  0  0  0  0  0  0  0  0  0  0
   -4.8514   -1.8536   -4.2833 H   0  0  0  0  0  0  0  0  0  0  0  0
   -4.0721   -2.8995   -3.2498 H   0  0  0  0  0  0  0  0  0  0  0  0
   -1.1534    0.8460    1.4546 C   0  0  0  0  0  0  0  0  0  0  0  0
   -2.2088    1.4375    1.2525 O   0  0  0  0  0  0  0  0  0  0  0  0
   -0.1739    1.4327    2.2331 N   0  0  0  0  0  0  0  0  0  0  0  0
    0.6633    0.8916    2.4350 H   0  0  0  0  0  0  0  0  0  0  0  0
   -0.3223    2.7482    2.8477 C   0  0  0  0  0  0  0  0  0  0  0  0
   -1.1579    2.7494    3.5557 H   0  0  0  0  0  0  0  0  0  0  0  0
    0.5894    3.0186    3.3898 H   0  0  0  0  0  0  0  0  0  0  0  0
   -0.5072    3.5116    2.0843 H   0  0  0  0  0  0  0  0  0  0  0  0
  1  2  1  0  0  0  0
  2  3  1  0  0  0  0
  2  4  1  0  0  0  0
  2  5  1  0  0  0  0
  5  6  2  0  0  0  0
  5  7  1  0  0  0  0
  7  8  1  0  0  0  0
  7  9  1  0  0  0  0
  9 10  1  0  0  0  0
  9 11  1  0  0  0  0
  9 27  1  0  0  0  0
 11 12  1  0  0  0  0
 11 13  1  0  0  0  0
 11 14  1  0  0  0  0
 14 15  1  0  0  0  0
 14 16  1  0  0  0  0
 14 17  1  0  0  0  0
 17 18  1  0  0  0  0
 17 19  1  0  0  0  0
 17 20  1  0  0  0  0
 20 21  1  0  0  0  0
 20 22  1  0  0  0  0
 20 23  1  0  0  0  0
 23 24  1  0  0  0  0
 23 25  1  0  0  0  0
 23 26  1  0  0  0  0
 27 28  2  0  0  0  0
 27 29  1  0  0  0  0
 29 30  1  0  0  0  0
 29 31  1  0  0  0  0
 31 32  1  0  0  0  0
 31 33  1  0  0  0  0
 31 34  1  0  0  0  0
M  CHG  1  23   1
M  END
$$$$

  -OEChem-02102214153D

 34 33  0     1  0  0  0  0  0999 V2000
   -3.3155   -4.1944    2.6959 H   0  0  0  0  0  0  0  0  0  0  0  0
   -3.5015   -3.1874    2.3104 C   0  0  0  0  0  0  0  0  0  0  0  0
   -3.8072   -2.5470    3.1418 H   0  0  0  0  0  0  0  0  0  0  0  0
   -4.3100   -3.2352    1.5780 H   0  0  0  0  0  0  0  0  0  0  0  0
   -2.2433   -2.6374    1.6655 C   0  0  0  0  0  0  0  0  0  0  0  0
   -1.2526   -3.3384    1.5583 O   0  0  0  0  0  0  0  0  0  0  0  0
   -2.2246   -1.3540    1.1588 N   0  0  0  0  0  0  0  0  0  0  0  0
   -3.0264   -0.7722    1.4015 H   0  0  0  0  0  0  0  0  0  0  0  0
   -0.9695   -0.6178    0.9328 C   0  0  1  0  0  0  0  0  0  0  0  0
   -0.1686   -1.0757    1.5248 H   0  0  0  0  0  0  0  0  0  0  0  0
   -0.4806   -0.5421   -0.5357 C   0  0  0  0  0  0  0  0  0  0  0  0
    0.3565    0.1631   -0.5876 H   0  0  0  0  0  0  0  0  0  0  0  0
   -0.0714   -1.5319   -0.7653 H   0  0  0  0  0  0  0  0  0  0  0  0
   -1.4665   -0.2017   -1.6795 C   0  0  0  0  0  0  0  0  0  0  0  0
   -1.6527    0.8779   -1.6476 H   0  0  0  0  0  0  0  0  0  0  0  0
   -0.9509   -0.4138   -2.6228 H   0  0  0  0  0  0  0  0  0  0  0  0
   -2.8263   -0.9097   -1.6848 C   0  0  0  0  0  0  0  0  0  0  0  0
   -2.6808   -1.9830   -1.5201 H   0  0  0  0  0  0  0  0  0  0  0  0
   -3.4514   -0.5091   -0.8810 H   0  0  0  0  0  0  0  0  0  0  0  0
   -3.5205   -0.6738   -3.0233 C   0  0  0  0  0  0  0  0  0  0  0  0
   -3.6224    0.4088   -3.1901 H   0  0  0  0  0  0  0  0  0  0  0  0
   -2.8891   -1.0690   -3.8326 H   0  0  0  0  0  0  0  0  0  0  0  0
   -4.8415   -1.3368   -3.0053 N   0  3  0  0  0  0  0  0  0  0  0  0
   -5.4133   -0.9497   -2.2523 H   0  0  0  0  0  0  0  0  0  0  0  0
   -5.3212   -1.1894   -3.8958 H   0  0  0  0  0  0  0  0  0  0  0  0
   -4.7247   -2.3403   -2.8525 H   0  0  0  0  0  0  0  0  0  0  0  0
   -1.1565    0.8147    1.4716 C   0  0  0  0  0  0  0  0  0  0  0  0
   -2.2191    1.3897    1.2544 O   0  0  0  0  0  0  0  0  0  0  0  0
   -0.1858    1.4273    2.2406 N   0  0  0  0  0  0  0  0  0  0  0  0
    0.6598    0.9019    2.4491 H   0  0  0  0  0  0  0  0  0  0  0  0
   -0.3504    2.7522    2.8296 C   0  0  0  0  0  0  0  0  0  0  0  0
   -1.1933    2.7603    3.5288 H   0  0  0  0  0  0  0  0  0  0  0  0
    0.5533    3.0391    3.3763 H   0  0  0  0  0  0  0  0  0  0  0  0
   -0.5328    3.4998    2.0503 H   0  0  0  0  0  0  0  0  0  0  0  0
  1  2  1  0  0  0  0
  2  3  1  0  0  0  0
  2  4  1  0  0  0  0
  2  5  1  0  0  0  0
  5  6  2  0  0  0  0
  5  7  1  0  0  0  0
  7  8  1  0  0  0  0
  7  9  1  0  0  0  0
  9 10  1  0  0  0  0
  9 11  1  0  0  0  0
  9 27  1  0  0  0  0
 11 12  1  0  0  0  0
 11 13  1  0  0  0  0
 11 14  1  0  0  0  0
 14 15  1  0  0  0  0
 14 16  1  0  0  0  0
 14 17  1  0  0  0  0
 17 18  1  0  0  0  0
 17 19  1  0  0  0  0
 17 20  1  0  0  0  0
 20 21  1  0  0  0  0
 20 22  1  0  0  0  0
 20 23  1  0  0  0  0
 23 24  1  0  0  0  0
 23 25  1  0  0  0  0
 23 26  1  0  0  0  0
 27 28  2  0  0  0  0
 27 29  1  0  0  0  0
 29 30  1  0  0  0  0
 29 31  1  0  0  0  0
 31 32  1  0  0  0  0
 31 33  1  0  0  0  0
 31 34  1  0  0  0  0
M  CHG  1  23   1
M  END
$$$$

  -OEChem-02102214153D

 34 33  0     1  0  0  0  0  0999 V2000
   -3.2232   -4.2542    2.6992 H   0  0  0  0  0  0  0  0  0  0  0  0
   -3.4352   -3.2608    2.2928 C   0  0  0  0  0  0  0  0  0  0  0  0
   -3.7830   -2.6187    3.1061 H   0  0  0  0  0  0  0  0  0  0  0  0
   -4.2232   -3.3491    1.5419 H   0  0  0  0  0  0  0  0  0  0  0  0
   -2.1822   -2.6763    1.6690 C   0  0  0  0  0  0  0  0  0  0  0  0
   -1.1674   -3.3460    1.5904 O   0  0  0  0  0  0  0  0  0  0  0  0
   -2.1917   -1.3903    1.1670 N   0  0  0  0  0  0  0  0  0  0  0  0
   -3.0071   -0.8288    1.4085 H   0  0  0  0  0  0  0  0  0  0  0  0
   -0.9523   -0.6287    0.9360 C   0  0  1  0  0  0  0  0  0  0  0  0
   -0.1383   -1.0734    1.5200 H   0  0  0  0  0  0  0  0  0  0  0  0
   -0.4760   -0.5365   -0.5365 C   0  0  0  0  0  0  0  0  0  0  0  0
    0.3597    0.1700   -0.5897 H   0  0  0  0  0  0  0  0  0  0  0  0
   -0.0618   -1.5245   -0.7656 H   0  0  0  0  0  0  0  0  0  0  0  0
   -1.4585   -0.2091   -1.6910 C   0  0  0  0  0  0  0  0  0  0  0  0
   -1.4530    0.8803   -1.8124 H   0  0  0  0  0  0  0  0  0  0  0  0
   -1.0422   -0.6377   -2.6096 H   0  0  0  0  0  0  0  0  0  0  0  0
   -2.9238   -0.6402   -1.5588 C   0  0  0  0  0  0  0  0  0  0  0  0
   -2.9761   -1.7200   -1.3824 H   0  0  0  0  0  0  0  0  0  0  0  0
   -3.3830   -0.1185   -0.7136 H   0  0  0  0  0  0  0  0  0  0  0  0
   -3.6799   -0.2809   -2.8347 C   0  0  0  0  0  0  0  0  0  0  0  0
   -3.5369    0.7888   -3.0477 H   0  0  0  0  0  0  0  0  0  0  0  0
   -3.2533   -0.8406   -3.6799 H   0  0  0  0  0  0  0  0  0  0  0  0
   -5.1125   -0.5949   -2.6496 N   0  3  0  0  0  0  0  0  0  0  0  0
   -5.4817   -0.0676   -1.8556 H   0  0  0  0  0  0  0  0  0  0  0  0
   -5.6391   -0.3435   -3.4888 H   0  0  0  0  0  0  0  0  0  0  0  0
   -5.2300   -1.5934   -2.4694 H   0  0  0  0  0  0  0  0  0  0  0  0
   -1.1618    0.7985    1.4814 C   0  0  0  0  0  0  0  0  0  0  0  0
   -2.2354    1.3578    1.2730 O   0  0  0  0  0  0  0  0  0  0  0  0
   -0.1957    1.4238    2.2459 N   0  0  0  0  0  0  0  0  0  0  0  0
    0.6576    0.9087    2.4495 H   0  0  0  0  0  0  0  0  0  0  0  0
   -0.3810    2.7385    2.8517 C   0  0  0  0  0  0  0  0  0  0  0  0
   -1.2226    2.7238    3.5526 H   0  0  0  0  0  0  0  0  0  0  0  0
    0.5192    3.0334    3.4003 H   0  0  0  0  0  0  0  0  0  0  0  0
   -0.5769    3.4927    2.0821 H   0  0  0  0  0  0  0  0  0  0  0  0
  1  2  1  0  0  0  0
  2  3  1  0  0  0  0
  2  4  1  0  0  0  0
  2  5  1  0  0  0  0
  5  6  2  0  0  0  0
  5  7  1  0  0  0  0
  7  8  1  0  0  0  0
  7  9  1  0  0  0  0
  9 10  1  0  0  0  0
  9 11  1  0  0  0  0
  9 27  1  0  0  0  0
 11 12  1  0  0  0  0
 11 13  1  0  0  0  0
 11 14  1  0  0  0  0
 14 15  1  0  0  0  0
 14 16  1  0  0  0  0
 14 17  1  0  0  0  0
 17 18  1  0  0  0  0
 17 19  1  0  0  0  0
 17 20  1  0  0  0  0
 20 21  1  0  0  0  0
 20 22  1  0  0  0  0
 20 23  1  0  0  0  0
 23 24  1  0  0  0  0
 23 25  1  0  0  0  0
 23 26  1  0  0  0  0
 27 28  2  0  0  0  0
 27 29  1  0  0  0  0
 29 30  1  0  0  0  0
 29 31  1  0  0  0  0
 31 32  1  0  0  0  0
 31 33  1  0  0  0  0
 31 34  1  0  0  0  0
M  CHG  1  23   1
M  END
$$$$

  -OEChem-02102214153D

 34 33  0     1  0  0  0  0  0999 V2000
   -3.1690   -4.3120    2.5900 H   0  0  0  0  0  0  0  0  0  0  0  0
   -3.3980   -3.3029    2.2346 C   0  0  0  0  0  0  0  0  0  0  0  0
   -3.7476   -2.7061    3.0806 H   0  0  0  0  0  0  0  0  0  0  0  0
   -4.1908   -3.3656    1.4862 H   0  0  0  0  0  0  0  0  0  0  0  0
   -2.1582   -2.6718    1.6303 C   0  0  0  0  0  0  0  0  0  0  0  0
   -1.1288   -3.3165    1.5338 O   0  0  0  0  0  0  0  0  0  0  0  0
   -2.1962   -1.3724    1.1643 N   0  0  0  0  0  0  0  0  0  0  0  0
   -3.0199   -0.8354    1.4295 H   0  0  0  0  0  0  0  0  0  0  0  0
   -0.9730   -0.5835    0.9375 C   0  0  1  0  0  0  0  0  0  0  0  0
   -0.1533   -1.0298    1.5123 H   0  0  0  0  0  0  0  0  0  0  0  0
   -0.5000   -0.5057   -0.5369 C   0  0  0  0  0  0  0  0  0  0  0  0
    0.3205    0.2178   -0.5979 H   0  0  0  0  0  0  0  0  0  0  0  0
   -0.0597   -1.4871   -0.7463 H   0  0  0  0  0  0  0  0  0  0  0  0
   -1.4795   -0.2224   -1.7090 C   0  0  0  0  0  0  0  0  0  0  0  0
   -1.2936    0.8106   -2.0241 H   0  0  0  0  0  0  0  0  0  0  0  0
   -1.1963   -0.8682   -2.5478 H   0  0  0  0  0  0  0  0  0  0  0  0
   -2.9900   -0.3554   -1.4723 C   0  0  0  0  0  0  0  0  0  0  0  0
   -3.2388   -1.3958   -1.2377 H   0  0  0  0  0  0  0  0  0  0  0  0
   -3.2884    0.2765   -0.6326 H   0  0  0  0  0  0  0  0  0  0  0  0
   -3.7475    0.0890   -2.7202 C   0  0  0  0  0  0  0  0  0  0  0  0
   -3.3776    1.0770   -3.0311 H   0  0  0  0  0  0  0  0  0  0  0  0
   -3.5386   -0.6101   -3.5433 H   0  0  0  0  0  0  0  0  0  0  0  0
   -5.1912    0.1449   -2.4082 N   0  3  0  0  0  0  0  0  0  0  0  0
   -5.3477    0.7726   -1.6161 H   0  0  0  0  0  0  0  0  0  0  0  0
   -5.7127    0.4929   -3.2154 H   0  0  0  0  0  0  0  0  0  0  0  0
   -5.5330   -0.7867   -2.1667 H   0  0  0  0  0  0  0  0  0  0  0  0
   -1.1657    0.8346    1.5148 C   0  0  0  0  0  0  0  0  0  0  0  0
   -2.2447    1.4010    1.3640 O   0  0  0  0  0  0  0  0  0  0  0  0
   -0.1777    1.4369    2.2699 N   0  0  0  0  0  0  0  0  0  0  0  0
    0.6779    0.9126    2.4380 H   0  0  0  0  0  0  0  0  0  0  0  0
   -0.3448    2.7296    2.9265 C   0  0  0  0  0  0  0  0  0  0  0  0
   -1.1518    2.6845    3.6656 H   0  0  0  0  0  0  0  0  0  0  0  0
    0.5781    3.0153    3.4412 H   0  0  0  0  0  0  0  0  0  0  0  0
   -0.5826    3.5063    2.1921 H   0  0  0  0  0  0  0  0  0  0  0  0
  1  2  1  0  0  0  0
  2  3  1  0  0  0  0
  2  4  1  0  0  0  0
  2  5  1  0  0  0  0
  5  6  2  0  0  0  0
  5  7  1  0  0  0  0
  7  8  1  0  0  0  0
  7  9  1  0  0  0  0
  9 10  1  0  0  0  0
  9 11  1  0  0  0  0
  9 27  1  0  0  0  0
 11 12  1  0  0  0  0
 11 13  1  0  0  0  0
 11 14  1  0  0  0  0
 14 15  1  0  0  0  0
 14 16  1  0  0  0  0
 14 17  1  0  0  0  0
 17 18  1  0  0  0  0
 17 19  1  0  0  0  0
 17 20  1  0  0  0  0
 20 21  1  0  0  0  0
 20 22  1  0  0  0  0
 20 23  1  0  0  0  0
 23 24  1  0  0  0  0
 23 25  1  0  0  0  0
 23 26  1  0  0  0  0
 27 28  2  0  0  0  0
 27 29  1  0  0  0  0
 29 30  1  0  0  0  0
 29 31  1  0  0  0  0
 31 32  1  0  0  0  0
 31 33  1  0  0  0  0
 31 34  1  0  0  0  0
M  CHG  1  23   1
M  END
$$$$

  -OEChem-02102214153D

 34 33  0     1  0  0  0  0  0999 V2000
   -3.1678   -4.3136    2.4826 H   0  0  0  0  0  0  0  0  0  0  0  0
   -3.4026   -3.2954    2.1584 C   0  0  0  0  0  0  0  0  0  0  0  0
   -3.7535   -2.7263    3.0227 H   0  0  0  0  0  0  0  0  0  0  0  0
   -4.1968   -3.3400    1.4102 H   0  0  0  0  0  0  0  0  0  0  0  0
   -2.1682   -2.6396    1.5696 C   0  0  0  0  0  0  0  0  0  0  0  0
   -1.1370   -3.2769    1.4455 O   0  0  0  0  0  0  0  0  0  0  0  0
   -2.2128   -1.3235    1.1526 N   0  0  0  0  0  0  0  0  0  0  0  0
   -3.0360   -0.7994    1.4435 H   0  0  0  0  0  0  0  0  0  0  0  0
   -0.9958   -0.5240    0.9325 C   0  0  1  0  0  0  0  0  0  0  0  0
   -0.1772   -0.9884    1.4945 H   0  0  0  0  0  0  0  0  0  0  0  0
   -0.5255   -0.4633   -0.5439 C   0  0  0  0  0  0  0  0  0  0  0  0
    0.2742    0.2828   -0.6068 H   0  0  0  0  0  0  0  0  0  0  0  0
   -0.0548   -1.4322   -0.7444 H   0  0  0  0  0  0  0  0  0  0  0  0
   -1.5049   -0.2072   -1.7243 C   0  0  0  0  0  0  0  0  0  0  0  0
   -1.1432    0.6859   -2.2462 H   0  0  0  0  0  0  0  0  0  0  0  0
   -1.4097   -1.0444   -2.4251 H   0  0  0  0  0  0  0  0  0  0  0  0
   -2.9975   -0.0048   -1.4252 C   0  0  0  0  0  0  0  0  0  0  0  0
   -3.4359   -0.9380   -1.0589 H   0  0  0  0  0  0  0  0  0  0  0  0
   -3.1172    0.7645   -0.6620 H   0  0  0  0  0  0  0  0  0  0  0  0
   -3.7303    0.4422   -2.6867 C   0  0  0  0  0  0  0  0  0  0  0  0
   -3.1958    1.2949   -3.1307 H   0  0  0  0  0  0  0  0  0  0  0  0
   -3.7185   -0.3714   -3.4270 H   0  0  0  0  0  0  0  0  0  0  0  0
   -5.1098    0.8234   -2.3165 N   0  3  0  0  0  0  0  0  0  0  0  0
   -5.0847    1.5355   -1.5824 H   0  0  0  0  0  0  0  0  0  0  0  0
   -5.6019    1.2006   -3.1288 H   0  0  0  0  0  0  0  0  0  0  0  0
   -5.6164    0.0079   -1.9684 H   0  0  0  0  0  0  0  0  0  0  0  0
   -1.1511    0.8805    1.5560 C   0  0  0  0  0  0  0  0  0  0  0  0
   -2.2348    1.4538    1.4957 O   0  0  0  0  0  0  0  0  0  0  0  0
   -0.1306    1.4398    2.3015 N   0  0  0  0  0  0  0  0  0  0  0  0
    0.7244    0.9001    2.4149 H   0  0  0  0  0  0  0  0  0  0  0  0
   -0.2681    2.6904    3.0412 C   0  0  0  0  0  0  0  0  0  0  0  0
   -1.0443    2.5995    3.8084 H   0  0  0  0  0  0  0  0  0  0  0  0
    0.6757    2.9453    3.5341 H   0  0  0  0  0  0  0  0  0  0  0  0
   -0.5351    3.5102    2.3658 H   0  0  0  0  0  0  0  0  0  0  0  0
  1  2  1  0  0  0  0
  2  3  1  0  0  0  0
  2  4  1  0  0  0  0
  2  5  1  0  0  0  0
  5  6  2  0  0  0  0
  5  7  1  0  0  0  0
  7  8  1  0  0  0  0
  7  9  1  0  0  0  0
  9 10  1  0  0  0  0
  9 11  1  0  0  0  0
  9 27  1  0  0  0  0
 11 12  1  0  0  0  0
 11 13  1  0  0  0  0
 11 14  1  0  0  0  0
 14 15  1  0  0  0  0
 14 16  1  0  0  0  0
 14 17  1  0  0  0  0
 17 18  1  0  0  0  0
 17 19  1  0  0  0  0
 17 20  1  0  0  0  0
 20 21  1  0  0  0  0
 20 22  1  0  0  0  0
 20 23  1  0  0  0  0
 23 24  1  0  0  0  0
 23 25  1  0  0  0  0
 23 26  1  0  0  0  0
 27 28  2  0  0  0  0
 27 29  1  0  0  0  0
 29 30  1  0  0  0  0
 29 31  1  0  0  0  0
 31 32  1  0  0  0  0
 31 33  1  0  0  0  0
 31 34  1  0  0  0  0
M  CHG  1  23   1
M  END
$$$$

  -OEChem-02102214153D

 34 33  0     1  0  0  0  0  0999 V2000
   -3.2487   -4.2744    2.3665 H   0  0  0  0  0  0  0  0  0  0  0  0
   -3.4669   -3.2552    2.0342 C   0  0  0  0  0  0  0  0  0  0  0  0
   -3.8416   -2.6833    2.8865 H   0  0  0  0  0  0  0  0  0  0  0  0
   -4.2372   -3.2952    1.2609 H   0  0  0  0  0  0  0  0  0  0  0  0
   -2.2100   -2.6082    1.4847 C   0  0  0  0  0  0  0  0  0  0  0  0
   -1.1872   -3.2606    1.3673 O   0  0  0  0  0  0  0  0  0  0  0  0
   -2.2206   -1.2807    1.1038 N   0  0  0  0  0  0  0  0  0  0  0  0
   -3.0388   -0.7472    1.3917 H   0  0  0  0  0  0  0  0  0  0  0  0
   -0.9847   -0.5025    0.9170 C   0  0  1  0  0  0  0  0  0  0  0  0
   -0.1793   -0.9964    1.4727 H   0  0  0  0  0  0  0  0  0  0  0  0
   -0.5133   -0.4379   -0.5590 C   0  0  0  0  0  0  0  0  0  0  0  0
    0.2826    0.3134   -0.6060 H   0  0  0  0  0  0  0  0  0  0  0  0
   -0.0394   -1.4011   -0.7795 H   0  0  0  0  0  0  0  0  0  0  0  0
   -1.4930   -0.1459   -1.7297 C   0  0  0  0  0  0  0  0  0  0  0  0
   -0.9847    0.5303   -2.4262 H   0  0  0  0  0  0  0  0  0  0  0  0
   -1.6515   -1.0909   -2.2616 H   0  0  0  0  0  0  0  0  0  0  0  0
   -2.8779    0.4304   -1.4004 C   0  0  0  0  0  0  0  0  0  0  0  0
   -3.4619   -0.2746   -0.8051 H   0  0  0  0  0  0  0  0  0  0  0  0
   -2.7489    1.3547   -0.8334 H   0  0  0  0  0  0  0  0  0  0  0  0
   -3.6400    0.7518   -2.6813 C   0  0  0  0  0  0  0  0  0  0  0  0
   -3.0108    1.3804   -3.3283 H   0  0  0  0  0  0  0  0  0  0  0  0
   -3.8461   -0.1784   -3.2308 H   0  0  0  0  0  0  0  0  0  0  0  0
   -4.8876    1.4545   -2.3114 N   0  3  0  0  0  0  0  0  0  0  0  0
   -4.6663    2.2652   -1.7281 H   0  0  0  0  0  0  0  0  0  0  0  0
   -5.3781    1.7712   -3.1501 H   0  0  0  0  0  0  0  0  0  0  0  0
   -5.4981    0.8285   -1.7838 H   0  0  0  0  0  0  0  0  0  0  0  0
   -1.1196    0.8864    1.5788 C   0  0  0  0  0  0  0  0  0  0  0  0
   -2.1984    1.4720    1.5425 O   0  0  0  0  0  0  0  0  0  0  0  0
   -0.0960    1.4035    2.3502 N   0  0  0  0  0  0  0  0  0  0  0  0
    0.7470    0.8433    2.4554 H   0  0  0  0  0  0  0  0  0  0  0  0
   -0.2222    2.6258    3.1379 C   0  0  0  0  0  0  0  0  0  0  0  0
   -1.0168    2.5217    3.8848 H   0  0  0  0  0  0  0  0  0  0  0  0
    0.7161    2.8382    3.6603 H   0  0  0  0  0  0  0  0  0  0  0  0
   -0.4559    3.4781    2.4910 H   0  0  0  0  0  0  0  0  0  0  0  0
  1  2  1  0  0  0  0
  2  3  1  0  0  0  0
  2  4  1  0  0  0  0
  2  5  1  0  0  0  0
  5  6  2  0  0  0  0
  5  7  1  0  0  0  0
  7  8  1  0  0  0  0
  7  9  1  0  0  0  0
  9 10  1  0  0  0  0
  9 11  1  0  0  0  0
  9 27  1  0  0  0  0
 11 12  1  0  0  0  0
 11 13  1  0  0  0  0
 11 14  1  0  0  0  0
 14 15  1  0  0  0  0
 14 16  1  0  0  0  0
 14 17  1  0  0  0  0
 17 18  1  0  0  0  0
 17 19  1  0  0  0  0
 17 20  1  0  0  0  0
 20 21  1  0  0  0  0
 20 22  1  0  0  0  0
 20 23  1  0  0  0  0
 23 24  1  0  0  0  0
 23 25  1  0  0  0  0
 23 26  1  0  0  0  0
 27 28  2  0  0  0  0
 27 29  1  0  0  0  0
 29 30  1  0  0  0  0
 29 31  1  0  0  0  0
 31 32  1  0  0  0  0
 31 33  1  0  0  0  0
 31 34  1  0  0  0  0
M  CHG  1  23   1
M  END
$$$$

  -OEChem-02102214153D

 34 33  0     1  0  0  0  0  0999 V2000
   -3.3686   -4.2445    2.1767 H   0  0  0  0  0  0  0  0  0  0  0  0
   -3.5472   -3.2056    1.8840 C   0  0  0  0  0  0  0  0  0  0  0  0
   -3.9443   -2.6633    2.7456 H   0  0  0  0  0  0  0  0  0  0  0  0
   -4.2843   -3.1900    1.0780 H   0  0  0  0  0  0  0  0  0  0  0  0
   -2.2532   -2.5667    1.4177 C   0  0  0  0  0  0  0  0  0  0  0  0
   -1.2293   -3.2260    1.3635 O   0  0  0  0  0  0  0  0  0  0  0  0
   -2.2334   -1.2392    1.0365 N   0  0  0  0  0  0  0  0  0  0  0  0
   -3.0625   -0.7005    1.2785 H   0  0  0  0  0  0  0  0  0  0  0  0
   -0.9825   -0.4733    0.9001 C   0  0  1  0  0  0  0  0  0  0  0  0
   -0.2039   -0.9756    1.4859 H   0  0  0  0  0  0  0  0  0  0  0  0
   -0.4705   -0.4418   -0.5625 C   0  0  0  0  0  0  0  0  0  0  0  0
    0.3267    0.3081   -0.6070 H   0  0  0  0  0  0  0  0  0  0  0  0
    0.0009   -1.4103   -0.7644 H   0  0  0  0  0  0  0  0  0  0  0  0
   -1.4440   -0.1572   -1.7355 C   0  0  0  0  0  0  0  0  0  0  0  0
   -0.8654    0.2675   -2.5631 H   0  0  0  0  0  0  0  0  0  0  0  0
   -1.8363   -1.1219   -2.0767 H   0  0  0  0  0  0  0  0  0  0  0  0
   -2.6440    0.7489   -1.4300 C   0  0  0  0  0  0  0  0  0  0  0  0
   -3.2934    0.2924   -0.6798 H   0  0  0  0  0  0  0  0  0  0  0  0
   -2.2678    1.6986   -1.0378 H   0  0  0  0  0  0  0  0  0  0  0  0
   -3.4567    1.0277   -2.6881 C   0  0  0  0  0  0  0  0  0  0  0  0
   -2.7944    1.4310   -3.4682 H   0  0  0  0  0  0  0  0  0  0  0  0
   -3.8784    0.0867   -3.0709 H   0  0  0  0  0  0  0  0  0  0  0  0
   -4.5168    1.9960   -2.3337 N   0  3  0  0  0  0  0  0  0  0  0  0
   -4.0948    2.8427   -1.9453 H   0  0  0  0  0  0  0  0  0  0  0  0
   -5.0635    2.2439   -3.1605 H   0  0  0  0  0  0  0  0  0  0  0  0
   -5.1373    1.5903   -1.6309 H   0  0  0  0  0  0  0  0  0  0  0  0
   -1.1170    0.9213    1.5523 C   0  0  0  0  0  0  0  0  0  0  0  0
   -2.1794    1.5327    1.4690 O   0  0  0  0  0  0  0  0  0  0  0  0
   -0.1122    1.4207    2.3592 N   0  0  0  0  0  0  0  0  0  0  0  0
    0.7108    0.8395    2.5024 H   0  0  0  0  0  0  0  0  0  0  0  0
   -0.2412    2.6467    3.1405 C   0  0  0  0  0  0  0  0  0  0  0  0
   -1.0425    2.5487    3.8807 H   0  0  0  0  0  0  0  0  0  0  0  0
    0.6934    2.8576    3.6700 H   0  0  0  0  0  0  0  0  0  0  0  0
   -0.4654    3.4980    2.4890 H   0  0  0  0  0  0  0  0  0  0  0  0
  1  2  1  0  0  0  0
  2  3  1  0  0  0  0
  2  4  1  0  0  0  0
  2  5  1  0  0  0  0
  5  6  2  0  0  0  0
  5  7  1  0  0  0  0
  7  8  1  0  0  0  0
  7  9  1  0  0  0  0
  9 10  1  0  0  0  0
  9 11  1  0  0  0  0
  9 27  1  0  0  0  0
 11 12  1  0  0  0  0
 11 13  1  0  0  0  0
 11 14  1  0  0  0  0
 14 15  1  0  0  0  0
 14 16  1  0  0  0  0
 14 17  1  0  0  0  0
 17 18  1  0  0  0  0
 17 19  1  0  0  0  0
 17 20  1  0  0  0  0
 20 21  1  0  0  0  0
 20 22  1  0  0  0  0
 20 23  1  0  0  0  0
 23 24  1  0  0  0  0
 23 25  1  0  0  0  0
 23 26  1  0  0  0  0
 27 28  2  0  0  0  0
 27 29  1  0  0  0  0
 29 30  1  0  0  0  0
 29 31  1  0  0  0  0
 31 32  1  0  0  0  0
 31 33  1  0  0  0  0
 31 34  1  0  0  0  0
M  CHG  1  23   1
M  END
$$$$

  -OEChem-02102214153D

 34 33  0     1  0  0  0  0  0999 V2000
   -3.4084   -4.1933    2.1609 H   0  0  0  0  0  0  0  0  0  0  0  0
   -3.5884   -3.1775    1.7968 C   0  0  0  0  0  0  0  0  0  0  0  0
   -4.0457   -2.5948    2.6001 H   0  0  0  0  0  0  0  0  0  0  0  0
   -4.2768   -3.2247    0.9500 H   0  0  0  0  0  0  0  0  0  0  0  0
   -2.2809   -2.5390    1.3690 C   0  0  0  0  0  0  0  0  0  0  0  0
   -1.2535   -3.1949    1.3602 O   0  0  0  0  0  0  0  0  0  0  0  0
   -2.2486   -1.2123    0.9858 N   0  0  0  0  0  0  0  0  0  0  0  0
   -3.0926   -0.6766    1.1771 H   0  0  0  0  0  0  0  0  0  0  0  0
   -0.9957   -0.4444    0.8787 C   0  0  1  0  0  0  0  0  0  0  0  0
   -0.2346   -0.9467    1.4870 H   0  0  0  0  0  0  0  0  0  0  0  0
   -0.4513   -0.4494   -0.5718 C   0  0  0  0  0  0  0  0  0  0  0  0
    0.3490    0.2959   -0.6315 H   0  0  0  0  0  0  0  0  0  0  0  0
    0.0132   -1.4265   -0.7466 H   0  0  0  0  0  0  0  0  0  0  0  0
   -1.4354   -0.1957   -1.7382 C   0  0  0  0  0  0  0  0  0  0  0  0
   -0.8471   -0.0205   -2.6457 H   0  0  0  0  0  0  0  0  0  0  0  0
   -2.0199   -1.1085   -1.9002 H   0  0  0  0  0  0  0  0  0  0  0  0
   -2.4055    0.9701   -1.5206 C   0  0  0  0  0  0  0  0  0  0  0  0
   -3.1224    0.7059   -0.7385 H   0  0  0  0  0  0  0  0  0  0  0  0
   -1.8379    1.8493   -1.1969 H   0  0  0  0  0  0  0  0  0  0  0  0
   -3.1719    1.3098   -2.7919 C   0  0  0  0  0  0  0  0  0  0  0  0
   -2.4610    1.5445   -3.5977 H   0  0  0  0  0  0  0  0  0  0  0  0
   -3.7555    0.4350   -3.1137 H   0  0  0  0  0  0  0  0  0  0  0  0
   -4.0459    2.4643   -2.4904 N   0  3  0  0  0  0  0  0  0  0  0  0
   -3.4763    3.2649   -2.2082 H   0  0  0  0  0  0  0  0  0  0  0  0
   -4.5969    2.7186   -3.3123 H   0  0  0  0  0  0  0  0  0  0  0  0
   -4.6780    2.2295   -1.7222 H   0  0  0  0  0  0  0  0  0  0  0  0
   -1.1214    0.9579    1.5181 C   0  0  0  0  0  0  0  0  0  0  0  0
   -2.1628    1.5986    1.4032 O   0  0  0  0  0  0  0  0  0  0  0  0
   -0.1222    1.4460    2.3388 N   0  0  0  0  0  0  0  0  0  0  0  0
    0.6803    0.8445    2.5115 H   0  0  0  0  0  0  0  0  0  0  0  0
   -0.2560    2.6678    3.1259 C   0  0  0  0  0  0  0  0  0  0  0  0
   -1.1084    2.5934    3.8098 H   0  0  0  0  0  0  0  0  0  0  0  0
    0.6476    2.8369    3.7203 H   0  0  0  0  0  0  0  0  0  0  0  0
   -0.4039    3.5331    2.4712 H   0  0  0  0  0  0  0  0  0  0  0  0
  1  2  1  0  0  0  0
  2  3  1  0  0  0  0
  2  4  1  0  0  0  0
  2  5  1  0  0  0  0
  5  6  2  0  0  0  0
  5  7  1  0  0  0  0
  7  8  1  0  0  0  0
  7  9  1  0  0  0  0
  9 10  1  0  0  0  0
  9 11  1  0  0  0  0
  9 27  1  0  0  0  0
 11 12  1  0  0  0  0
 11 13  1  0  0  0  0
 11 14  1  0  0  0  0
 14 15  1  0  0  0  0
 14 16  1  0  0  0  0
 14 17  1  0  0  0  0
 17 18  1  0  0  0  0
 17 19  1  0  0  0  0
 17 20  1  0  0  0  0
 20 21  1  0  0  0  0
 20 22  1  0  0  0  0
 20 23  1  0  0  0  0
 23 24  1  0  0  0  0
 23 25  1  0  0  0  0
 23 26  1  0  0  0  0
 27 28  2  0  0  0  0
 27 29  1  0  0  0  0
 29 30  1  0  0  0  0
 29 31  1  0  0  0  0
 31 32  1  0  0  0  0
 31 33  1  0  0  0  0
 31 34  1  0  0  0  0
M  CHG  1  23   1
M  END
$$$$

  -OEChem-02102214153D

 34 33  0     1  0  0  0  0  0999 V2000
   -3.4598   -4.2122    2.0618 H   0  0  0  0  0  0  0  0  0  0  0  0
   -3.6209   -3.1790    1.7405 C   0  0  0  0  0  0  0  0  0  0  0  0
   -4.0903   -2.6275    2.5587 H   0  0  0  0  0  0  0  0  0  0  0  0
   -4.2909   -3.1799    0.8776 H   0  0  0  0  0  0  0  0  0  0  0  0
   -2.2980   -2.5357    1.3712 C   0  0  0  0  0  0  0  0  0  0  0  0
   -1.2680   -3.1870    1.4059 O   0  0  0  0  0  0  0  0  0  0  0  0
   -2.2570   -1.2112    0.9820 N   0  0  0  0  0  0  0  0  0  0  0  0
   -3.1126   -0.6778    1.1223 H   0  0  0  0  0  0  0  0  0  0  0  0
   -1.0069   -0.4399    0.8773 C   0  0  1  0  0  0  0  0  0  0  0  0
   -0.2484   -0.9397    1.4908 H   0  0  0  0  0  0  0  0  0  0  0  0
   -0.4579   -0.4516   -0.5697 C   0  0  0  0  0  0  0  0  0  0  0  0
    0.3516    0.2824   -0.6425 H   0  0  0  0  0  0  0  0  0  0  0  0
   -0.0089   -1.4370   -0.7381 H   0  0  0  0  0  0  0  0  0  0  0  0
   -1.4600   -0.2074   -1.7198 C   0  0  0  0  0  0  0  0  0  0  0  0
   -0.9010   -0.2696   -2.6601 H   0  0  0  0  0  0  0  0  0  0  0  0
   -2.2043   -1.0113   -1.7326 H   0  0  0  0  0  0  0  0  0  0  0  0
   -2.1734    1.1464   -1.6484 C   0  0  0  0  0  0  0  0  0  0  0  0
   -2.9558    1.0919   -0.8869 H   0  0  0  0  0  0  0  0  0  0  0  0
   -1.4570    1.9239   -1.3609 H   0  0  0  0  0  0  0  0  0  0  0  0
   -2.8179    1.5123   -2.9790 C   0  0  0  0  0  0  0  0  0  0  0  0
   -2.0448    1.5737   -3.7589 H   0  0  0  0  0  0  0  0  0  0  0  0
   -3.5202    0.7195   -3.2753 H   0  0  0  0  0  0  0  0  0  0  0  0
   -3.5095    2.8068   -2.7990 N   0  3  0  0  0  0  0  0  0  0  0  0
   -2.8296    3.5348   -2.5708 H   0  0  0  0  0  0  0  0  0  0  0  0
   -4.0051    3.0678   -3.6534 H   0  0  0  0  0  0  0  0  0  0  0  0
   -4.1804    2.7361   -2.0307 H   0  0  0  0  0  0  0  0  0  0  0  0
   -1.1256    0.9681    1.5041 C   0  0  0  0  0  0  0  0  0  0  0  0
   -2.1497    1.6282    1.3572 O   0  0  0  0  0  0  0  0  0  0  0  0
   -0.1249    1.4581    2.3224 N   0  0  0  0  0  0  0  0  0  0  0  0
    0.6590    0.8419    2.5265 H   0  0  0  0  0  0  0  0  0  0  0  0
   -0.2452    2.7001    3.0798 C   0  0  0  0  0  0  0  0  0  0  0  0
   -1.0765    2.6380    3.7902 H   0  0  0  0  0  0  0  0  0  0  0  0
    0.6744    2.8919    3.6417 H   0  0  0  0  0  0  0  0  0  0  0  0
   -0.4187    3.5469    2.4077 H   0  0  0  0  0  0  0  0  0  0  0  0
  1  2  1  0  0  0  0
  2  3  1  0  0  0  0
  2  4  1  0  0  0  0
  2  5  1  0  0  0  0
  5  6  2  0  0  0  0
  5  7  1  0  0  0  0
  7  8  1  0  0  0  0
  7  9  1  0  0  0  0
  9 10  1  0  0  0  0
  9 11  1  0  0  0  0
  9 27  1  0  0  0  0
 11 12  1  0  0  0  0
 11 13  1  0  0  0  0
 11 14  1  0  0  0  0
 14 15  1  0  0  0  0
 14 16  1  0  0  0  0
 14 17  1  0  0  0  0
 17 18  1  0  0  0  0
 17 19  1  0  0  0  0
 17 20  1  0  0  0  0
 20 21  1  0  0  0  0
 20 22  1  0  0  0  0
 20 23  1  0  0  0  0
 23 24  1  0  0  0  0
 23 25  1  0  0  0  0
 23 26  1  0  0  0  0
 27 28  2  0  0  0  0
 27 29  1  0  0  0  0
 29 30  1  0  0  0  0
 29 31  1  0  0  0  0
 31 32  1  0  0  0  0
 31 33  1  0  0  0  0
 31 34  1  0  0  0  0
M  CHG  1  23   1
M  END
$$$$

  -OEChem-02102214153D

 34 33  0     1  0  0  0  0  0999 V2000
   -3.5457   -4.1664    2.0037 H   0  0  0  0  0  0  0  0  0  0  0  0
   -3.6791   -3.1250    1.6968 C   0  0  0  0  0  0  0  0  0  0  0  0
   -4.1391   -2.5741    2.5207 H   0  0  0  0  0  0  0  0  0  0  0  0
   -4.3441   -3.0966    0.8306 H   0  0  0  0  0  0  0  0  0  0  0  0
   -2.3386   -2.5092    1.3443 C   0  0  0  0  0  0  0  0  0  0  0  0
   -1.3212   -3.1792    1.3982 O   0  0  0  0  0  0  0  0  0  0  0  0
   -2.2649   -1.1875    0.9508 N   0  0  0  0  0  0  0  0  0  0  0  0
   -3.1139   -0.6368    1.0666 H   0  0  0  0  0  0  0  0  0  0  0  0
   -0.9991   -0.4392    0.8677 C   0  0  1  0  0  0  0  0  0  0  0  0
   -0.2596   -0.9491    1.4958 H   0  0  0  0  0  0  0  0  0  0  0  0
   -0.4242   -0.4507   -0.5690 C   0  0  0  0  0  0  0  0  0  0  0  0
    0.4137    0.2519   -0.6280 H   0  0  0  0  0  0  0  0  0  0  0  0
   -0.0091   -1.4519   -0.7317 H   0  0  0  0  0  0  0  0  0  0  0  0
   -1.4069   -0.1794   -1.7298 C   0  0  0  0  0  0  0  0  0  0  0  0
   -0.9060   -0.4846   -2.6552 H   0  0  0  0  0  0  0  0  0  0  0  0
   -2.2974   -0.8083   -1.6263 H   0  0  0  0  0  0  0  0  0  0  0  0
   -1.8150    1.2932   -1.8621 C   0  0  0  0  0  0  0  0  0  0  0  0
   -2.4980    1.5512   -1.0522 H   0  0  0  0  0  0  0  0  0  0  0  0
   -0.9285    1.9323   -1.7867 H   0  0  0  0  0  0  0  0  0  0  0  0
   -2.5269    1.5439   -3.1862 C   0  0  0  0  0  0  0  0  0  0  0  0
   -1.8402    1.3338   -4.0193 H   0  0  0  0  0  0  0  0  0  0  0  0
   -3.3746    0.8492   -3.2781 H   0  0  0  0  0  0  0  0  0  0  0  0
   -2.9858    2.9497   -3.2020 N   0  3  0  0  0  0  0  0  0  0  0  0
   -2.1817    3.5793   -3.1745 H   0  0  0  0  0  0  0  0  0  0  0  0
   -3.5277    3.1367   -4.0480 H   0  0  0  0  0  0  0  0  0  0  0  0
   -3.5718    3.1303   -2.3834 H   0  0  0  0  0  0  0  0  0  0  0  0
   -1.1183    0.9693    1.4890 C   0  0  0  0  0  0  0  0  0  0  0  0
   -2.1379    1.6307    1.3236 O   0  0  0  0  0  0  0  0  0  0  0  0
   -0.1326    1.4525    2.3298 N   0  0  0  0  0  0  0  0  0  0  0  0
    0.6392    0.8284    2.5545 H   0  0  0  0  0  0  0  0  0  0  0  0
   -0.2672    2.6894    3.0935 C   0  0  0  0  0  0  0  0  0  0  0  0
   -1.0940    2.6114    3.8077 H   0  0  0  0  0  0  0  0  0  0  0  0
    0.6526    2.8933    3.6509 H   0  0  0  0  0  0  0  0  0  0  0  0
   -0.4576    3.5365    2.4261 H   0  0  0  0  0  0  0  0  0  0  0  0
  1  2  1  0  0  0  0
  2  3  1  0  0  0  0
  2  4  1  0  0  0  0
  2  5  1  0  0  0  0
  5  6  2  0  0  0  0
  5  7  1  0  0  0  0
  7  8  1  0  0  0  0
  7  9  1  0  0  0  0
  9 10  1  0  0  0  0
  9 11  1  0  0  0  0
  9 27  1  0  0  0  0
 11 12  1  0  0  0  0
 11 13  1  0  0  0  0
 11 14  1  0  0  0  0
 14 15  1  0  0  0  0
 14 16  1  0  0  0  0
 14 17  1  0  0  0  0
 17 18  1  0  0  0  0
 17 19  1  0  0  0  0
 17 20  1  0  0  0  0
 20 21  1  0  0  0  0
 20 22  1  0  0  0  0
 20 23  1  0  0  0  0
 23 24  1  0  0  0  0
 23 25  1  0  0  0  0
 23 26  1  0  0  0  0
 27 28  2  0  0  0  0
 27 29  1  0  0  0  0
 29 30  1  0  0  0  0
 29 31  1  0  0  0  0
 31 32  1  0  0  0  0
 31 33  1  0  0  0  0
 31 34  1  0  0  0  0
M  CHG  1  23   1
M  END
$$$$

  -OEChem-02102214153D

 34 33  0     1  0  0  0  0  0999 V2000
   -3.9838   -3.7066    1.9614 H   0  0  0  0  0  0  0  0  0  0  0  0
   -3.9693   -2.7501    1.4304 C   0  0  0  0  0  0  0  0  0  0  0  0
   -4.5411   -2.0212    2.0094 H   0  0  0  0  0  0  0  0  0  0  0  0
   -4.4411   -2.8841    0.4544 H   0  0  0  0  0  0  0  0  0  0  0  0
   -2.5398   -2.2744    1.2553 C   0  0  0  0  0  0  0  0  0  0  0  0
   -1.6126   -2.9730    1.6245 O   0  0  0  0  0  0  0  0  0  0  0  0
   -2.2803   -1.0487    0.6709 N   0  0  0  0  0  0  0  0  0  0  0  0
   -3.0848   -0.4382    0.5573 H   0  0  0  0  0  0  0  0  0  0  0  0
   -0.9484   -0.4142    0.7195 C   0  0  1  0  0  0  0  0  0  0  0  0
   -0.3555   -0.8583    1.5278 H   0  0  0  0  0  0  0  0  0  0  0  0
   -0.1656   -0.6242   -0.6008 C   0  0  0  0  0  0  0  0  0  0  0  0
    0.7474   -0.0190   -0.5905 H   0  0  0  0  0  0  0  0  0  0  0  0
    0.1554   -1.6719   -0.6029 H   0  0  0  0  0  0  0  0  0  0  0  0
   -0.9393   -0.3911   -1.9187 C   0  0  0  0  0  0  0  0  0  0  0  0
   -0.5155   -1.0420   -2.6919 H   0  0  0  0  0  0  0  0  0  0  0  0
   -1.9847   -0.6900   -1.8024 H   0  0  0  0  0  0  0  0  0  0  0  0
   -0.8403    1.0694   -2.4113 C   0  0  0  0  0  0  0  0  0  0  0  0
   -0.5329    1.7467   -1.6087 H   0  0  0  0  0  0  0  0  0  0  0  0
   -0.0476    1.1127   -3.1666 H   0  0  0  0  0  0  0  0  0  0  0  0
   -2.1434    1.5581   -3.0469 C   0  0  0  0  0  0  0  0  0  0  0  0
   -1.9050    2.2399   -3.8762 H   0  0  0  0  0  0  0  0  0  0  0  0
   -2.6803    0.7019   -3.4801 H   0  0  0  0  0  0  0  0  0  0  0  0
   -2.9524    2.2550   -2.0235 N   0  3  0  0  0  0  0  0  0  0  0  0
   -2.7809    3.2598   -2.0631 H   0  0  0  0  0  0  0  0  0  0  0  0
   -3.9464    2.0792   -2.1648 H   0  0  0  0  0  0  0  0  0  0  0  0
   -2.6839    1.9289   -1.0816 H   0  0  0  0  0  0  0  0  0  0  0  0
   -1.1056    1.0770    1.0741 C   0  0  0  0  0  0  0  0  0  0  0  0
   -2.0048    1.7257    0.5349 O   0  0  0  0  0  0  0  0  0  0  0  0
   -0.2914    1.6818    2.0106 N   0  0  0  0  0  0  0  0  0  0  0  0
    0.3854    1.0947    2.4954 H   0  0  0  0  0  0  0  0  0  0  0  0
   -0.4653    3.0571    2.4670 C   0  0  0  0  0  0  0  0  0  0  0  0
   -1.4535    3.1907    2.9201 H   0  0  0  0  0  0  0  0  0  0  0  0
    0.2925    3.3049    3.2174 H   0  0  0  0  0  0  0  0  0  0  0  0
   -0.3616    3.7572    1.6315 H   0  0  0  0  0  0  0  0  0  0  0  0
  1  2  1  0  0  0  0
  2  3  1  0  0  0  0
  2  4  1  0  0  0  0
  2  5  1  0  0  0  0
  5  6  2  0  0  0  0
  5  7  1  0  0  0  0
  7  8  1  0  0  0  0
  7  9  1  0  0  0  0
  9 10  1  0  0  0  0
  9 11  1  0  0  0  0
  9 27  1  0  0  0  0
 11 12  1  0  0  0  0
 11 13  1  0  0  0  0
 11 14  1  0  0  0  0
 14 15  1  0  0  0  0
 14 16  1  0  0  0  0
 14 17  1  0  0  0  0
 17 18  1  0  0  0  0
 17 19  1  0  0  0  0
 17 20  1  0  0  0  0
 20 21  1  0  0  0  0
 20 22  1  0  0  0  0
 20 23  1  0  0  0  0
 23 24  1  0  0  0  0
 23 25  1  0  0  0  0
 23 26  1  0  0  0  0
 27 28  2  0  0  0  0
 27 29  1  0  0  0  0
 29 30  1  0  0  0  0
 29 31  1  0  0  0  0
 31 32  1  0  0  0  0
 31 33  1  0  0  0  0
 31 34  1  0  0  0  0
M  CHG  1  23   1
M  END
$$$$

  -OEChem-02102214153D

 34 33  0     1  0  0  0  0  0999 V2000
   -3.7170   -4.0951    1.9807 H   0  0  0  0  0  0  0  0  0  0  0  0
   -3.7816   -3.0818    1.5739 C   0  0  0  0  0  0  0  0  0  0  0  0
   -4.3365   -2.4559    2.2769 H   0  0  0  0  0  0  0  0  0  0  0  0
   -4.3202   -3.1192    0.6241 H   0  0  0  0  0  0  0  0  0  0  0  0
   -2.3906   -2.5161    1.3627 C   0  0  0  0  0  0  0  0  0  0  0  0
   -1.4082   -3.1717    1.6654 O   0  0  0  0  0  0  0  0  0  0  0  0
   -2.2302   -1.2557    0.8220 N   0  0  0  0  0  0  0  0  0  0  0  0
   -3.0739   -0.6933    0.7265 H   0  0  0  0  0  0  0  0  0  0  0  0
   -0.9420   -0.5402    0.8079 C   0  0  1  0  0  0  0  0  0  0  0  0
   -0.2602   -0.9881    1.5398 H   0  0  0  0  0  0  0  0  0  0  0  0
   -0.2610   -0.6046   -0.5799 C   0  0  0  0  0  0  0  0  0  0  0  0
    0.6090    0.0607   -0.6002 H   0  0  0  0  0  0  0  0  0  0  0  0
    0.1239   -1.6244   -0.6918 H   0  0  0  0  0  0  0  0  0  0  0  0
   -1.1889   -0.3302   -1.7858 C   0  0  0  0  0  0  0  0  0  0  0  0
   -0.9893   -1.0741   -2.5650 H   0  0  0  0  0  0  0  0  0  0  0  0
   -2.2410   -0.4348   -1.5073 H   0  0  0  0  0  0  0  0  0  0  0  0
   -0.9388    1.0713   -2.3607 C   0  0  0  0  0  0  0  0  0  0  0  0
   -0.8684    1.7927   -1.5409 H   0  0  0  0  0  0  0  0  0  0  0  0
    0.0136    1.0871   -2.9018 H   0  0  0  0  0  0  0  0  0  0  0  0
   -2.0860    1.4715   -3.2830 C   0  0  0  0  0  0  0  0  0  0  0  0
   -2.0501    0.8645   -4.1993 H   0  0  0  0  0  0  0  0  0  0  0  0
   -3.0406    1.2517   -2.7826 H   0  0  0  0  0  0  0  0  0  0  0  0
   -1.9741    2.9156   -3.5755 N   0  3  0  0  0  0  0  0  0  0  0  0
   -1.0759    3.1149   -4.0184 H   0  0  0  0  0  0  0  0  0  0  0  0
   -2.7280    3.2091   -4.1994 H   0  0  0  0  0  0  0  0  0  0  0  0
   -2.0396    3.4460   -2.7030 H   0  0  0  0  0  0  0  0  0  0  0  0
   -1.1482    0.9275    1.2368 C   0  0  0  0  0  0  0  0  0  0  0  0
   -2.0575    1.5845    0.7343 O   0  0  0  0  0  0  0  0  0  0  0  0
   -0.2913    1.5260    2.1409 N   0  0  0  0  0  0  0  0  0  0  0  0
    0.3897    0.9269    2.6029 H   0  0  0  0  0  0  0  0  0  0  0  0
   -0.4923    2.8737    2.6632 C   0  0  0  0  0  0  0  0  0  0  0  0
   -1.4289    2.9303    3.2283 H   0  0  0  0  0  0  0  0  0  0  0  0
    0.3307    3.1470    3.3312 H   0  0  0  0  0  0  0  0  0  0  0  0
   -0.5277    3.6038    1.8479 H   0  0  0  0  0  0  0  0  0  0  0  0
  1  2  1  0  0  0  0
  2  3  1  0  0  0  0
  2  4  1  0  0  0  0
  2  5  1  0  0  0  0
  5  6  2  0  0  0  0
  5  7  1  0  0  0  0
  7  8  1  0  0  0  0
  7  9  1  0  0  0  0
  9 10  1  0  0  0  0
  9 11  1  0  0  0  0
  9 27  1  0  0  0  0
 11 12  1  0  0  0  0
 11 13  1  0  0  0  0
 11 14  1  0  0  0  0
 14 15  1  0  0  0  0
 14 16  1  0  0  0  0
 14 17  1  0  0  0  0
 17 18  1  0  0  0  0
 17 19  1  0  0  0  0
 17 20  1  0  0  0  0
 20 21  1  0  0  0  0
 20 22  1  0  0  0  0
 20 23  1  0  0  0  0
 23 24  1  0  0  0  0
 23 25  1  0  0  0  0
 23 26  1  0  0  0  0
 27 28  2  0  0  0  0
 27 29  1  0  0  0  0
 29 30  1  0  0  0  0
 29 31  1  0  0  0  0
 31 32  1  0  0  0  0
 31 33  1  0  0  0  0
 31 34  1  0  0  0  0
M  CHG  1  23   1
M  END
$$$$

  -OEChem-02102214153D

 34 33  0     1  0  0  0  0  0999 V2000
   -3.6891   -4.1140    2.0434 H   0  0  0  0  0  0  0  0  0  0  0  0
   -3.7614   -3.1172    1.5987 C   0  0  0  0  0  0  0  0  0  0  0  0
   -4.3311   -2.4733    2.2730 H   0  0  0  0  0  0  0  0  0  0  0  0
   -4.2895   -3.1955    0.6455 H   0  0  0  0  0  0  0  0  0  0  0  0
   -2.3746   -2.5435    1.3793 C   0  0  0  0  0  0  0  0  0  0  0  0
   -1.3867   -3.1970    1.6692 O   0  0  0  0  0  0  0  0  0  0  0  0
   -2.2228   -1.2799    0.8441 N   0  0  0  0  0  0  0  0  0  0  0  0
   -3.0693   -0.7216    0.7476 H   0  0  0  0  0  0  0  0  0  0  0  0
   -0.9371   -0.5601    0.8228 C   0  0  1  0  0  0  0  0  0  0  0  0
   -0.2389   -1.0144    1.5346 H   0  0  0  0  0  0  0  0  0  0  0  0
   -0.2940   -0.5986   -0.5804 C   0  0  0  0  0  0  0  0  0  0  0  0
    0.5614    0.0852   -0.6031 H   0  0  0  0  0  0  0  0  0  0  0  0
    0.1075   -1.6069   -0.7303 H   0  0  0  0  0  0  0  0  0  0  0  0
   -1.2696   -0.3009   -1.7434 C   0  0  0  0  0  0  0  0  0  0  0  0
   -1.3143   -1.1713   -2.4074 H   0  0  0  0  0  0  0  0  0  0  0  0
   -2.2839   -0.1237   -1.3731 H   0  0  0  0  0  0  0  0  0  0  0  0
   -0.8116    0.9315   -2.5302 C   0  0  0  0  0  0  0  0  0  0  0  0
   -0.6655    1.7639   -1.8322 H   0  0  0  0  0  0  0  0  0  0  0  0
    0.1455    0.7239   -3.0210 H   0  0  0  0  0  0  0  0  0  0  0  0
   -1.8686    1.3133   -3.5613 C   0  0  0  0  0  0  0  0  0  0  0  0
   -1.9580    0.5110   -4.3082 H   0  0  0  0  0  0  0  0  0  0  0  0
   -2.8437    1.4009   -3.0591 H   0  0  0  0  0  0  0  0  0  0  0  0
   -1.4817    2.5958   -4.1859 N   0  3  0  0  0  0  0  0  0  0  0  0
   -0.5685    2.5050   -4.6344 H   0  0  0  0  0  0  0  0  0  0  0  0
   -2.1730    2.8685   -4.8875 H   0  0  0  0  0  0  0  0  0  0  0  0
   -1.4296    3.3248   -3.4707 H   0  0  0  0  0  0  0  0  0  0  0  0
   -1.1323    0.9063    1.2602 C   0  0  0  0  0  0  0  0  0  0  0  0
   -2.0193    1.5789    0.7415 O   0  0  0  0  0  0  0  0  0  0  0  0
   -0.2644    1.4982    2.1581 N   0  0  0  0  0  0  0  0  0  0  0  0
    0.4090    0.8938    2.6242 H   0  0  0  0  0  0  0  0  0  0  0  0
   -0.4466    2.8543    2.6651 C   0  0  0  0  0  0  0  0  0  0  0  0
   -1.3971    2.9387    3.2030 H   0  0  0  0  0  0  0  0  0  0  0  0
    0.3636    3.1131    3.3539 H   0  0  0  0  0  0  0  0  0  0  0  0
   -0.4419    3.5772    1.8425 H   0  0  0  0  0  0  0  0  0  0  0  0
  1  2  1  0  0  0  0
  2  3  1  0  0  0  0
  2  4  1  0  0  0  0
  2  5  1  0  0  0  0
  5  6  2  0  0  0  0
  5  7  1  0  0  0  0
  7  8  1  0  0  0  0
  7  9  1  0  0  0  0
  9 10  1  0  0  0  0
  9 11  1  0  0  0  0
  9 27  1  0  0  0  0
 11 12  1  0  0  0  0
 11 13  1  0  0  0  0
 11 14  1  0  0  0  0
 14 15  1  0  0  0  0
 14 16  1  0  0  0  0
 14 17  1  0  0  0  0
 17 18  1  0  0  0  0
 17 19  1  0  0  0  0
 17 20  1  0  0  0  0
 20 21  1  0  0  0  0
 20 22  1  0  0  0  0
 20 23  1  0  0  0  0
 23 24  1  0  0  0  0
 23 25  1  0  0  0  0
 23 26  1  0  0  0  0
 27 28  2  0  0  0  0
 27 29  1  0  0  0  0
 29 30  1  0  0  0  0
 29 31  1  0  0  0  0
 31 32  1  0  0  0  0
 31 33  1  0  0  0  0
 31 34  1  0  0  0  0
M  CHG  1  23   1
M  END
$$$$

  -OEChem-02102214153D

 34 33  0     1  0  0  0  0  0999 V2000
   -3.6829   -4.1054    2.0327 H   0  0  0  0  0  0  0  0  0  0  0  0
   -3.7572   -3.1149    1.5746 C   0  0  0  0  0  0  0  0  0  0  0  0
   -4.3308   -2.4643    2.2391 H   0  0  0  0  0  0  0  0  0  0  0  0
   -4.2830   -3.2070    0.6215 H   0  0  0  0  0  0  0  0  0  0  0  0
   -2.3718   -2.5392    1.3507 C   0  0  0  0  0  0  0  0  0  0  0  0
   -1.3819   -3.2060    1.6018 O   0  0  0  0  0  0  0  0  0  0  0  0
   -2.2237   -1.2623    0.8469 N   0  0  0  0  0  0  0  0  0  0  0  0
   -3.0700   -0.6989    0.7818 H   0  0  0  0  0  0  0  0  0  0  0  0
   -0.9392   -0.5405    0.8347 C   0  0  1  0  0  0  0  0  0  0  0  0
   -0.2400   -1.0113    1.5348 H   0  0  0  0  0  0  0  0  0  0  0  0
   -0.3059   -0.5749   -0.5724 C   0  0  0  0  0  0  0  0  0  0  0  0
    0.5309    0.1317   -0.5910 H   0  0  0  0  0  0  0  0  0  0  0  0
    0.1168   -1.5722   -0.7374 H   0  0  0  0  0  0  0  0  0  0  0  0
   -1.2956   -0.2729   -1.7204 C   0  0  0  0  0  0  0  0  0  0  0  0
   -1.5724   -1.2119   -2.2127 H   0  0  0  0  0  0  0  0  0  0  0  0
   -2.2154    0.1711   -1.3266 H   0  0  0  0  0  0  0  0  0  0  0  0
   -0.6878    0.7054   -2.7316 C   0  0  0  0  0  0  0  0  0  0  0  0
   -0.3878    1.6215   -2.2100 H   0  0  0  0  0  0  0  0  0  0  0  0
    0.2052    0.2594   -3.1831 H   0  0  0  0  0  0  0  0  0  0  0  0
   -1.7149    1.0419   -3.8090 C   0  0  0  0  0  0  0  0  0  0  0  0
   -1.9961    0.1222   -4.3424 H   0  0  0  0  0  0  0  0  0  0  0  0
   -2.6254    1.4298   -3.3282 H   0  0  0  0  0  0  0  0  0  0  0  0
   -1.1359    2.0425   -4.7312 N   0  3  0  0  0  0  0  0  0  0  0  0
   -0.2906    1.6689   -5.1666 H   0  0  0  0  0  0  0  0  0  0  0  0
   -1.8103    2.2789   -5.4621 H   0  0  0  0  0  0  0  0  0  0  0  0
   -0.8960    2.8913   -4.2147 H   0  0  0  0  0  0  0  0  0  0  0  0
   -1.1210    0.9167    1.3089 C   0  0  0  0  0  0  0  0  0  0  0  0
   -2.0255    1.5980    0.8370 O   0  0  0  0  0  0  0  0  0  0  0  0
   -0.2416    1.4834    2.2120 N   0  0  0  0  0  0  0  0  0  0  0  0
    0.4437    0.8706    2.6478 H   0  0  0  0  0  0  0  0  0  0  0  0
   -0.4059    2.8322    2.7443 C   0  0  0  0  0  0  0  0  0  0  0  0
   -1.3535    2.9183    3.2871 H   0  0  0  0  0  0  0  0  0  0  0  0
    0.4100    3.0698    3.4344 H   0  0  0  0  0  0  0  0  0  0  0  0
   -0.3962    3.5693    1.9345 H   0  0  0  0  0  0  0  0  0  0  0  0
  1  2  1  0  0  0  0
  2  3  1  0  0  0  0
  2  4  1  0  0  0  0
  2  5  1  0  0  0  0
  5  6  2  0  0  0  0
  5  7  1  0  0  0  0
  7  8  1  0  0  0  0
  7  9  1  0  0  0  0
  9 10  1  0  0  0  0
  9 11  1  0  0  0  0
  9 27  1  0  0  0  0
 11 12  1  0  0  0  0
 11 13  1  0  0  0  0
 11 14  1  0  0  0  0
 14 15  1  0  0  0  0
 14 16  1  0  0  0  0
 14 17  1  0  0  0  0
 17 18  1  0  0  0  0
 17 19  1  0  0  0  0
 17 20  1  0  0  0  0
 20 21  1  0  0  0  0
 20 22  1  0  0  0  0
 20 23  1  0  0  0  0
 23 24  1  0  0  0  0
 23 25  1  0  0  0  0
 23 26  1  0  0  0  0
 27 28  2  0  0  0  0
 27 29  1  0  0  0  0
 29 30  1  0  0  0  0
 29 31  1  0  0  0  0
 31 32  1  0  0  0  0
 31 33  1  0  0  0  0
 31 34  1  0  0  0  0
M  CHG  1  23   1
M  END
$$$$

  -OEChem-02102214153D

 34 33  0     1  0  0  0  0  0999 V2000
   -3.6813   -4.0913    2.0072 H   0  0  0  0  0  0  0  0  0  0  0  0
   -3.7574   -3.0932    1.5661 C   0  0  0  0  0  0  0  0  0  0  0  0
   -4.3146   -2.4494    2.2512 H   0  0  0  0  0  0  0  0  0  0  0  0
   -4.3014   -3.1671    0.6215 H   0  0  0  0  0  0  0  0  0  0  0  0
   -2.3726   -2.5225    1.3265 C   0  0  0  0  0  0  0  0  0  0  0  0
   -1.3823   -3.2011    1.5422 O   0  0  0  0  0  0  0  0  0  0  0  0
   -2.2254   -1.2392    0.8400 N   0  0  0  0  0  0  0  0  0  0  0  0
   -3.0693   -0.6693    0.7996 H   0  0  0  0  0  0  0  0  0  0  0  0
   -0.9400   -0.5202    0.8304 C   0  0  1  0  0  0  0  0  0  0  0  0
   -0.2436   -0.9998    1.5272 H   0  0  0  0  0  0  0  0  0  0  0  0
   -0.3080   -0.5632   -0.5758 C   0  0  0  0  0  0  0  0  0  0  0  0
    0.5194    0.1540   -0.5992 H   0  0  0  0  0  0  0  0  0  0  0  0
    0.1214   -1.5575   -0.7401 H   0  0  0  0  0  0  0  0  0  0  0  0
   -1.3029   -0.2645   -1.7158 C   0  0  0  0  0  0  0  0  0  0  0  0
   -1.7905   -1.1967   -2.0225 H   0  0  0  0  0  0  0  0  0  0  0  0
   -2.0857    0.4152   -1.3643 H   0  0  0  0  0  0  0  0  0  0  0  0
   -0.5967    0.3923   -2.9059 C   0  0  0  0  0  0  0  0  0  0  0  0
   -0.1110    1.3169   -2.5741 H   0  0  0  0  0  0  0  0  0  0  0  0
    0.1763   -0.2828   -3.2894 H   0  0  0  0  0  0  0  0  0  0  0  0
   -1.6140    0.7069   -3.9989 C   0  0  0  0  0  0  0  0  0  0  0  0
   -2.0929   -0.2272   -4.3276 H   0  0  0  0  0  0  0  0  0  0  0  0
   -2.4049    1.3469   -3.5800 H   0  0  0  0  0  0  0  0  0  0  0  0
   -0.9243    1.3797   -5.1206 N   0  3  0  0  0  0  0  0  0  0  0  0
   -0.1923    0.7729   -5.4948 H   0  0  0  0  0  0  0  0  0  0  0  0
   -1.5910    1.5945   -5.8652 H   0  0  0  0  0  0  0  0  0  0  0  0
   -0.4994    2.2503   -4.7950 H   0  0  0  0  0  0  0  0  0  0  0  0
   -1.1131    0.9312    1.3255 C   0  0  0  0  0  0  0  0  0  0  0  0
   -2.0458    1.6061    0.9041 O   0  0  0  0  0  0  0  0  0  0  0  0
   -0.2257    1.4832    2.2302 N   0  0  0  0  0  0  0  0  0  0  0  0
    0.4767    0.8687    2.6348 H   0  0  0  0  0  0  0  0  0  0  0  0
   -0.3961    2.8155    2.8011 C   0  0  0  0  0  0  0  0  0  0  0  0
   -1.3380    2.8776    3.3571 H   0  0  0  0  0  0  0  0  0  0  0  0
    0.4255    3.0416    3.4883 H   0  0  0  0  0  0  0  0  0  0  0  0
   -0.4028    3.5747    2.0118 H   0  0  0  0  0  0  0  0  0  0  0  0
  1  2  1  0  0  0  0
  2  3  1  0  0  0  0
  2  4  1  0  0  0  0
  2  5  1  0  0  0  0
  5  6  2  0  0  0  0
  5  7  1  0  0  0  0
  7  8  1  0  0  0  0
  7  9  1  0  0  0  0
  9 10  1  0  0  0  0
  9 11  1  0  0  0  0
  9 27  1  0  0  0  0
 11 12  1  0  0  0  0
 11 13  1  0  0  0  0
 11 14  1  0  0  0  0
 14 15  1  0  0  0  0
 14 16  1  0  0  0  0
 14 17  1  0  0  0  0
 17 18  1  0  0  0  0
 17 19  1  0  0  0  0
 17 20  1  0  0  0  0
 20 21  1  0  0  0  0
 20 22  1  0  0  0  0
 20 23  1  0  0  0  0
 23 24  1  0  0  0  0
 23 25  1  0  0  0  0
 23 26  1  0  0  0  0
 27 28  2  0  0  0  0
 27 29  1  0  0  0  0
 29 30  1  0  0  0  0
 29 31  1  0  0  0  0
 31 32  1  0  0  0  0
 31 33  1  0  0  0  0
 31 34  1  0  0  0  0
M  CHG  1  23   1
M  END
$$$$

  -OEChem-02102214153D

 34 33  0     1  0  0  0  0  0999 V2000
   -3.6847   -4.0788    2.0265 H   0  0  0  0  0  0  0  0  0  0  0  0
   -3.7616   -3.0794    1.5887 C   0  0  0  0  0  0  0  0  0  0  0  0
   -4.3020   -2.4332    2.2848 H   0  0  0  0  0  0  0  0  0  0  0  0
   -4.3220   -3.1469    0.6534 H   0  0  0  0  0  0  0  0  0  0  0  0
   -2.3775   -2.5185    1.3255 C   0  0  0  0  0  0  0  0  0  0  0  0
   -1.3888   -3.2075    1.5142 O   0  0  0  0  0  0  0  0  0  0  0  0
   -2.2292   -1.2344    0.8422 N   0  0  0  0  0  0  0  0  0  0  0  0
   -3.0693   -0.6571    0.8213 H   0  0  0  0  0  0  0  0  0  0  0  0
   -0.9407   -0.5213    0.8253 C   0  0  1  0  0  0  0  0  0  0  0  0
   -0.2433   -1.0045    1.5185 H   0  0  0  0  0  0  0  0  0  0  0  0
   -0.3130   -0.5632   -0.5831 C   0  0  0  0  0  0  0  0  0  0  0  0
    0.5165    0.1514   -0.6136 H   0  0  0  0  0  0  0  0  0  0  0  0
    0.1084   -1.5608   -0.7477 H   0  0  0  0  0  0  0  0  0  0  0  0
   -1.3090   -0.2585   -1.7180 C   0  0  0  0  0  0  0  0  0  0  0  0
   -1.9797   -1.1142   -1.8550 H   0  0  0  0  0  0  0  0  0  0  0  0
   -1.9231    0.6079   -1.4511 H   0  0  0  0  0  0  0  0  0  0  0  0
   -0.5680    0.0456   -3.0234 C   0  0  0  0  0  0  0  0  0  0  0  0
    0.0984    0.9021   -2.8722 H   0  0  0  0  0  0  0  0  0  0  0  0
    0.0443   -0.8189   -3.3032 H   0  0  0  0  0  0  0  0  0  0  0  0
   -1.5744    0.3586   -4.1275 C   0  0  0  0  0  0  0  0  0  0  0  0
   -2.2431   -0.5043   -4.2622 H   0  0  0  0  0  0  0  0  0  0  0  0
   -2.2002    1.2076   -3.8146 H   0  0  0  0  0  0  0  0  0  0  0  0
   -0.8425    0.6675   -5.3746 N   0  3  0  0  0  0  0  0  0  0  0  0
   -0.2653   -0.1304   -5.6469 H   0  0  0  0  0  0  0  0  0  0  0  0
   -1.5026    0.8725   -6.1278 H   0  0  0  0  0  0  0  0  0  0  0  0
   -0.2393    1.4799   -5.2323 H   0  0  0  0  0  0  0  0  0  0  0  0
   -1.1119    0.9275    1.3279 C   0  0  0  0  0  0  0  0  0  0  0  0
   -2.0628    1.5923    0.9325 O   0  0  0  0  0  0  0  0  0  0  0  0
   -0.2210    1.4789    2.2296 N   0  0  0  0  0  0  0  0  0  0  0  0
    0.4978    0.8707    2.6141 H   0  0  0  0  0  0  0  0  0  0  0  0
   -0.3976    2.8046    2.8141 C   0  0  0  0  0  0  0  0  0  0  0  0
   -1.3359    2.8543    3.3770 H   0  0  0  0  0  0  0  0  0  0  0  0
    0.4269    3.0308    3.4976 H   0  0  0  0  0  0  0  0  0  0  0  0
   -0.4158    3.5713    2.0322 H   0  0  0  0  0  0  0  0  0  0  0  0
  1  2  1  0  0  0  0
  2  3  1  0  0  0  0
  2  4  1  0  0  0  0
  2  5  1  0  0  0  0
  5  6  2  0  0  0  0
  5  7  1  0  0  0  0
  7  8  1  0  0  0  0
  7  9  1  0  0  0  0
  9 10  1  0  0  0  0
  9 11  1  0  0  0  0
  9 27  1  0  0  0  0
 11 12  1  0  0  0  0
 11 13  1  0  0  0  0
 11 14  1  0  0  0  0
 14 15  1  0  0  0  0
 14 16  1  0  0  0  0
 14 17  1  0  0  0  0
 17 18  1  0  0  0  0
 17 19  1  0  0  0  0
 17 20  1  0  0  0  0
 20 21  1  0  0  0  0
 20 22  1  0  0  0  0
 20 23  1  0  0  0  0
 23 24  1  0  0  0  0
 23 25  1  0  0  0  0
 23 26  1  0  0  0  0
 27 28  2  0  0  0  0
 27 29  1  0  0  0  0
 29 30  1  0  0  0  0
 29 31  1  0  0  0  0
 31 32  1  0  0  0  0
 31 33  1  0  0  0  0
 31 34  1  0  0  0  0
M  CHG  1  23   1
M  END
$$$$

  -OEChem-02102214153D

 34 33  0     1  0  0  0  0  0999 V2000
   -3.6721   -4.0701    1.9678 H   0  0  0  0  0  0  0  0  0  0  0  0
   -3.7527   -3.0626    1.5494 C   0  0  0  0  0  0  0  0  0  0  0  0
   -4.2859   -2.4293    2.2627 H   0  0  0  0  0  0  0  0  0  0  0  0
   -4.3228   -3.1123    0.6188 H   0  0  0  0  0  0  0  0  0  0  0  0
   -2.3709   -2.4971    1.2828 C   0  0  0  0  0  0  0  0  0  0  0  0
   -1.3806   -3.1902    1.4477 O   0  0  0  0  0  0  0  0  0  0  0  0
   -2.2271   -1.2032    0.8242 N   0  0  0  0  0  0  0  0  0  0  0  0
   -3.0683   -0.6271    0.8225 H   0  0  0  0  0  0  0  0  0  0  0  0
   -0.9420   -0.4850    0.8197 C   0  0  1  0  0  0  0  0  0  0  0  0
   -0.2504   -0.9809    1.5100 H   0  0  0  0  0  0  0  0  0  0  0  0
   -0.3128   -0.5404   -0.5868 C   0  0  0  0  0  0  0  0  0  0  0  0
    0.6570   -0.0326   -0.5566 H   0  0  0  0  0  0  0  0  0  0  0  0
   -0.1261   -1.5903   -0.8381 H   0  0  0  0  0  0  0  0  0  0  0  0
   -1.1857    0.0939   -1.6846 C   0  0  0  0  0  0  0  0  0  0  0  0
   -2.1541   -0.4161   -1.7257 H   0  0  0  0  0  0  0  0  0  0  0  0
   -1.3710    1.1473   -1.4498 H   0  0  0  0  0  0  0  0  0  0  0  0
   -0.4941   -0.0011   -3.0477 C   0  0  0  0  0  0  0  0  0  0  0  0
    0.4745    0.5089   -3.0020 H   0  0  0  0  0  0  0  0  0  0  0  0
   -0.3141   -1.0541   -3.2917 H   0  0  0  0  0  0  0  0  0  0  0  0
   -1.3750    0.6418   -4.1160 C   0  0  0  0  0  0  0  0  0  0  0  0
   -2.3499    0.1326   -4.1350 H   0  0  0  0  0  0  0  0  0  0  0  0
   -1.5645    1.6910   -3.8446 H   0  0  0  0  0  0  0  0  0  0  0  0
   -0.6960    0.5428   -5.4260 N   0  3  0  0  0  0  0  0  0  0  0  0
   -0.5267   -0.4380   -5.6578 H   0  0  0  0  0  0  0  0  0  0  0  0
   -1.2772    0.9610   -6.1558 H   0  0  0  0  0  0  0  0  0  0  0  0
    0.1991    1.0347   -5.3923 H   0  0  0  0  0  0  0  0  0  0  0  0
   -1.1081    0.9550    1.3484 C   0  0  0  0  0  0  0  0  0  0  0  0
   -2.0744    1.6191    0.9906 O   0  0  0  0  0  0  0  0  0  0  0  0
   -0.2127    1.4878    2.2567 N   0  0  0  0  0  0  0  0  0  0  0  0
    0.5138    0.8742    2.6175 H   0  0  0  0  0  0  0  0  0  0  0  0
   -0.3973    2.7928    2.8840 C   0  0  0  0  0  0  0  0  0  0  0  0
   -1.3276    2.8130    3.4619 H   0  0  0  0  0  0  0  0  0  0  0  0
    0.4347    3.0095    3.5614 H   0  0  0  0  0  0  0  0  0  0  0  0
   -0.4375    3.5824    2.1261 H   0  0  0  0  0  0  0  0  0  0  0  0
  1  2  1  0  0  0  0
  2  3  1  0  0  0  0
  2  4  1  0  0  0  0
  2  5  1  0  0  0  0
  5  6  2  0  0  0  0
  5  7  1  0  0  0  0
  7  8  1  0  0  0  0
  7  9  1  0  0  0  0
  9 10  1  0  0  0  0
  9 11  1  0  0  0  0
  9 27  1  0  0  0  0
 11 12  1  0  0  0  0
 11 13  1  0  0  0  0
 11 14  1  0  0  0  0
 14 15  1  0  0  0  0
 14 16  1  0  0  0  0
 14 17  1  0  0  0  0
 17 18  1  0  0  0  0
 17 19  1  0  0  0  0
 17 20  1  0  0  0  0
 20 21  1  0  0  0  0
 20 22  1  0  0  0  0
 20 23  1  0  0  0  0
 23 24  1  0  0  0  0
 23 25  1  0  0  0  0
 23 26  1  0  0  0  0
 27 28  2  0  0  0  0
 27 29  1  0  0  0  0
 29 30  1  0  0  0  0
 29 31  1  0  0  0  0
 31 32  1  0  0  0  0
 31 33  1  0  0  0  0
 31 34  1  0  0  0  0
M  CHG  1  23   1
M  END
$$$$

  -OEChem-02102214153D

 34 33  0     1  0  0  0  0  0999 V2000
   -3.6875   -4.0672    2.0106 H   0  0  0  0  0  0  0  0  0  0  0  0
   -3.7626   -3.0644    1.5804 C   0  0  0  0  0  0  0  0  0  0  0  0
   -4.2917   -2.4194    2.2862 H   0  0  0  0  0  0  0  0  0  0  0  0
   -4.3327   -3.1218    0.6503 H   0  0  0  0  0  0  0  0  0  0  0  0
   -2.3779   -2.5097    1.3074 C   0  0  0  0  0  0  0  0  0  0  0  0
   -1.3912   -3.2062    1.4785 O   0  0  0  0  0  0  0  0  0  0  0  0
   -2.2276   -1.2225    0.8330 N   0  0  0  0  0  0  0  0  0  0  0  0
   -3.0658   -0.6417    0.8268 H   0  0  0  0  0  0  0  0  0  0  0  0
   -0.9394   -0.5093    0.8242 C   0  0  1  0  0  0  0  0  0  0  0  0
   -0.2484   -1.0013    1.5179 H   0  0  0  0  0  0  0  0  0  0  0  0
   -0.3087   -0.5597   -0.5814 C   0  0  0  0  0  0  0  0  0  0  0  0
    0.6681   -0.0651   -0.5581 H   0  0  0  0  0  0  0  0  0  0  0  0
   -0.1369   -1.6131   -0.8280 H   0  0  0  0  0  0  0  0  0  0  0  0
   -1.1793    0.0833   -1.6774 C   0  0  0  0  0  0  0  0  0  0  0  0
   -2.2202   -0.2378   -1.5658 H   0  0  0  0  0  0  0  0  0  0  0  0
   -1.1546    1.1735   -1.5695 H   0  0  0  0  0  0  0  0  0  0  0  0
   -0.6852   -0.3192   -3.0700 C   0  0  0  0  0  0  0  0  0  0  0  0
    0.3595   -0.0111   -3.1878 H   0  0  0  0  0  0  0  0  0  0  0  0
   -0.7339   -1.4092   -3.1725 H   0  0  0  0  0  0  0  0  0  0  0  0
   -1.5527    0.3455   -4.1358 C   0  0  0  0  0  0  0  0  0  0  0  0
   -2.6002    0.0456   -3.9855 H   0  0  0  0  0  0  0  0  0  0  0  0
   -1.5076    1.4374   -4.0091 H   0  0  0  0  0  0  0  0  0  0  0  0
   -1.0695   -0.0577   -5.4740 N   0  3  0  0  0  0  0  0  0  0  0  0
   -1.1126   -1.0744   -5.5683 H   0  0  0  0  0  0  0  0  0  0  0  0
   -1.6500    0.3681   -6.2000 H   0  0  0  0  0  0  0  0  0  0  0  0
   -0.1023    0.2461   -5.6017 H   0  0  0  0  0  0  0  0  0  0  0  0
   -1.1087    0.9364    1.3350 C   0  0  0  0  0  0  0  0  0  0  0  0
   -2.0688    1.5965    0.9533 O   0  0  0  0  0  0  0  0  0  0  0  0
   -0.2194    1.4819    2.2416 N   0  0  0  0  0  0  0  0  0  0  0  0
    0.5069    0.8752    2.6140 H   0  0  0  0  0  0  0  0  0  0  0  0
   -0.4007    2.8007    2.8403 C   0  0  0  0  0  0  0  0  0  0  0  0
   -1.3404    2.8418    3.4018 H   0  0  0  0  0  0  0  0  0  0  0  0
    0.4219    3.0212    3.5281 H   0  0  0  0  0  0  0  0  0  0  0  0
   -0.4192    3.5757    2.0667 H   0  0  0  0  0  0  0  0  0  0  0  0
  1  2  1  0  0  0  0
  2  3  1  0  0  0  0
  2  4  1  0  0  0  0
  2  5  1  0  0  0  0
  5  6  2  0  0  0  0
  5  7  1  0  0  0  0
  7  8  1  0  0  0  0
  7  9  1  0  0  0  0
  9 10  1  0  0  0  0
  9 11  1  0  0  0  0
  9 27  1  0  0  0  0
 11 12  1  0  0  0  0
 11 13  1  0  0  0  0
 11 14  1  0  0  0  0
 14 15  1  0  0  0  0
 14 16  1  0  0  0  0
 14 17  1  0  0  0  0
 17 18  1  0  0  0  0
 17 19  1  0  0  0  0
 17 20  1  0  0  0  0
 20 21  1  0  0  0  0
 20 22  1  0  0  0  0
 20 23  1  0  0  0  0
 23 24  1  0  0  0  0
 23 25  1  0  0  0  0
 23 26  1  0  0  0  0
 27 28  2  0  0  0  0
 27 29  1  0  0  0  0
 29 30  1  0  0  0  0
 29 31  1  0  0  0  0
 31 32  1  0  0  0  0
 31 33  1  0  0  0  0
 31 34  1  0  0  0  0
M  CHG  1  23   1
M  END
$$$$

  -OEChem-02102214153D

 34 33  0     1  0  0  0  0  0999 V2000
   -3.6901   -4.0613    2.0609 H   0  0  0  0  0  0  0  0  0  0  0  0
   -3.7676   -3.0625    1.6216 C   0  0  0  0  0  0  0  0  0  0  0  0
   -4.2785   -2.4071    2.3313 H   0  0  0  0  0  0  0  0  0  0  0  0
   -4.3571   -3.1255    0.7041 H   0  0  0  0  0  0  0  0  0  0  0  0
   -2.3847   -2.5202    1.3157 C   0  0  0  0  0  0  0  0  0  0  0  0
   -1.4006   -3.2248    1.4666 O   0  0  0  0  0  0  0  0  0  0  0  0
   -2.2337   -1.2354    0.8352 N   0  0  0  0  0  0  0  0  0  0  0  0
   -3.0687   -0.6501    0.8461 H   0  0  0  0  0  0  0  0  0  0  0  0
   -0.9436   -0.5243    0.8270 C   0  0  1  0  0  0  0  0  0  0  0  0
   -0.2544   -1.0152    1.5234 H   0  0  0  0  0  0  0  0  0  0  0  0
   -0.3073   -0.5708   -0.5754 C   0  0  0  0  0  0  0  0  0  0  0  0
    0.6727   -0.0828   -0.5509 H   0  0  0  0  0  0  0  0  0  0  0  0
   -0.1375   -1.6260   -0.8161 H   0  0  0  0  0  0  0  0  0  0  0  0
   -1.1716    0.0765   -1.6766 C   0  0  0  0  0  0  0  0  0  0  0  0
   -2.2341   -0.0224   -1.4316 H   0  0  0  0  0  0  0  0  0  0  0  0
   -0.9483    1.1482   -1.7268 H   0  0  0  0  0  0  0  0  0  0  0  0
   -0.9257   -0.5914   -3.0331 C   0  0  0  0  0  0  0  0  0  0  0  0
    0.1355   -0.5076   -3.2927 H   0  0  0  0  0  0  0  0  0  0  0  0
   -1.1777   -1.6558   -2.9650 H   0  0  0  0  0  0  0  0  0  0  0  0
   -1.7839    0.0806   -4.1017 C   0  0  0  0  0  0  0  0  0  0  0  0
   -2.8415    0.0157   -3.8066 H   0  0  0  0  0  0  0  0  0  0  0  0
   -1.5276    1.1491   -4.1534 H   0  0  0  0  0  0  0  0  0  0  0  0
   -1.5508   -0.5887   -5.3996 N   0  3  0  0  0  0  0  0  0  0  0  0
   -1.7832   -1.5810   -5.3266 H   0  0  0  0  0  0  0  0  0  0  0  0
   -2.1335   -0.1637   -6.1241 H   0  0  0  0  0  0  0  0  0  0  0  0
   -0.5690   -0.4976   -5.6677 H   0  0  0  0  0  0  0  0  0  0  0  0
   -1.1135    0.9237    1.3306 C   0  0  0  0  0  0  0  0  0  0  0  0
   -2.0719    1.5812    0.9404 O   0  0  0  0  0  0  0  0  0  0  0  0
   -0.2282    1.4747    2.2377 N   0  0  0  0  0  0  0  0  0  0  0  0
    0.5030    0.8741    2.6103 H   0  0  0  0  0  0  0  0  0  0  0  0
   -0.4063    2.8016    2.8195 C   0  0  0  0  0  0  0  0  0  0  0  0
   -1.3507    2.8554    3.3717 H   0  0  0  0  0  0  0  0  0  0  0  0
    0.4114    3.0252    3.5121 H   0  0  0  0  0  0  0  0  0  0  0  0
   -0.4129    3.5676    2.0366 H   0  0  0  0  0  0  0  0  0  0  0  0
  1  2  1  0  0  0  0
  2  3  1  0  0  0  0
  2  4  1  0  0  0  0
  2  5  1  0  0  0  0
  5  6  2  0  0  0  0
  5  7  1  0  0  0  0
  7  8  1  0  0  0  0
  7  9  1  0  0  0  0
  9 10  1  0  0  0  0
  9 11  1  0  0  0  0
  9 27  1  0  0  0  0
 11 12  1  0  0  0  0
 11 13  1  0  0  0  0
 11 14  1  0  0  0  0
 14 15  1  0  0  0  0
 14 16  1  0  0  0  0
 14 17  1  0  0  0  0
 17 18  1  0  0  0  0
 17 19  1  0  0  0  0
 17 20  1  0  0  0  0
 20 21  1  0  0  0  0
 20 22  1  0  0  0  0
 20 23  1  0  0  0  0
 23 24  1  0  0  0  0
 23 25  1  0  0  0  0
 23 26  1  0  0  0  0
 27 28  2  0  0  0  0
 27 29  1  0  0  0  0
 29 30  1  0  0  0  0
 29 31  1  0  0  0  0
 31 32  1  0  0  0  0
 31 33  1  0  0  0  0
 31 34  1  0  0  0  0
M  CHG  1  23   1
M  END
$$$$

  -OEChem-02102214153D

 34 33  0     1  0  0  0  0  0999 V2000
   -3.6848   -4.0546    2.0733 H   0  0  0  0  0  0  0  0  0  0  0  0
   -3.7655   -3.0498    1.6485 C   0  0  0  0  0  0  0  0  0  0  0  0
   -4.2504   -2.3990    2.3805 H   0  0  0  0  0  0  0  0  0  0  0  0
   -4.3811   -3.0958    0.7473 H   0  0  0  0  0  0  0  0  0  0  0  0
   -2.3873   -2.5147    1.3102 C   0  0  0  0  0  0  0  0  0  0  0  0
   -1.4049   -3.2283    1.4248 O   0  0  0  0  0  0  0  0  0  0  0  0
   -2.2403   -1.2281    0.8340 N   0  0  0  0  0  0  0  0  0  0  0  0
   -3.0716   -0.6389    0.8760 H   0  0  0  0  0  0  0  0  0  0  0  0
   -0.9497   -0.5177    0.8262 C   0  0  1  0  0  0  0  0  0  0  0  0
   -0.2627   -1.0103    1.5235 H   0  0  0  0  0  0  0  0  0  0  0  0
   -0.3112   -0.5712   -0.5746 C   0  0  0  0  0  0  0  0  0  0  0  0
    0.6658   -0.0770   -0.5482 H   0  0  0  0  0  0  0  0  0  0  0  0
   -0.1288   -1.6259   -0.8087 H   0  0  0  0  0  0  0  0  0  0  0  0
   -1.1718    0.0711   -1.6837 C   0  0  0  0  0  0  0  0  0  0  0  0
   -2.1977    0.2237   -1.3327 H   0  0  0  0  0  0  0  0  0  0  0  0
   -0.7636    1.0589   -1.9259 H   0  0  0  0  0  0  0  0  0  0  0  0
   -1.2146   -0.8136   -2.9339 C   0  0  0  0  0  0  0  0  0  0  0  0
   -0.1950   -0.9713   -3.3029 H   0  0  0  0  0  0  0  0  0  0  0  0
   -1.6377   -1.7899   -2.6709 H   0  0  0  0  0  0  0  0  0  0  0  0
   -2.0668   -0.1488   -4.0114 C   0  0  0  0  0  0  0  0  0  0  0  0
   -3.0786    0.0242   -3.6157 H   0  0  0  0  0  0  0  0  0  0  0  0
   -1.6411    0.8363   -4.2530 H   0  0  0  0  0  0  0  0  0  0  0  0
   -2.1017   -1.0243   -5.2025 N   0  3  0  0  0  0  0  0  0  0  0  0
   -2.4863   -1.9372   -4.9521 H   0  0  0  0  0  0  0  0  0  0  0  0
   -2.6854   -0.6059   -5.9300 H   0  0  0  0  0  0  0  0  0  0  0  0
   -1.1563   -1.1527   -5.5681 H   0  0  0  0  0  0  0  0  0  0  0  0
   -1.1161    0.9289    1.3359 C   0  0  0  0  0  0  0  0  0  0  0  0
   -2.0870    1.5820    0.9697 O   0  0  0  0  0  0  0  0  0  0  0  0
   -0.2275    1.4746    2.2428 N   0  0  0  0  0  0  0  0  0  0  0  0
    0.5189    0.8795    2.5936 H   0  0  0  0  0  0  0  0  0  0  0  0
   -0.4069    2.7955    2.8373 C   0  0  0  0  0  0  0  0  0  0  0  0
   -1.3490    2.8414    3.3944 H   0  0  0  0  0  0  0  0  0  0  0  0
    0.4130    3.0156    3.5281 H   0  0  0  0  0  0  0  0  0  0  0  0
   -0.4195    3.5682    2.0612 H   0  0  0  0  0  0  0  0  0  0  0  0
  1  2  1  0  0  0  0
  2  3  1  0  0  0  0
  2  4  1  0  0  0  0
  2  5  1  0  0  0  0
  5  6  2  0  0  0  0
  5  7  1  0  0  0  0
  7  8  1  0  0  0  0
  7  9  1  0  0  0  0
  9 10  1  0  0  0  0
  9 11  1  0  0  0  0
  9 27  1  0  0  0  0
 11 12  1  0  0  0  0
 11 13  1  0  0  0  0
 11 14  1  0  0  0  0
 14 15  1  0  0  0  0
 14 16  1  0  0  0  0
 14 17  1  0  0  0  0
 17 18  1  0  0  0  0
 17 19  1  0  0  0  0
 17 20  1  0  0  0  0
 20 21  1  0  0  0  0
 20 22  1  0  0  0  0
 20 23  1  0  0  0  0
 23 24  1  0  0  0  0
 23 25  1  0  0  0  0
 23 26  1  0  0  0  0
 27 28  2  0  0  0  0
 27 29  1  0  0  0  0
 29 30  1  0  0  0  0
 29 31  1  0  0  0  0
 31 32  1  0  0  0  0
 31 33  1  0  0  0  0
 31 34  1  0  0  0  0
M  CHG  1  23   1
M  END
$$$$

  -OEChem-02102214153D

 34 33  0     1  0  0  0  0  0999 V2000
   -3.6817   -4.0599    2.0420 H   0  0  0  0  0  0  0  0  0  0  0  0
   -3.7643   -3.0329    1.6743 C   0  0  0  0  0  0  0  0  0  0  0  0
   -4.2002   -2.4139    2.4625 H   0  0  0  0  0  0  0  0  0  0  0  0
   -4.4244   -3.0215    0.8042 H   0  0  0  0  0  0  0  0  0  0  0  0
   -2.3948   -2.5025    1.2965 C   0  0  0  0  0  0  0  0  0  0  0  0
   -1.4145   -3.2246    1.3651 O   0  0  0  0  0  0  0  0  0  0  0  0
   -2.2560   -1.2106    0.8334 N   0  0  0  0  0  0  0  0  0  0  0  0
   -3.0831   -0.6191    0.9135 H   0  0  0  0  0  0  0  0  0  0  0  0
   -0.9666   -0.4990    0.8227 C   0  0  1  0  0  0  0  0  0  0  0  0
   -0.2804   -0.9963    1.5175 H   0  0  0  0  0  0  0  0  0  0  0  0
   -0.3247   -0.5608   -0.5762 C   0  0  0  0  0  0  0  0  0  0  0  0
    0.6411   -0.0456   -0.5397 H   0  0  0  0  0  0  0  0  0  0  0  0
   -0.1134   -1.6108   -0.8069 H   0  0  0  0  0  0  0  0  0  0  0  0
   -1.1789    0.0699   -1.6970 C   0  0  0  0  0  0  0  0  0  0  0  0
   -2.1085    0.4818   -1.2915 H   0  0  0  0  0  0  0  0  0  0  0  0
   -0.6227    0.9026   -2.1417 H   0  0  0  0  0  0  0  0  0  0  0  0
   -1.5213   -0.9625   -2.7765 C   0  0  0  0  0  0  0  0  0  0  0  0
   -0.5950   -1.3557   -3.2101 H   0  0  0  0  0  0  0  0  0  0  0  0
   -2.0652   -1.7966   -2.3185 H   0  0  0  0  0  0  0  0  0  0  0  0
   -2.3752   -0.3161   -3.8636 C   0  0  0  0  0  0  0  0  0  0  0  0
   -3.2960    0.0808   -3.4109 H   0  0  0  0  0  0  0  0  0  0  0  0
   -1.8309    0.5385   -4.2919 H   0  0  0  0  0  0  0  0  0  0  0  0
   -2.6796   -1.3285   -4.8976 N   0  3  0  0  0  0  0  0  0  0  0  0
   -3.1825   -2.1130   -4.4787 H   0  0  0  0  0  0  0  0  0  0  0  0
   -3.2580   -0.9175   -5.6335 H   0  0  0  0  0  0  0  0  0  0  0  0
   -1.8122   -1.6752   -5.3117 H   0  0  0  0  0  0  0  0  0  0  0  0
   -1.1240    0.9430    1.3495 C   0  0  0  0  0  0  0  0  0  0  0  0
   -2.1141    1.5907    1.0286 O   0  0  0  0  0  0  0  0  0  0  0  0
   -0.2237    1.4749    2.2531 N   0  0  0  0  0  0  0  0  0  0  0  0
    0.5384    0.8814    2.5713 H   0  0  0  0  0  0  0  0  0  0  0  0
   -0.3925    2.7867    2.8699 C   0  0  0  0  0  0  0  0  0  0  0  0
   -1.3121    2.8157    3.4642 H   0  0  0  0  0  0  0  0  0  0  0  0
    0.4526    3.0070    3.5298 H   0  0  0  0  0  0  0  0  0  0  0  0
   -0.4433    3.5685    2.1044 H   0  0  0  0  0  0  0  0  0  0  0  0
  1  2  1  0  0  0  0
  2  3  1  0  0  0  0
  2  4  1  0  0  0  0
  2  5  1  0  0  0  0
  5  6  2  0  0  0  0
  5  7  1  0  0  0  0
  7  8  1  0  0  0  0
  7  9  1  0  0  0  0
  9 10  1  0  0  0  0
  9 11  1  0  0  0  0
  9 27  1  0  0  0  0
 11 12  1  0  0  0  0
 11 13  1  0  0  0  0
 11 14  1  0  0  0  0
 14 15  1  0  0  0  0
 14 16  1  0  0  0  0
 14 17  1  0  0  0  0
 17 18  1  0  0  0  0
 17 19  1  0  0  0  0
 17 20  1  0  0  0  0
 20 21  1  0  0  0  0
 20 22  1  0  0  0  0
 20 23  1  0  0  0  0
 23 24  1  0  0  0  0
 23 25  1  0  0  0  0
 23 26  1  0  0  0  0
 27 28  2  0  0  0  0
 27 29  1  0  0  0  0
 29 30  1  0  0  0  0
 29 31  1  0  0  0  0
 31 32  1  0  0  0  0
 31 33  1  0  0  0  0
 31 34  1  0  0  0  0
M  CHG  1  23   1
M  END
$$$$

  -OEChem-02102214153D

 34 33  0     1  0  0  0  0  0999 V2000
   -3.6645   -4.0478    2.1026 H   0  0  0  0  0  0  0  0  0  0  0  0
   -3.7562   -3.0206    1.7376 C   0  0  0  0  0  0  0  0  0  0  0  0
   -4.1565   -2.3996    2.5429 H   0  0  0  0  0  0  0  0  0  0  0  0
   -4.4513   -3.0064    0.8954 H   0  0  0  0  0  0  0  0  0  0  0  0
   -2.3998   -2.4977    1.3049 C   0  0  0  0  0  0  0  0  0  0  0  0
   -1.4238   -3.2281    1.3261 O   0  0  0  0  0  0  0  0  0  0  0  0
   -2.2699   -1.2036    0.8447 N   0  0  0  0  0  0  0  0  0  0  0  0
   -3.0904   -0.6086    0.9609 H   0  0  0  0  0  0  0  0  0  0  0  0
   -0.9799   -0.4938    0.8196 C   0  0  1  0  0  0  0  0  0  0  0  0
   -0.2920   -0.9928    1.5117 H   0  0  0  0  0  0  0  0  0  0  0  0
   -0.3362   -0.5606   -0.5795 C   0  0  0  0  0  0  0  0  0  0  0  0
    0.6191   -0.0269   -0.5328 H   0  0  0  0  0  0  0  0  0  0  0  0
   -0.1020   -1.6051   -0.8121 H   0  0  0  0  0  0  0  0  0  0  0  0
   -1.1810    0.0610   -1.7109 C   0  0  0  0  0  0  0  0  0  0  0  0
   -1.9542    0.7203   -1.3057 H   0  0  0  0  0  0  0  0  0  0  0  0
   -0.5260    0.6773   -2.3369 H   0  0  0  0  0  0  0  0  0  0  0  0
   -1.8264   -1.0237   -2.5810 C   0  0  0  0  0  0  0  0  0  0  0  0
   -1.0428   -1.6434   -3.0307 H   0  0  0  0  0  0  0  0  0  0  0  0
   -2.4517   -1.6684   -1.9538 H   0  0  0  0  0  0  0  0  0  0  0  0
   -2.6739   -0.3765   -3.6722 C   0  0  0  0  0  0  0  0  0  0  0  0
   -3.4579    0.2366   -3.2036 H   0  0  0  0  0  0  0  0  0  0  0  0
   -2.0437    0.3022   -4.2656 H   0  0  0  0  0  0  0  0  0  0  0  0
   -3.2579   -1.4386   -4.5192 N   0  3  0  0  0  0  0  0  0  0  0  0
   -3.8338   -2.0611   -3.9496 H   0  0  0  0  0  0  0  0  0  0  0  0
   -3.8390   -1.0251   -5.2515 H   0  0  0  0  0  0  0  0  0  0  0  0
   -2.5125   -1.9849   -4.9553 H   0  0  0  0  0  0  0  0  0  0  0  0
   -1.1327    0.9455    1.3557 C   0  0  0  0  0  0  0  0  0  0  0  0
   -2.1417    1.5820    1.0731 O   0  0  0  0  0  0  0  0  0  0  0  0
   -0.2214    1.4742    2.2502 N   0  0  0  0  0  0  0  0  0  0  0  0
    0.5577    0.8879    2.5392 H   0  0  0  0  0  0  0  0  0  0  0  0
   -0.3929    2.7749    2.8901 C   0  0  0  0  0  0  0  0  0  0  0  0
   -1.3015    2.7857    3.5019 H   0  0  0  0  0  0  0  0  0  0  0  0
    0.4620    2.9945    3.5376 H   0  0  0  0  0  0  0  0  0  0  0  0
   -0.4666    3.5678    2.1380 H   0  0  0  0  0  0  0  0  0  0  0  0
  1  2  1  0  0  0  0
  2  3  1  0  0  0  0
  2  4  1  0  0  0  0
  2  5  1  0  0  0  0
  5  6  2  0  0  0  0
  5  7  1  0  0  0  0
  7  8  1  0  0  0  0
  7  9  1  0  0  0  0
  9 10  1  0  0  0  0
  9 11  1  0  0  0  0
  9 27  1  0  0  0  0
 11 12  1  0  0  0  0
 11 13  1  0  0  0  0
 11 14  1  0  0  0  0
 14 15  1  0  0  0  0
 14 16  1  0  0  0  0
 14 17  1  0  0  0  0
 17 18  1  0  0  0  0
 17 19  1  0  0  0  0
 17 20  1  0  0  0  0
 20 21  1  0  0  0  0
 20 22  1  0  0  0  0
 20 23  1  0  0  0  0
 23 24  1  0  0  0  0
 23 25  1  0  0  0  0
 23 26  1  0  0  0  0
 27 28  2  0  0  0  0
 27 29  1  0  0  0  0
 29 30  1  0  0  0  0
 29 31  1  0  0  0  0
 31 32  1  0  0  0  0
 31 33  1  0  0  0  0
 31 34  1  0  0  0  0
M  CHG  1  23   1
M  END
$$$$

  -OEChem-02102214153D

 34 33  0     1  0  0  0  0  0999 V2000
   -3.5952   -4.0899    2.2243 H   0  0  0  0  0  0  0  0  0  0  0  0
   -3.7120   -3.0650    1.8597 C   0  0  0  0  0  0  0  0  0  0  0  0
   -4.0944   -2.4459    2.6750 H   0  0  0  0  0  0  0  0  0  0  0  0
   -4.4339   -3.0631    1.0403 H   0  0  0  0  0  0  0  0  0  0  0  0
   -2.3766   -2.5265    1.3824 C   0  0  0  0  0  0  0  0  0  0  0  0
   -1.3928   -3.2463    1.3720 O   0  0  0  0  0  0  0  0  0  0  0  0
   -2.2765   -1.2326    0.9135 N   0  0  0  0  0  0  0  0  0  0  0  0
   -3.0951   -0.6433    1.0664 H   0  0  0  0  0  0  0  0  0  0  0  0
   -0.9940   -0.5135    0.8408 C   0  0  1  0  0  0  0  0  0  0  0  0
   -0.2815   -1.0032    1.5144 H   0  0  0  0  0  0  0  0  0  0  0  0
   -0.3740   -0.5585   -0.5724 C   0  0  0  0  0  0  0  0  0  0  0  0
    0.5758   -0.0144   -0.5303 H   0  0  0  0  0  0  0  0  0  0  0  0
   -0.1314   -1.5979   -0.8190 H   0  0  0  0  0  0  0  0  0  0  0  0
   -1.2243    0.0573   -1.7029 C   0  0  0  0  0  0  0  0  0  0  0  0
   -1.8012    0.9099   -1.3320 H   0  0  0  0  0  0  0  0  0  0  0  0
   -0.5399    0.4416   -2.4674 H   0  0  0  0  0  0  0  0  0  0  0  0
   -2.1578   -0.9686   -2.3594 C   0  0  0  0  0  0  0  0  0  0  0  0
   -1.5644   -1.8073   -2.7397 H   0  0  0  0  0  0  0  0  0  0  0  0
   -2.8628   -1.3604   -1.6206 H   0  0  0  0  0  0  0  0  0  0  0  0
   -2.9244   -0.3087   -3.5018 C   0  0  0  0  0  0  0  0  0  0  0  0
   -3.5210    0.5251   -3.1027 H   0  0  0  0  0  0  0  0  0  0  0  0
   -2.2085    0.1202   -4.2182 H   0  0  0  0  0  0  0  0  0  0  0  0
   -3.7844   -1.3218   -4.1502 N   0  3  0  0  0  0  0  0  0  0  0  0
   -4.4507   -1.6972   -3.4730 H   0  0  0  0  0  0  0  0  0  0  0  0
   -4.3000   -0.9009   -4.9260 H   0  0  0  0  0  0  0  0  0  0  0  0
   -3.2102   -2.0874   -4.5089 H   0  0  0  0  0  0  0  0  0  0  0  0
   -1.1523    0.9236    1.3802 C   0  0  0  0  0  0  0  0  0  0  0  0
   -2.1795    1.5436    1.1260 O   0  0  0  0  0  0  0  0  0  0  0  0
   -0.2212    1.4683    2.2442 N   0  0  0  0  0  0  0  0  0  0  0  0
    0.5781    0.8962    2.5053 H   0  0  0  0  0  0  0  0  0  0  0  0
   -0.3844    2.7728    2.8779 C   0  0  0  0  0  0  0  0  0  0  0  0
   -1.2685    2.7783    3.5244 H   0  0  0  0  0  0  0  0  0  0  0  0
    0.4918    3.0089    3.4899 H   0  0  0  0  0  0  0  0  0  0  0  0
   -0.4963    3.5572    2.1218 H   0  0  0  0  0  0  0  0  0  0  0  0
  1  2  1  0  0  0  0
  2  3  1  0  0  0  0
  2  4  1  0  0  0  0
  2  5  1  0  0  0  0
  5  6  2  0  0  0  0
  5  7  1  0  0  0  0
  7  8  1  0  0  0  0
  7  9  1  0  0  0  0
  9 10  1  0  0  0  0
  9 11  1  0  0  0  0
  9 27  1  0  0  0  0
 11 12  1  0  0  0  0
 11 13  1  0  0  0  0
 11 14  1  0  0  0  0
 14 15  1  0  0  0  0
 14 16  1  0  0  0  0
 14 17  1  0  0  0  0
 17 18  1  0  0  0  0
 17 19  1  0  0  0  0
 17 20  1  0  0  0  0
 20 21  1  0  0  0  0
 20 22  1  0  0  0  0
 20 23  1  0  0  0  0
 23 24  1  0  0  0  0
 23 25  1  0  0  0  0
 23 26  1  0  0  0  0
 27 28  2  0  0  0  0
 27 29  1  0  0  0  0
 29 30  1  0  0  0  0
 29 31  1  0  0  0  0
 31 32  1  0  0  0  0
 31 33  1  0  0  0  0
 31 34  1  0  0  0  0
M  CHG  1  23   1
M  END
$$$$

  -OEChem-02102214153D

 34 33  0     1  0  0  0  0  0999 V2000
   -3.4780   -4.1465    2.3523 H   0  0  0  0  0  0  0  0  0  0  0  0
   -3.6255   -3.1310    1.9731 C   0  0  0  0  0  0  0  0  0  0  0  0
   -4.0027   -2.5062    2.7865 H   0  0  0  0  0  0  0  0  0  0  0  0
   -4.3650   -3.1588    1.1701 H   0  0  0  0  0  0  0  0  0  0  0  0
   -2.3132   -2.5733    1.4561 C   0  0  0  0  0  0  0  0  0  0  0  0
   -1.3190   -3.2774    1.4194 O   0  0  0  0  0  0  0  0  0  0  0  0
   -2.2470   -1.2775    0.9863 N   0  0  0  0  0  0  0  0  0  0  0  0
   -3.0656   -0.6984    1.1727 H   0  0  0  0  0  0  0  0  0  0  0  0
   -0.9772   -0.5435    0.8643 C   0  0  1  0  0  0  0  0  0  0  0  0
   -0.2273   -1.0257    1.5017 H   0  0  0  0  0  0  0  0  0  0  0  0
   -0.4155   -0.5416   -0.5754 C   0  0  0  0  0  0  0  0  0  0  0  0
    0.5357    0.0011   -0.5563 H   0  0  0  0  0  0  0  0  0  0  0  0
   -0.1850   -1.5748   -0.8564 H   0  0  0  0  0  0  0  0  0  0  0  0
   -1.2949    0.0897   -1.6766 C   0  0  0  0  0  0  0  0  0  0  0  0
   -1.6495    1.0740   -1.3535 H   0  0  0  0  0  0  0  0  0  0  0  0
   -0.6528    0.2515   -2.5495 H   0  0  0  0  0  0  0  0  0  0  0  0
   -2.4870   -0.7764   -2.1084 C   0  0  0  0  0  0  0  0  0  0  0  0
   -2.1424   -1.7956   -2.3146 H   0  0  0  0  0  0  0  0  0  0  0  0
   -3.2282   -0.8196   -1.3062 H   0  0  0  0  0  0  0  0  0  0  0  0
   -3.1296   -0.1758   -3.3561 C   0  0  0  0  0  0  0  0  0  0  0  0
   -3.4544    0.8517   -3.1341 H   0  0  0  0  0  0  0  0  0  0  0  0
   -2.3765   -0.1124   -4.1552 H   0  0  0  0  0  0  0  0  0  0  0  0
   -4.2717   -1.0198   -3.7680 N   0  3  0  0  0  0  0  0  0  0  0  0
   -4.9650   -1.0562   -3.0187 H   0  0  0  0  0  0  0  0  0  0  0  0
   -4.7095   -0.6335   -4.6070 H   0  0  0  0  0  0  0  0  0  0  0  0
   -3.9491   -1.9685   -3.9682 H   0  0  0  0  0  0  0  0  0  0  0  0
   -1.1517    0.8860    1.4172 C   0  0  0  0  0  0  0  0  0  0  0  0
   -2.1962    1.4860    1.1833 O   0  0  0  0  0  0  0  0  0  0  0  0
   -0.2073    1.4530    2.2520 N   0  0  0  0  0  0  0  0  0  0  0  0
    0.6097    0.8976    2.4944 H   0  0  0  0  0  0  0  0  0  0  0  0
   -0.3846    2.7523    2.8932 C   0  0  0  0  0  0  0  0  0  0  0  0
   -1.2579    2.7389    3.5543 H   0  0  0  0  0  0  0  0  0  0  0  0
    0.4968    3.0036    3.4917 H   0  0  0  0  0  0  0  0  0  0  0  0
   -0.5247    3.5370    2.1421 H   0  0  0  0  0  0  0  0  0  0  0  0
  1  2  1  0  0  0  0
  2  3  1  0  0  0  0
  2  4  1  0  0  0  0
  2  5  1  0  0  0  0
  5  6  2  0  0  0  0
  5  7  1  0  0  0  0
  7  8  1  0  0  0  0
  7  9  1  0  0  0  0
  9 10  1  0  0  0  0
  9 11  1  0  0  0  0
  9 27  1  0  0  0  0
 11 12  1  0  0  0  0
 11 13  1  0  0  0  0
 11 14  1  0  0  0  0
 14 15  1  0  0  0  0
 14 16  1  0  0  0  0
 14 17  1  0  0  0  0
 17 18  1  0  0  0  0
 17 19  1  0  0  0  0
 17 20  1  0  0  0  0
 20 21  1  0  0  0  0
 20 22  1  0  0  0  0
 20 23  1  0  0  0  0
 23 24  1  0  0  0  0
 23 25  1  0  0  0  0
 23 26  1  0  0  0  0
 27 28  2  0  0  0  0
 27 29  1  0  0  0  0
 29 30  1  0  0  0  0
 29 31  1  0  0  0  0
 31 32  1  0  0  0  0
 31 33  1  0  0  0  0
 31 34  1  0  0  0  0
M  CHG  1  23   1
M  END
$$$$

  -OEChem-02102214153D

 34 33  0     1  0  0  0  0  0999 V2000
   -3.4026   -4.2039    2.3996 H   0  0  0  0  0  0  0  0  0  0  0  0
   -3.5656   -3.1869    2.0308 C   0  0  0  0  0  0  0  0  0  0  0  0
   -3.9340   -2.5719    2.8557 H   0  0  0  0  0  0  0  0  0  0  0  0
   -4.3184   -3.2155    1.2402 H   0  0  0  0  0  0  0  0  0  0  0  0
   -2.2676   -2.6139    1.4953 C   0  0  0  0  0  0  0  0  0  0  0  0
   -1.2636   -3.3034    1.4558 O   0  0  0  0  0  0  0  0  0  0  0  0
   -2.2238   -1.3182    1.0218 N   0  0  0  0  0  0  0  0  0  0  0  0
   -3.0436   -0.7473    1.2245 H   0  0  0  0  0  0  0  0  0  0  0  0
   -0.9621   -0.5728    0.8782 C   0  0  1  0  0  0  0  0  0  0  0  0
   -0.1927   -1.0481    1.4974 H   0  0  0  0  0  0  0  0  0  0  0  0
   -0.4267   -0.5301   -0.5716 C   0  0  0  0  0  0  0  0  0  0  0  0
    0.5323   -0.0009   -0.5611 H   0  0  0  0  0  0  0  0  0  0  0  0
   -0.2166   -1.5614   -0.8748 H   0  0  0  0  0  0  0  0  0  0  0  0
   -1.3126    0.1182   -1.6594 C   0  0  0  0  0  0  0  0  0  0  0  0
   -1.4532    1.1781   -1.4193 H   0  0  0  0  0  0  0  0  0  0  0  0
   -0.7518    0.0726   -2.5994 H   0  0  0  0  0  0  0  0  0  0  0  0
   -2.6867   -0.5286   -1.8747 C   0  0  0  0  0  0  0  0  0  0  0  0
   -2.5735   -1.6153   -1.9552 H   0  0  0  0  0  0  0  0  0  0  0  0
   -3.3350   -0.3070   -1.0222 H   0  0  0  0  0  0  0  0  0  0  0  0
   -3.3218    0.0331   -3.1440 C   0  0  0  0  0  0  0  0  0  0  0  0
   -3.3769    1.1289   -3.0632 H   0  0  0  0  0  0  0  0  0  0  0  0
   -2.6769   -0.1967   -4.0049 H   0  0  0  0  0  0  0  0  0  0  0  0
   -4.6677   -0.5546   -3.3130 N   0  3  0  0  0  0  0  0  0  0  0  0
   -5.2517   -0.3190   -2.5084 H   0  0  0  0  0  0  0  0  0  0  0  0
   -5.1073   -0.1890   -4.1604 H   0  0  0  0  0  0  0  0  0  0  0  0
   -4.5972   -1.5713   -3.3866 H   0  0  0  0  0  0  0  0  0  0  0  0
   -1.1537    0.8526    1.4346 C   0  0  0  0  0  0  0  0  0  0  0  0
   -2.2052    1.4407    1.1976 O   0  0  0  0  0  0  0  0  0  0  0  0
   -0.2090    1.4354    2.2574 N   0  0  0  0  0  0  0  0  0  0  0  0
    0.6182    0.8918    2.4921 H   0  0  0  0  0  0  0  0  0  0  0  0
   -0.3950    2.7358    2.8931 C   0  0  0  0  0  0  0  0  0  0  0  0
   -1.2615    2.7156    3.5629 H   0  0  0  0  0  0  0  0  0  0  0  0
    0.4892    3.0007    3.4816 H   0  0  0  0  0  0  0  0  0  0  0  0
   -0.5513    3.5143    2.1387 H   0  0  0  0  0  0  0  0  0  0  0  0
  1  2  1  0  0  0  0
  2  3  1  0  0  0  0
  2  4  1  0  0  0  0
  2  5  1  0  0  0  0
  5  6  2  0  0  0  0
  5  7  1  0  0  0  0
  7  8  1  0  0  0  0
  7  9  1  0  0  0  0
  9 10  1  0  0  0  0
  9 11  1  0  0  0  0
  9 27  1  0  0  0  0
 11 12  1  0  0  0  0
 11 13  1  0  0  0  0
 11 14  1  0  0  0  0
 14 15  1  0  0  0  0
 14 16  1  0  0  0  0
 14 17  1  0  0  0  0
 17 18  1  0  0  0  0
 17 19  1  0  0  0  0
 17 20  1  0  0  0  0
 20 21  1  0  0  0  0
 20 22  1  0  0  0  0
 20 23  1  0  0  0  0
 23 24  1  0  0  0  0
 23 25  1  0  0  0  0
 23 26  1  0  0  0  0
 27 28  2  0  0  0  0
 27 29  1  0  0  0  0
 29 30  1  0  0  0  0
 29 31  1  0  0  0  0
 31 32  1  0  0  0  0
 31 33  1  0  0  0  0
 31 34  1  0  0  0  0
M  CHG  1  23   1
M  END
$$$$

  -OEChem-02102214153D

 34 33  0     1  0  0  0  0  0999 V2000
   -3.3128   -4.2374    2.4759 H   0  0  0  0  0  0  0  0  0  0  0  0
   -3.5130   -3.2551    2.0377 C   0  0  0  0  0  0  0  0  0  0  0  0
   -3.9442   -2.6115    2.8085 H   0  0  0  0  0  0  0  0  0  0  0  0
   -4.2316   -3.3724    1.2237 H   0  0  0  0  0  0  0  0  0  0  0  0
   -2.2259   -2.6489    1.5124 C   0  0  0  0  0  0  0  0  0  0  0  0
   -1.2053   -3.3136    1.4780 O   0  0  0  0  0  0  0  0  0  0  0  0
   -2.2109   -1.3497    1.0455 N   0  0  0  0  0  0  0  0  0  0  0  0
   -3.0406   -0.7982    1.2573 H   0  0  0  0  0  0  0  0  0  0  0  0
   -0.9624   -0.5823    0.8951 C   0  0  1  0  0  0  0  0  0  0  0  0
   -0.1807   -1.0492    1.5050 H   0  0  0  0  0  0  0  0  0  0  0  0
   -0.4363   -0.5224   -0.5579 C   0  0  0  0  0  0  0  0  0  0  0  0
    0.5248    0.0026   -0.5531 H   0  0  0  0  0  0  0  0  0  0  0  0
   -0.2305   -1.5554   -0.8593 H   0  0  0  0  0  0  0  0  0  0  0  0
   -1.3194    0.1125   -1.6585 C   0  0  0  0  0  0  0  0  0  0  0  0
   -1.2638    1.2010   -1.5424 H   0  0  0  0  0  0  0  0  0  0  0  0
   -0.8670   -0.1339   -2.6256 H   0  0  0  0  0  0  0  0  0  0  0  0
   -2.8017   -0.2826   -1.6844 C   0  0  0  0  0  0  0  0  0  0  0  0
   -2.8923   -1.3740   -1.7136 H   0  0  0  0  0  0  0  0  0  0  0  0
   -3.2986    0.0862   -0.7830 H   0  0  0  0  0  0  0  0  0  0  0  0
   -3.4701    0.3383   -2.9074 C   0  0  0  0  0  0  0  0  0  0  0  0
   -3.2740    1.4208   -2.9102 H   0  0  0  0  0  0  0  0  0  0  0  0
   -3.0163   -0.0763   -3.8194 H   0  0  0  0  0  0  0  0  0  0  0  0
   -4.9220    0.0660   -2.8559 N   0  3  0  0  0  0  0  0  0  0  0  0
   -5.3205    0.4800   -2.0105 H   0  0  0  0  0  0  0  0  0  0  0  0
   -5.3846    0.4699   -3.6729 H   0  0  0  0  0  0  0  0  0  0  0  0
   -5.0877   -0.9419   -2.8433 H   0  0  0  0  0  0  0  0  0  0  0  0
   -1.1616    0.8396    1.4585 C   0  0  0  0  0  0  0  0  0  0  0  0
   -2.2133    1.4287    1.2231 O   0  0  0  0  0  0  0  0  0  0  0  0
   -0.2127    1.4276    2.2727 N   0  0  0  0  0  0  0  0  0  0  0  0
    0.6193    0.8883    2.5009 H   0  0  0  0  0  0  0  0  0  0  0  0
   -0.3923    2.7338    2.8980 C   0  0  0  0  0  0  0  0  0  0  0  0
   -1.2803    2.7345    3.5392 H   0  0  0  0  0  0  0  0  0  0  0  0
    0.4772    2.9820    3.5149 H   0  0  0  0  0  0  0  0  0  0  0  0
   -0.5071    3.5119    2.1359 H   0  0  0  0  0  0  0  0  0  0  0  0
  1  2  1  0  0  0  0
  2  3  1  0  0  0  0
  2  4  1  0  0  0  0
  2  5  1  0  0  0  0
  5  6  2  0  0  0  0
  5  7  1  0  0  0  0
  7  8  1  0  0  0  0
  7  9  1  0  0  0  0
  9 10  1  0  0  0  0
  9 11  1  0  0  0  0
  9 27  1  0  0  0  0
 11 12  1  0  0  0  0
 11 13  1  0  0  0  0
 11 14  1  0  0  0  0
 14 15  1  0  0  0  0
 14 16  1  0  0  0  0
 14 17  1  0  0  0  0
 17 18  1  0  0  0  0
 17 19  1  0  0  0  0
 17 20  1  0  0  0  0
 20 21  1  0  0  0  0
 20 22  1  0  0  0  0
 20 23  1  0  0  0  0
 23 24  1  0  0  0  0
 23 25  1  0  0  0  0
 23 26  1  0  0  0  0
 27 28  2  0  0  0  0
 27 29  1  0  0  0  0
 29 30  1  0  0  0  0
 29 31  1  0  0  0  0
 31 32  1  0  0  0  0
 31 33  1  0  0  0  0
 31 34  1  0  0  0  0
M  CHG  1  23   1
M  END
$$$$

  -OEChem-02102214153D

 34 33  0     1  0  0  0  0  0999 V2000
   -3.2602   -4.3026    2.3784 H   0  0  0  0  0  0  0  0  0  0  0  0
   -3.4760   -3.2940    2.0136 C   0  0  0  0  0  0  0  0  0  0  0  0
   -3.8933   -2.7079    2.8361 H   0  0  0  0  0  0  0  0  0  0  0  0
   -4.2123   -3.3614    1.2098 H   0  0  0  0  0  0  0  0  0  0  0  0
   -2.2048   -2.6434    1.5023 C   0  0  0  0  0  0  0  0  0  0  0  0
   -1.1682   -3.2821    1.4520 O   0  0  0  0  0  0  0  0  0  0  0  0
   -2.2220   -1.3308    1.0723 N   0  0  0  0  0  0  0  0  0  0  0  0
   -3.0622   -0.8053    1.3049 H   0  0  0  0  0  0  0  0  0  0  0  0
   -0.9935   -0.5324    0.9122 C   0  0  1  0  0  0  0  0  0  0  0  0
   -0.2034   -1.0018    1.5093 H   0  0  0  0  0  0  0  0  0  0  0  0
   -0.4678   -0.4829   -0.5422 C   0  0  0  0  0  0  0  0  0  0  0  0
    0.4880    0.0522   -0.5454 H   0  0  0  0  0  0  0  0  0  0  0  0
   -0.2452   -1.5198   -0.8169 H   0  0  0  0  0  0  0  0  0  0  0  0
   -1.3460    0.1021   -1.6775 C   0  0  0  0  0  0  0  0  0  0  0  0
   -1.1149    1.1717   -1.7357 H   0  0  0  0  0  0  0  0  0  0  0  0
   -1.0235   -0.3500   -2.6222 H   0  0  0  0  0  0  0  0  0  0  0  0
   -2.8713   -0.0267   -1.5512 C   0  0  0  0  0  0  0  0  0  0  0  0
   -3.1479   -1.0860   -1.5178 H   0  0  0  0  0  0  0  0  0  0  0  0
   -3.2178    0.4484   -0.6329 H   0  0  0  0  0  0  0  0  0  0  0  0
   -3.5438    0.6561   -2.7382 C   0  0  0  0  0  0  0  0  0  0  0  0
   -3.1320    1.6703   -2.8480 H   0  0  0  0  0  0  0  0  0  0  0  0
   -3.3058    0.1060   -3.6606 H   0  0  0  0  0  0  0  0  0  0  0  0
   -5.0009    0.7067   -2.4949 N   0  3  0  0  0  0  0  0  0  0  0  0
   -5.1864    1.2109   -1.6246 H   0  0  0  0  0  0  0  0  0  0  0  0
   -5.4702    1.1890   -3.2641 H   0  0  0  0  0  0  0  0  0  0  0  0
   -5.3754   -0.2402   -2.4167 H   0  0  0  0  0  0  0  0  0  0  0  0
   -1.1645    0.8813    1.5089 C   0  0  0  0  0  0  0  0  0  0  0  0
   -2.2250    1.4795    1.3538 O   0  0  0  0  0  0  0  0  0  0  0  0
   -0.1786    1.4415    2.2986 N   0  0  0  0  0  0  0  0  0  0  0  0
    0.6581    0.8903    2.4756 H   0  0  0  0  0  0  0  0  0  0  0  0
   -0.3280    2.7215    2.9834 C   0  0  0  0  0  0  0  0  0  0  0  0
   -1.1669    2.6861    3.6867 H   0  0  0  0  0  0  0  0  0  0  0  0
    0.5815    2.9593    3.5441 H   0  0  0  0  0  0  0  0  0  0  0  0
   -0.5071    3.5259    2.2620 H   0  0  0  0  0  0  0  0  0  0  0  0
  1  2  1  0  0  0  0
  2  3  1  0  0  0  0
  2  4  1  0  0  0  0
  2  5  1  0  0  0  0
  5  6  2  0  0  0  0
  5  7  1  0  0  0  0
  7  8  1  0  0  0  0
  7  9  1  0  0  0  0
  9 10  1  0  0  0  0
  9 11  1  0  0  0  0
  9 27  1  0  0  0  0
 11 12  1  0  0  0  0
 11 13  1  0  0  0  0
 11 14  1  0  0  0  0
 14 15  1  0  0  0  0
 14 16  1  0  0  0  0
 14 17  1  0  0  0  0
 17 18  1  0  0  0  0
 17 19  1  0  0  0  0
 17 20  1  0  0  0  0
 20 21  1  0  0  0  0
 20 22  1  0  0  0  0
 20 23  1  0  0  0  0
 23 24  1  0  0  0  0
 23 25  1  0  0  0  0
 23 26  1  0  0  0  0
 27 28  2  0  0  0  0
 27 29  1  0  0  0  0
 29 30  1  0  0  0  0
 29 31  1  0  0  0  0
 31 32  1  0  0  0  0
 31 33  1  0  0  0  0
 31 34  1  0  0  0  0
M  CHG  1  23   1
M  END
$$$$

  -OEChem-02102214153D

 34 33  0     1  0  0  0  0  0999 V2000
   -3.2255   -4.3101    2.2748 H   0  0  0  0  0  0  0  0  0  0  0  0
   -3.4527   -3.2782    1.9914 C   0  0  0  0  0  0  0  0  0  0  0  0
   -3.8229   -2.7477    2.8721 H   0  0  0  0  0  0  0  0  0  0  0  0
   -4.2300   -3.2882    1.2243 H   0  0  0  0  0  0  0  0  0  0  0  0
   -2.2043   -2.5993    1.4610 C   0  0  0  0  0  0  0  0  0  0  0  0
   -1.1694   -3.2317    1.3406 O   0  0  0  0  0  0  0  0  0  0  0  0
   -2.2390   -1.2669    1.0967 N   0  0  0  0  0  0  0  0  0  0  0  0
   -3.0692   -0.7552    1.3893 H   0  0  0  0  0  0  0  0  0  0  0  0
   -1.0184   -0.4599    0.9237 C   0  0  1  0  0  0  0  0  0  0  0  0
   -0.2226   -0.9541    1.4927 H   0  0  0  0  0  0  0  0  0  0  0  0
   -0.5089   -0.4177   -0.5382 C   0  0  0  0  0  0  0  0  0  0  0  0
    0.4431    0.1239   -0.5474 H   0  0  0  0  0  0  0  0  0  0  0  0
   -0.2749   -1.4553   -0.8031 H   0  0  0  0  0  0  0  0  0  0  0  0
   -1.3844    0.1450   -1.6899 C   0  0  0  0  0  0  0  0  0  0  0  0
   -0.9702    1.1244   -1.9544 H   0  0  0  0  0  0  0  0  0  0  0  0
   -1.2502   -0.5047   -2.5622 H   0  0  0  0  0  0  0  0  0  0  0  0
   -2.8870    0.3367   -1.4401 C   0  0  0  0  0  0  0  0  0  0  0  0
   -3.3497   -0.6284   -1.2108 H   0  0  0  0  0  0  0  0  0  0  0  0
   -3.0445    1.0072   -0.5977 H   0  0  0  0  0  0  0  0  0  0  0  0
   -3.5494    0.9463   -2.6710 C   0  0  0  0  0  0  0  0  0  0  0  0
   -2.9849    1.8387   -2.9786 H   0  0  0  0  0  0  0  0  0  0  0  0
   -3.5057    0.2297   -3.5041 H   0  0  0  0  0  0  0  0  0  0  0  0
   -4.9432    1.2990   -2.3263 N   0  3  0  0  0  0  0  0  0  0  0  0
   -4.9491    1.9246   -1.5168 H   0  0  0  0  0  0  0  0  0  0  0  0
   -5.3939    1.7697   -3.1135 H   0  0  0  0  0  0  0  0  0  0  0  0
   -5.4704    0.4553   -2.0957 H   0  0  0  0  0  0  0  0  0  0  0  0
   -1.1374    0.9301    1.5876 C   0  0  0  0  0  0  0  0  0  0  0  0
   -2.2125    1.5211    1.5783 O   0  0  0  0  0  0  0  0  0  0  0  0
   -0.1009    1.4370    2.3491 N   0  0  0  0  0  0  0  0  0  0  0  0
    0.7415    0.8732    2.4365 H   0  0  0  0  0  0  0  0  0  0  0  0
   -0.2143    2.6473    3.1575 C   0  0  0  0  0  0  0  0  0  0  0  0
   -0.9769    2.5212    3.9335 H   0  0  0  0  0  0  0  0  0  0  0  0
    0.7403    2.8683    3.6457 H   0  0  0  0  0  0  0  0  0  0  0  0
   -0.4862    3.5044    2.5324 H   0  0  0  0  0  0  0  0  0  0  0  0
  1  2  1  0  0  0  0
  2  3  1  0  0  0  0
  2  4  1  0  0  0  0
  2  5  1  0  0  0  0
  5  6  2  0  0  0  0
  5  7  1  0  0  0  0
  7  8  1  0  0  0  0
  7  9  1  0  0  0  0
  9 10  1  0  0  0  0
  9 11  1  0  0  0  0
  9 27  1  0  0  0  0
 11 12  1  0  0  0  0
 11 13  1  0  0  0  0
 11 14  1  0  0  0  0
 14 15  1  0  0  0  0
 14 16  1  0  0  0  0
 14 17  1  0  0  0  0
 17 18  1  0  0  0  0
 17 19  1  0  0  0  0
 17 20  1  0  0  0  0
 20 21  1  0  0  0  0
 20 22  1  0  0  0  0
 20 23  1  0  0  0  0
 23 24  1  0  0  0  0
 23 25  1  0  0  0  0
 23 26  1  0  0  0  0
 27 28  2  0  0  0  0
 27 29  1  0  0  0  0
 29 30  1  0  0  0  0
 29 31  1  0  0  0  0
 31 32  1  0  0  0  0
 31 33  1  0  0  0  0
 31 34  1  0  0  0  0
M  CHG  1  23   1
M  END
$$$$

  -OEChem-02102214153D

 34 33  0     1  0  0  0  0  0999 V2000
   -3.1303   -4.3991    2.2988 H   0  0  0  0  0  0  0  0  0  0  0  0
   -3.4157   -3.4384    1.8601 C   0  0  0  0  0  0  0  0  0  0  0  0
   -4.0004   -2.8793    2.5943 H   0  0  0  0  0  0  0  0  0  0  0  0
   -4.0312   -3.6258    0.9771 H   0  0  0  0  0  0  0  0  0  0  0  0
   -2.1760   -2.6552    1.4731 C   0  0  0  0  0  0  0  0  0  0  0  0
   -1.0717   -3.1529    1.6055 O   0  0  0  0  0  0  0  0  0  0  0  0
   -2.2924   -1.3753    0.9636 N   0  0  0  0  0  0  0  0  0  0  0  0
   -3.2136   -0.9534    1.0379 H   0  0  0  0  0  0  0  0  0  0  0  0
   -1.1402   -0.4698    0.7998 C   0  0  1  0  0  0  0  0  0  0  0  0
   -0.3480   -0.8177    1.4729 H   0  0  0  0  0  0  0  0  0  0  0  0
   -0.5372   -0.5513   -0.6266 C   0  0  0  0  0  0  0  0  0  0  0  0
    0.3485    0.0930   -0.6298 H   0  0  0  0  0  0  0  0  0  0  0  0
   -0.1668   -1.5764   -0.7441 H   0  0  0  0  0  0  0  0  0  0  0  0
   -1.3423   -0.2159   -1.9176 C   0  0  0  0  0  0  0  0  0  0  0  0
   -0.7751    0.5192   -2.4996 H   0  0  0  0  0  0  0  0  0  0  0  0
   -1.3402   -1.1348   -2.5153 H   0  0  0  0  0  0  0  0  0  0  0  0
   -2.8144    0.2302   -1.8291 C   0  0  0  0  0  0  0  0  0  0  0  0
   -3.2970   -0.1697   -0.9388 H   0  0  0  0  0  0  0  0  0  0  0  0
   -3.3629   -0.1720   -2.6878 H   0  0  0  0  0  0  0  0  0  0  0  0
   -2.8990    1.7595   -1.8789 C   0  0  0  0  0  0  0  0  0  0  0  0
   -1.9701    2.1812   -1.4685 H   0  0  0  0  0  0  0  0  0  0  0  0
   -2.9711    2.0886   -2.9255 H   0  0  0  0  0  0  0  0  0  0  0  0
   -4.0484    2.2182   -1.0761 N   0  3  0  0  0  0  0  0  0  0  0  0
   -3.8356    2.0330   -0.0817 H   0  0  0  0  0  0  0  0  0  0  0  0
   -4.1935    3.2204   -1.1972 H   0  0  0  0  0  0  0  0  0  0  0  0
   -4.8947    1.7148   -1.3381 H   0  0  0  0  0  0  0  0  0  0  0  0
   -1.4469    0.9595    1.2954 C   0  0  0  0  0  0  0  0  0  0  0  0
   -2.5569    1.4574    1.1030 O   0  0  0  0  0  0  0  0  0  0  0  0
   -0.5336    1.6413    2.0760 N   0  0  0  0  0  0  0  0  0  0  0  0
    0.3282    1.1554    2.3198 H   0  0  0  0  0  0  0  0  0  0  0  0
   -0.8183    2.9102    2.7390 C   0  0  0  0  0  0  0  0  0  0  0  0
   -1.6841    2.8132    3.4032 H   0  0  0  0  0  0  0  0  0  0  0  0
    0.0412    3.2228    3.3409 H   0  0  0  0  0  0  0  0  0  0  0  0
   -1.0235    3.6930    2.0016 H   0  0  0  0  0  0  0  0  0  0  0  0
  1  2  1  0  0  0  0
  2  3  1  0  0  0  0
  2  4  1  0  0  0  0
  2  5  1  0  0  0  0
  5  6  2  0  0  0  0
  5  7  1  0  0  0  0
  7  8  1  0  0  0  0
  7  9  1  0  0  0  0
  9 10  1  0  0  0  0
  9 11  1  0  0  0  0
  9 27  1  0  0  0  0
 11 12  1  0  0  0  0
 11 13  1  0  0  0  0
 11 14  1  0  0  0  0
 14 15  1  0  0  0  0
 14 16  1  0  0  0  0
 14 17  1  0  0  0  0
 17 18  1  0  0  0  0
 17 19  1  0  0  0  0
 17 20  1  0  0  0  0
 20 21  1  0  0  0  0
 20 22  1  0  0  0  0
 20 23  1  0  0  0  0
 23 24  1  0  0  0  0
 23 25  1  0  0  0  0
 23 26  1  0  0  0  0
 27 28  2  0  0  0  0
 27 29  1  0  0  0  0
 29 30  1  0  0  0  0
 29 31  1  0  0  0  0
 31 32  1  0  0  0  0
 31 33  1  0  0  0  0
 31 34  1  0  0  0  0
M  CHG  1  23   1
M  END
$$$$

  -OEChem-02102214153D

 34 33  0     1  0  0  0  0  0999 V2000
   -3.3828   -4.2356    2.0600 H   0  0  0  0  0  0  0  0  0  0  0  0
   -3.5602   -3.1864    1.8061 C   0  0  0  0  0  0  0  0  0  0  0  0
   -3.9570   -2.6761    2.6870 H   0  0  0  0  0  0  0  0  0  0  0  0
   -4.2969   -3.1398    1.0009 H   0  0  0  0  0  0  0  0  0  0  0  0
   -2.2657   -2.5316    1.3639 C   0  0  0  0  0  0  0  0  0  0  0  0
   -1.2448   -3.1919    1.2764 O   0  0  0  0  0  0  0  0  0  0  0  0
   -2.2414   -1.1876    1.0451 N   0  0  0  0  0  0  0  0  0  0  0  0
   -3.0687   -0.6584    1.3135 H   0  0  0  0  0  0  0  0  0  0  0  0
   -0.9906   -0.4179    0.9280 C   0  0  1  0  0  0  0  0  0  0  0  0
   -0.2221   -0.9521    1.4987 H   0  0  0  0  0  0  0  0  0  0  0  0
   -0.4712   -0.3906   -0.5323 C   0  0  0  0  0  0  0  0  0  0  0  0
    0.4757    0.1595   -0.5139 H   0  0  0  0  0  0  0  0  0  0  0  0
   -0.2240   -1.4213   -0.8112 H   0  0  0  0  0  0  0  0  0  0  0  0
   -1.3211    0.2106   -1.6844 C   0  0  0  0  0  0  0  0  0  0  0  0
   -0.6540    0.7769   -2.3438 H   0  0  0  0  0  0  0  0  0  0  0  0
   -1.7068   -0.6328   -2.2683 H   0  0  0  0  0  0  0  0  0  0  0  0
   -2.5177    1.0900   -1.3057 C   0  0  0  0  0  0  0  0  0  0  0  0
   -3.1929    0.5487   -0.6377 H   0  0  0  0  0  0  0  0  0  0  0  0
   -2.1447    1.9803   -0.7915 H   0  0  0  0  0  0  0  0  0  0  0  0
   -3.2876    1.5337   -2.5433 C   0  0  0  0  0  0  0  0  0  0  0  0
   -2.5979    2.0238   -3.2459 H   0  0  0  0  0  0  0  0  0  0  0  0
   -3.7039    0.6531   -3.0541 H   0  0  0  0  0  0  0  0  0  0  0  0
   -4.3518    2.4615   -2.1032 N   0  3  0  0  0  0  0  0  0  0  0  0
   -3.9375    3.2447   -1.5926 H   0  0  0  0  0  0  0  0  0  0  0  0
   -4.8657    2.8223   -2.9094 H   0  0  0  0  0  0  0  0  0  0  0  0
   -5.0013    1.9760   -1.4818 H   0  0  0  0  0  0  0  0  0  0  0  0
   -1.0868    0.9510    1.6387 C   0  0  0  0  0  0  0  0  0  0  0  0
   -2.1513    1.5643    1.6414 O   0  0  0  0  0  0  0  0  0  0  0  0
   -0.0552    1.3974    2.4430 N   0  0  0  0  0  0  0  0  0  0  0  0
    0.7639    0.8003    2.5335 H   0  0  0  0  0  0  0  0  0  0  0  0
   -0.1593    2.5676    3.3091 C   0  0  0  0  0  0  0  0  0  0  0  0
   -0.9317    2.4147    4.0703 H   0  0  0  0  0  0  0  0  0  0  0  0
    0.7936    2.7498    3.8161 H   0  0  0  0  0  0  0  0  0  0  0  0
   -0.4123    3.4586    2.7250 H   0  0  0  0  0  0  0  0  0  0  0  0
  1  2  1  0  0  0  0
  2  3  1  0  0  0  0
  2  4  1  0  0  0  0
  2  5  1  0  0  0  0
  5  6  2  0  0  0  0
  5  7  1  0  0  0  0
  7  8  1  0  0  0  0
  7  9  1  0  0  0  0
  9 10  1  0  0  0  0
  9 11  1  0  0  0  0
  9 27  1  0  0  0  0
 11 12  1  0  0  0  0
 11 13  1  0  0  0  0
 11 14  1  0  0  0  0
 14 15  1  0  0  0  0
 14 16  1  0  0  0  0
 14 17  1  0  0  0  0
 17 18  1  0  0  0  0
 17 19  1  0  0  0  0
 17 20  1  0  0  0  0
 20 21  1  0  0  0  0
 20 22  1  0  0  0  0
 20 23  1  0  0  0  0
 23 24  1  0  0  0  0
 23 25  1  0  0  0  0
 23 26  1  0  0  0  0
 27 28  2  0  0  0  0
 27 29  1  0  0  0  0
 29 30  1  0  0  0  0
 29 31  1  0  0  0  0
 31 32  1  0  0  0  0
 31 33  1  0  0  0  0
 31 34  1  0  0  0  0
M  CHG  1  23   1
M  END
$$$$

  -OEChem-02102214153D

 34 33  0     1  0  0  0  0  0999 V2000
   -3.4166   -4.2292    1.9646 H   0  0  0  0  0  0  0  0  0  0  0  0
   -3.5917   -3.1795    1.7110 C   0  0  0  0  0  0  0  0  0  0  0  0
   -4.0252   -2.6782    2.5797 H   0  0  0  0  0  0  0  0  0  0  0  0
   -4.2984   -3.1323    0.8793 H   0  0  0  0  0  0  0  0  0  0  0  0
   -2.2854   -2.5132    1.3231 C   0  0  0  0  0  0  0  0  0  0  0  0
   -1.2563   -3.1653    1.2785 O   0  0  0  0  0  0  0  0  0  0  0  0
   -2.2563   -1.1665    1.0141 N   0  0  0  0  0  0  0  0  0  0  0  0
   -3.1023   -0.6440    1.2315 H   0  0  0  0  0  0  0  0  0  0  0  0
   -1.0078   -0.3899    0.9226 C   0  0  1  0  0  0  0  0  0  0  0  0
   -0.2532   -0.9257    1.5098 H   0  0  0  0  0  0  0  0  0  0  0  0
   -0.4590   -0.3921   -0.5274 C   0  0  0  0  0  0  0  0  0  0  0  0
    0.4802    0.1710   -0.5070 H   0  0  0  0  0  0  0  0  0  0  0  0
   -0.1985   -1.4245   -0.7872 H   0  0  0  0  0  0  0  0  0  0  0  0
   -1.3105    0.1819   -1.6878 C   0  0  0  0  0  0  0  0  0  0  0  0
   -0.6293    0.5152   -2.4785 H   0  0  0  0  0  0  0  0  0  0  0  0
   -1.9039   -0.6425   -2.0987 H   0  0  0  0  0  0  0  0  0  0  0  0
   -2.2746    1.3150   -1.3305 C   0  0  0  0  0  0  0  0  0  0  0  0
   -3.0267    0.9423   -0.6290 H   0  0  0  0  0  0  0  0  0  0  0  0
   -1.7095    2.1243   -0.8564 H   0  0  0  0  0  0  0  0  0  0  0  0
   -2.9836    1.8647   -2.5606 C   0  0  0  0  0  0  0  0  0  0  0  0
   -2.2381    2.2154   -3.2892 H   0  0  0  0  0  0  0  0  0  0  0  0
   -3.5611    1.0615   -3.0413 H   0  0  0  0  0  0  0  0  0  0  0  0
   -3.8590    2.9685   -2.1097 N   0  3  0  0  0  0  0  0  0  0  0  0
   -3.2953    3.7026   -1.6755 H   0  0  0  0  0  0  0  0  0  0  0  0
   -4.3715    3.3633   -2.9003 H   0  0  0  0  0  0  0  0  0  0  0  0
   -4.5259    2.6209   -1.4174 H   0  0  0  0  0  0  0  0  0  0  0  0
   -1.0926    0.9814    1.6336 C   0  0  0  0  0  0  0  0  0  0  0  0
   -2.1388    1.6249    1.6173 O   0  0  0  0  0  0  0  0  0  0  0  0
   -0.0595    1.4116    2.4453 N   0  0  0  0  0  0  0  0  0  0  0  0
    0.7403    0.7918    2.5552 H   0  0  0  0  0  0  0  0  0  0  0  0
   -0.1518    2.5820    3.3127 C   0  0  0  0  0  0  0  0  0  0  0  0
   -0.9344    2.4412    4.0660 H   0  0  0  0  0  0  0  0  0  0  0  0
    0.7990    2.7459    3.8300 H   0  0  0  0  0  0  0  0  0  0  0  0
   -0.3823    3.4788    2.7280 H   0  0  0  0  0  0  0  0  0  0  0  0
  1  2  1  0  0  0  0
  2  3  1  0  0  0  0
  2  4  1  0  0  0  0
  2  5  1  0  0  0  0
  5  6  2  0  0  0  0
  5  7  1  0  0  0  0
  7  8  1  0  0  0  0
  7  9  1  0  0  0  0
  9 10  1  0  0  0  0
  9 11  1  0  0  0  0
  9 27  1  0  0  0  0
 11 12  1  0  0  0  0
 11 13  1  0  0  0  0
 11 14  1  0  0  0  0
 14 15  1  0  0  0  0
 14 16  1  0  0  0  0
 14 17  1  0  0  0  0
 17 18  1  0  0  0  0
 17 19  1  0  0  0  0
 17 20  1  0  0  0  0
 20 21  1  0  0  0  0
 20 22  1  0  0  0  0
 20 23  1  0  0  0  0
 23 24  1  0  0  0  0
 23 25  1  0  0  0  0
 23 26  1  0  0  0  0
 27 28  2  0  0  0  0
 27 29  1  0  0  0  0
 29 30  1  0  0  0  0
 29 31  1  0  0  0  0
 31 32  1  0  0  0  0
 31 33  1  0  0  0  0
 31 34  1  0  0  0  0
M  CHG  1  23   1
M  END
$$$$

  -OEChem-02102214153D

 34 33  0     1  0  0  0  0  0999 V2000
   -3.4311   -4.2325    1.9242 H   0  0  0  0  0  0  0  0  0  0  0  0
   -3.6035   -3.1833    1.6673 C   0  0  0  0  0  0  0  0  0  0  0  0
   -4.0615   -2.6842    2.5248 H   0  0  0  0  0  0  0  0  0  0  0  0
   -4.2881   -3.1383    0.8172 H   0  0  0  0  0  0  0  0  0  0  0  0
   -2.2902   -2.5115    1.3140 C   0  0  0  0  0  0  0  0  0  0  0  0
   -1.2569   -3.1585    1.2944 O   0  0  0  0  0  0  0  0  0  0  0  0
   -2.2602   -1.1649    1.0056 N   0  0  0  0  0  0  0  0  0  0  0  0
   -3.1176   -0.6466    1.1859 H   0  0  0  0  0  0  0  0  0  0  0  0
   -1.0177   -0.3799    0.9175 C   0  0  1  0  0  0  0  0  0  0  0  0
   -0.2645   -0.9128    1.5090 H   0  0  0  0  0  0  0  0  0  0  0  0
   -0.4637   -0.3912   -0.5294 C   0  0  0  0  0  0  0  0  0  0  0  0
    0.4751    0.1724   -0.5199 H   0  0  0  0  0  0  0  0  0  0  0  0
   -0.2071   -1.4263   -0.7830 H   0  0  0  0  0  0  0  0  0  0  0  0
   -1.3344    0.1694   -1.6790 C   0  0  0  0  0  0  0  0  0  0  0  0
   -0.6917    0.2738   -2.5600 H   0  0  0  0  0  0  0  0  0  0  0  0
   -2.1001   -0.5757   -1.9226 H   0  0  0  0  0  0  0  0  0  0  0  0
   -2.0325    1.5020   -1.4001 C   0  0  0  0  0  0  0  0  0  0  0  0
   -2.8612    1.3242   -0.7094 H   0  0  0  0  0  0  0  0  0  0  0  0
   -1.3225    2.1966   -0.9387 H   0  0  0  0  0  0  0  0  0  0  0  0
   -2.5928    2.1249   -2.6720 C   0  0  0  0  0  0  0  0  0  0  0  0
   -1.7743    2.3164   -3.3812 H   0  0  0  0  0  0  0  0  0  0  0  0
   -3.2842    1.4175   -3.1526 H   0  0  0  0  0  0  0  0  0  0  0  0
   -3.2811    3.3758   -2.2872 N   0  3  0  0  0  0  0  0  0  0  0  0
   -2.6098    4.0302   -1.8805 H   0  0  0  0  0  0  0  0  0  0  0  0
   -3.7179    3.8081   -3.1033 H   0  0  0  0  0  0  0  0  0  0  0  0
   -4.0007    3.1735   -1.5894 H   0  0  0  0  0  0  0  0  0  0  0  0
   -1.1003    0.9934    1.6244 C   0  0  0  0  0  0  0  0  0  0  0  0
   -2.1344    1.6536    1.5885 O   0  0  0  0  0  0  0  0  0  0  0  0
   -0.0651    1.4238    2.4337 N   0  0  0  0  0  0  0  0  0  0  0  0
    0.7194    0.7891    2.5657 H   0  0  0  0  0  0  0  0  0  0  0  0
   -0.1584    2.5942    3.3013 C   0  0  0  0  0  0  0  0  0  0  0  0
   -0.9401    2.4521    4.0554 H   0  0  0  0  0  0  0  0  0  0  0  0
    0.7927    2.7601    3.8173 H   0  0  0  0  0  0  0  0  0  0  0  0
   -0.3918    3.4907    2.7175 H   0  0  0  0  0  0  0  0  0  0  0  0
  1  2  1  0  0  0  0
  2  3  1  0  0  0  0
  2  4  1  0  0  0  0
  2  5  1  0  0  0  0
  5  6  2  0  0  0  0
  5  7  1  0  0  0  0
  7  8  1  0  0  0  0
  7  9  1  0  0  0  0
  9 10  1  0  0  0  0
  9 11  1  0  0  0  0
  9 27  1  0  0  0  0
 11 12  1  0  0  0  0
 11 13  1  0  0  0  0
 11 14  1  0  0  0  0
 14 15  1  0  0  0  0
 14 16  1  0  0  0  0
 14 17  1  0  0  0  0
 17 18  1  0  0  0  0
 17 19  1  0  0  0  0
 17 20  1  0  0  0  0
 20 21  1  0  0  0  0
 20 22  1  0  0  0  0
 20 23  1  0  0  0  0
 23 24  1  0  0  0  0
 23 25  1  0  0  0  0
 23 26  1  0  0  0  0
 27 28  2  0  0  0  0
 27 29  1  0  0  0  0
 29 30  1  0  0  0  0
 29 31  1  0  0  0  0
 31 32  1  0  0  0  0
 31 33  1  0  0  0  0
 31 34  1  0  0  0  0
M  CHG  1  23   1
M  END
$$$$

  -OEChem-02102214153D

 34 33  0     1  0  0  0  0  0999 V2000
   -3.9349   -3.7966    1.6461 H   0  0  0  0  0  0  0  0  0  0  0  0
   -3.9631   -2.7756    1.2539 C   0  0  0  0  0  0  0  0  0  0  0  0
   -4.5383   -2.1529    1.9431 H   0  0  0  0  0  0  0  0  0  0  0  0
   -4.4598   -2.7888    0.2811 H   0  0  0  0  0  0  0  0  0  0  0  0
   -2.5529   -2.2345    1.1124 C   0  0  0  0  0  0  0  0  0  0  0  0
   -1.5978   -2.9412    1.3833 O   0  0  0  0  0  0  0  0  0  0  0  0
   -2.3437   -0.9383    0.6766 N   0  0  0  0  0  0  0  0  0  0  0  0
   -3.1715   -0.3493    0.6447 H   0  0  0  0  0  0  0  0  0  0  0  0
   -1.0359   -0.2633    0.7703 C   0  0  1  0  0  0  0  0  0  0  0  0
   -0.4699   -0.7750    1.5576 H   0  0  0  0  0  0  0  0  0  0  0  0
   -0.2065   -0.4909   -0.5186 C   0  0  0  0  0  0  0  0  0  0  0  0
    0.7713   -0.0199   -0.3725 H   0  0  0  0  0  0  0  0  0  0  0  0
   -0.0252   -1.5684   -0.6044 H   0  0  0  0  0  0  0  0  0  0  0  0
   -0.7656   -0.0111   -1.8788 C   0  0  0  0  0  0  0  0  0  0  0  0
   -0.0269   -0.2814   -2.6419 H   0  0  0  0  0  0  0  0  0  0  0  0
   -1.6711   -0.5830   -2.1091 H   0  0  0  0  0  0  0  0  0  0  0  0
   -1.0444    1.4955   -2.0099 C   0  0  0  0  0  0  0  0  0  0  0  0
   -0.6250    1.8573   -2.9550 H   0  0  0  0  0  0  0  0  0  0  0  0
   -0.5285    2.0369   -1.2118 H   0  0  0  0  0  0  0  0  0  0  0  0
   -2.5490    1.7787   -2.0127 C   0  0  0  0  0  0  0  0  0  0  0  0
   -2.9336    1.7143   -3.0408 H   0  0  0  0  0  0  0  0  0  0  0  0
   -3.0588    1.0036   -1.4233 H   0  0  0  0  0  0  0  0  0  0  0  0
   -2.7905    3.1046   -1.4117 N   0  3  0  0  0  0  0  0  0  0  0  0
   -2.1918    3.8084   -1.8420 H   0  0  0  0  0  0  0  0  0  0  0  0
   -3.7681    3.3759   -1.5149 H   0  0  0  0  0  0  0  0  0  0  0  0
   -2.5676    3.0423   -0.4042 H   0  0  0  0  0  0  0  0  0  0  0  0
   -1.1203    1.1857    1.2988 C   0  0  0  0  0  0  0  0  0  0  0  0
   -2.0416    1.9261    0.9555 O   0  0  0  0  0  0  0  0  0  0  0  0
   -0.2308    1.6323    2.2568 N   0  0  0  0  0  0  0  0  0  0  0  0
    0.4488    0.9609    2.6112 H   0  0  0  0  0  0  0  0  0  0  0  0
   -0.3559    2.9113    2.9497 C   0  0  0  0  0  0  0  0  0  0  0  0
   -1.2926    2.9525    3.5159 H   0  0  0  0  0  0  0  0  0  0  0  0
    0.4749    3.0438    3.6503 H   0  0  0  0  0  0  0  0  0  0  0  0
   -0.3367    3.7419    2.2367 H   0  0  0  0  0  0  0  0  0  0  0  0
  1  2  1  0  0  0  0
  2  3  1  0  0  0  0
  2  4  1  0  0  0  0
  2  5  1  0  0  0  0
  5  6  2  0  0  0  0
  5  7  1  0  0  0  0
  7  8  1  0  0  0  0
  7  9  1  0  0  0  0
  9 10  1  0  0  0  0
  9 11  1  0  0  0  0
  9 27  1  0  0  0  0
 11 12  1  0  0  0  0
 11 13  1  0  0  0  0
 11 14  1  0  0  0  0
 14 15  1  0  0  0  0
 14 16  1  0  0  0  0
 14 17  1  0  0  0  0
 17 18  1  0  0  0  0
 17 19  1  0  0  0  0
 17 20  1  0  0  0  0
 20 21  1  0  0  0  0
 20 22  1  0  0  0  0
 20 23  1  0  0  0  0
 23 24  1  0  0  0  0
 23 25  1  0  0  0  0
 23 26  1  0  0  0  0
 27 28  2  0  0  0  0
 27 29  1  0  0  0  0
 29 30  1  0  0  0  0
 29 31  1  0  0  0  0
 31 32  1  0  0  0  0
 31 33  1  0  0  0  0
 31 34  1  0  0  0  0
M  CHG  1  23   1
M  END
$$$$

  -OEChem-02102214153D

 34 33  0     1  0  0  0  0  0999 V2000
   -3.8861   -3.8490    1.6473 H   0  0  0  0  0  0  0  0  0  0  0  0
   -3.9072   -2.8195    1.2774 C   0  0  0  0  0  0  0  0  0  0  0  0
   -4.5010   -2.2129    1.9653 H   0  0  0  0  0  0  0  0  0  0  0  0
   -4.3791   -2.8122    0.2922 H   0  0  0  0  0  0  0  0  0  0  0  0
   -2.4957   -2.2712    1.1842 C   0  0  0  0  0  0  0  0  0  0  0  0
   -1.5504   -2.9509    1.5444 O   0  0  0  0  0  0  0  0  0  0  0  0
   -2.2725   -0.9990    0.6904 N   0  0  0  0  0  0  0  0  0  0  0  0
   -3.0985   -0.4237    0.5462 H   0  0  0  0  0  0  0  0  0  0  0  0
   -0.9684   -0.3160    0.7754 C   0  0  1  0  0  0  0  0  0  0  0  0
   -0.3880   -0.7921    1.5741 H   0  0  0  0  0  0  0  0  0  0  0  0
   -0.1627   -0.5488   -0.5285 C   0  0  0  0  0  0  0  0  0  0  0  0
    0.8282   -0.0960   -0.4160 H   0  0  0  0  0  0  0  0  0  0  0  0
   -0.0059   -1.6296   -0.6214 H   0  0  0  0  0  0  0  0  0  0  0  0
   -0.7870   -0.0556   -1.8536 C   0  0  0  0  0  0  0  0  0  0  0  0
   -0.2469   -0.5337   -2.6787 H   0  0  0  0  0  0  0  0  0  0  0  0
   -1.8182   -0.4186   -1.9079 H   0  0  0  0  0  0  0  0  0  0  0  0
   -0.7307    1.4709   -2.0728 C   0  0  0  0  0  0  0  0  0  0  0  0
   -0.3225    1.9677   -1.1892 H   0  0  0  0  0  0  0  0  0  0  0  0
   -0.0295    1.6833   -2.8873 H   0  0  0  0  0  0  0  0  0  0  0  0
   -2.1041    2.0421   -2.4503 C   0  0  0  0  0  0  0  0  0  0  0  0
   -2.1076    2.3063   -3.5177 H   0  0  0  0  0  0  0  0  0  0  0  0
   -2.8729    1.2700   -2.3079 H   0  0  0  0  0  0  0  0  0  0  0  0
   -2.3979    3.2131   -1.5999 N   0  3  0  0  0  0  0  0  0  0  0  0
   -1.7043    3.9450   -1.7487 H   0  0  0  0  0  0  0  0  0  0  0  0
   -3.3282    3.5797   -1.7999 H   0  0  0  0  0  0  0  0  0  0  0  0
   -2.3626    2.9196   -0.6093 H   0  0  0  0  0  0  0  0  0  0  0  0
   -1.1061    1.1520    1.2306 C   0  0  0  0  0  0  0  0  0  0  0  0
   -2.0041    1.8641    0.7792 O   0  0  0  0  0  0  0  0  0  0  0  0
   -0.2583    1.6710    2.1899 N   0  0  0  0  0  0  0  0  0  0  0  0
    0.4020    1.0271    2.6231 H   0  0  0  0  0  0  0  0  0  0  0  0
   -0.4217    2.9911    2.7908 C   0  0  0  0  0  0  0  0  0  0  0  0
   -1.3889    3.0659    3.2998 H   0  0  0  0  0  0  0  0  0  0  0  0
    0.3685    3.1702    3.5274 H   0  0  0  0  0  0  0  0  0  0  0  0
   -0.3612    3.7742    2.0280 H   0  0  0  0  0  0  0  0  0  0  0  0
  1  2  1  0  0  0  0
  2  3  1  0  0  0  0
  2  4  1  0  0  0  0
  2  5  1  0  0  0  0
  5  6  2  0  0  0  0
  5  7  1  0  0  0  0
  7  8  1  0  0  0  0
  7  9  1  0  0  0  0
  9 10  1  0  0  0  0
  9 11  1  0  0  0  0
  9 27  1  0  0  0  0
 11 12  1  0  0  0  0
 11 13  1  0  0  0  0
 11 14  1  0  0  0  0
 14 15  1  0  0  0  0
 14 16  1  0  0  0  0
 14 17  1  0  0  0  0
 17 18  1  0  0  0  0
 17 19  1  0  0  0  0
 17 20  1  0  0  0  0
 20 21  1  0  0  0  0
 20 22  1  0  0  0  0
 20 23  1  0  0  0  0
 23 24  1  0  0  0  0
 23 25  1  0  0  0  0
 23 26  1  0  0  0  0
 27 28  2  0  0  0  0
 27 29  1  0  0  0  0
 29 30  1  0  0  0  0
 29 31  1  0  0  0  0
 31 32  1  0  0  0  0
 31 33  1  0  0  0  0
 31 34  1  0  0  0  0
M  CHG  1  23   1
M  END
$$$$

  -OEChem-02102214153D

 34 33  0     1  0  0  0  0  0999 V2000
   -4.0200   -3.6428    1.8098 H   0  0  0  0  0  0  0  0  0  0  0  0
   -3.9820   -2.6159    1.4343 C   0  0  0  0  0  0  0  0  0  0  0  0
   -4.4835   -1.9622    2.1519 H   0  0  0  0  0  0  0  0  0  0  0  0
   -4.5100   -2.5737    0.4790 H   0  0  0  0  0  0  0  0  0  0  0  0
   -2.5398   -2.1824    1.2538 C   0  0  0  0  0  0  0  0  0  0  0  0
   -1.6315   -2.9229    1.5873 O   0  0  0  0  0  0  0  0  0  0  0  0
   -2.2467   -0.9455    0.7103 N   0  0  0  0  0  0  0  0  0  0  0  0
   -3.0324   -0.3078    0.6132 H   0  0  0  0  0  0  0  0  0  0  0  0
   -0.8938   -0.3585    0.7460 C   0  0  1  0  0  0  0  0  0  0  0  0
   -0.3009   -0.8576    1.5214 H   0  0  0  0  0  0  0  0  0  0  0  0
   -0.1773   -0.6005   -0.6051 C   0  0  0  0  0  0  0  0  0  0  0  0
    0.8540   -0.2373   -0.5407 H   0  0  0  0  0  0  0  0  0  0  0  0
   -0.1190   -1.6856   -0.7474 H   0  0  0  0  0  0  0  0  0  0  0  0
   -0.8629    0.0023   -1.8509 C   0  0  0  0  0  0  0  0  0  0  0  0
   -0.6359   -0.6255   -2.7199 H   0  0  0  0  0  0  0  0  0  0  0  0
   -1.9481   -0.0245   -1.7177 H   0  0  0  0  0  0  0  0  0  0  0  0
   -0.3766    1.4382   -2.1468 C   0  0  0  0  0  0  0  0  0  0  0  0
   -0.0678    1.9536   -1.2339 H   0  0  0  0  0  0  0  0  0  0  0  0
    0.5186    1.3692   -2.7749 H   0  0  0  0  0  0  0  0  0  0  0  0
   -1.4225    2.2852   -2.8733 C   0  0  0  0  0  0  0  0  0  0  0  0
   -0.9350    3.1995   -3.2419 H   0  0  0  0  0  0  0  0  0  0  0  0
   -1.7937    1.7400   -3.7531 H   0  0  0  0  0  0  0  0  0  0  0  0
   -2.5186    2.6246   -1.9386 N   0  3  0  0  0  0  0  0  0  0  0  0
   -2.8009    3.5979   -2.0547 H   0  0  0  0  0  0  0  0  0  0  0  0
   -3.3231    2.0207   -2.0989 H   0  0  0  0  0  0  0  0  0  0  0  0
   -2.2018    2.4880   -0.9643 H   0  0  0  0  0  0  0  0  0  0  0  0
   -0.9651    1.1257    1.1583 C   0  0  0  0  0  0  0  0  0  0  0  0
   -1.8206    1.8550    0.6507 O   0  0  0  0  0  0  0  0  0  0  0  0
   -0.0914    1.6487    2.0903 N   0  0  0  0  0  0  0  0  0  0  0  0
    0.5428    0.9996    2.5534 H   0  0  0  0  0  0  0  0  0  0  0  0
   -0.1766    3.0130    2.6018 C   0  0  0  0  0  0  0  0  0  0  0  0
   -1.1187    3.1637    3.1397 H   0  0  0  0  0  0  0  0  0  0  0  0
    0.6497    3.2104    3.2925 H   0  0  0  0  0  0  0  0  0  0  0  0
   -0.1173    3.7376    1.7831 H   0  0  0  0  0  0  0  0  0  0  0  0
  1  2  1  0  0  0  0
  2  3  1  0  0  0  0
  2  4  1  0  0  0  0
  2  5  1  0  0  0  0
  5  6  2  0  0  0  0
  5  7  1  0  0  0  0
  7  8  1  0  0  0  0
  7  9  1  0  0  0  0
  9 10  1  0  0  0  0
  9 11  1  0  0  0  0
  9 27  1  0  0  0  0
 11 12  1  0  0  0  0
 11 13  1  0  0  0  0
 11 14  1  0  0  0  0
 14 15  1  0  0  0  0
 14 16  1  0  0  0  0
 14 17  1  0  0  0  0
 17 18  1  0  0  0  0
 17 19  1  0  0  0  0
 17 20  1  0  0  0  0
 20 21  1  0  0  0  0
 20 22  1  0  0  0  0
 20 23  1  0  0  0  0
 23 24  1  0  0  0  0
 23 25  1  0  0  0  0
 23 26  1  0  0  0  0
 27 28  2  0  0  0  0
 27 29  1  0  0  0  0
 29 30  1  0  0  0  0
 29 31  1  0  0  0  0
 31 32  1  0  0  0  0
 31 33  1  0  0  0  0
 31 34  1  0  0  0  0
M  CHG  1  23   1
M  END
$$$$

  -OEChem-02102214153D

 34 33  0     1  0  0  0  0  0999 V2000
   -3.7303   -4.0767    1.8438 H   0  0  0  0  0  0  0  0  0  0  0  0
   -3.7877   -3.0578    1.4498 C   0  0  0  0  0  0  0  0  0  0  0  0
   -4.3903   -2.4520    2.1308 H   0  0  0  0  0  0  0  0  0  0  0  0
   -4.2726   -3.0874    0.4713 H   0  0  0  0  0  0  0  0  0  0  0  0
   -2.3955   -2.4695    1.3233 C   0  0  0  0  0  0  0  0  0  0  0  0
   -1.4233   -3.1113    1.6835 O   0  0  0  0  0  0  0  0  0  0  0  0
   -2.2204   -1.2058    0.7939 N   0  0  0  0  0  0  0  0  0  0  0  0
   -3.0640   -0.6626    0.6221 H   0  0  0  0  0  0  0  0  0  0  0  0
   -0.9374   -0.4818    0.8184 C   0  0  1  0  0  0  0  0  0  0  0  0
   -0.2803   -0.9383    1.5671 H   0  0  0  0  0  0  0  0  0  0  0  0
   -0.2351   -0.6027   -0.5518 C   0  0  0  0  0  0  0  0  0  0  0  0
    0.7519   -0.1306   -0.5041 H   0  0  0  0  0  0  0  0  0  0  0  0
   -0.0661   -1.6684   -0.7426 H   0  0  0  0  0  0  0  0  0  0  0  0
   -1.0569   -0.0247   -1.7239 C   0  0  0  0  0  0  0  0  0  0  0  0
   -1.0207   -0.7270   -2.5641 H   0  0  0  0  0  0  0  0  0  0  0  0
   -2.1093    0.0761   -1.4401 H   0  0  0  0  0  0  0  0  0  0  0  0
   -0.4963    1.3275   -2.1869 C   0  0  0  0  0  0  0  0  0  0  0  0
   -0.2249    1.9274   -1.3120 H   0  0  0  0  0  0  0  0  0  0  0  0
    0.4103    1.1737   -2.7823 H   0  0  0  0  0  0  0  0  0  0  0  0
   -1.5559    2.0717   -2.9936 C   0  0  0  0  0  0  0  0  0  0  0  0
   -1.7032    1.5671   -3.9594 H   0  0  0  0  0  0  0  0  0  0  0  0
   -2.5124    2.0270   -2.4512 H   0  0  0  0  0  0  0  0  0  0  0  0
   -1.1265    3.4748   -3.1665 N   0  3  0  0  0  0  0  0  0  0  0  0
   -0.2146    3.5088   -3.6245 H   0  0  0  0  0  0  0  0  0  0  0  0
   -1.8067    3.9836   -3.7343 H   0  0  0  0  0  0  0  0  0  0  0  0
   -1.0571    3.9245   -2.2505 H   0  0  0  0  0  0  0  0  0  0  0  0
   -1.1124    0.9930    1.2426 C   0  0  0  0  0  0  0  0  0  0  0  0
   -1.9664    1.6946    0.7044 O   0  0  0  0  0  0  0  0  0  0  0  0
   -0.2530    1.5626    2.1631 N   0  0  0  0  0  0  0  0  0  0  0  0
    0.3787    0.9340    2.6555 H   0  0  0  0  0  0  0  0  0  0  0  0
   -0.4239    2.9144    2.6857 C   0  0  0  0  0  0  0  0  0  0  0  0
   -1.3692    2.9976    3.2330 H   0  0  0  0  0  0  0  0  0  0  0  0
    0.3940    3.1616    3.3700 H   0  0  0  0  0  0  0  0  0  0  0  0
   -0.4224    3.6471    1.8722 H   0  0  0  0  0  0  0  0  0  0  0  0
  1  2  1  0  0  0  0
  2  3  1  0  0  0  0
  2  4  1  0  0  0  0
  2  5  1  0  0  0  0
  5  6  2  0  0  0  0
  5  7  1  0  0  0  0
  7  8  1  0  0  0  0
  7  9  1  0  0  0  0
  9 10  1  0  0  0  0
  9 11  1  0  0  0  0
  9 27  1  0  0  0  0
 11 12  1  0  0  0  0
 11 13  1  0  0  0  0
 11 14  1  0  0  0  0
 14 15  1  0  0  0  0
 14 16  1  0  0  0  0
 14 17  1  0  0  0  0
 17 18  1  0  0  0  0
 17 19  1  0  0  0  0
 17 20  1  0  0  0  0
 20 21  1  0  0  0  0
 20 22  1  0  0  0  0
 20 23  1  0  0  0  0
 23 24  1  0  0  0  0
 23 25  1  0  0  0  0
 23 26  1  0  0  0  0
 27 28  2  0  0  0  0
 27 29  1  0  0  0  0
 29 30  1  0  0  0  0
 29 31  1  0  0  0  0
 31 32  1  0  0  0  0
 31 33  1  0  0  0  0
 31 34  1  0  0  0  0
M  CHG  1  23   1
M  END
$$$$

  -OEChem-02102214153D

 34 33  0     1  0  0  0  0  0999 V2000
   -3.6925   -4.0964    1.8997 H   0  0  0  0  0  0  0  0  0  0  0  0
   -3.7615   -3.0977    1.4589 C   0  0  0  0  0  0  0  0  0  0  0  0
   -4.3728   -2.4690    2.1108 H   0  0  0  0  0  0  0  0  0  0  0  0
   -4.2447   -3.1775    0.4823 H   0  0  0  0  0  0  0  0  0  0  0  0
   -2.3761   -2.4986    1.3065 C   0  0  0  0  0  0  0  0  0  0  0  0
   -1.3891   -3.1512    1.6018 O   0  0  0  0  0  0  0  0  0  0  0  0
   -2.2250   -1.2135    0.8240 N   0  0  0  0  0  0  0  0  0  0  0  0
   -3.0767   -0.6674    0.7078 H   0  0  0  0  0  0  0  0  0  0  0  0
   -0.9490   -0.4781    0.8429 C   0  0  1  0  0  0  0  0  0  0  0  0
   -0.2720   -0.9588    1.5579 H   0  0  0  0  0  0  0  0  0  0  0  0
   -0.2824   -0.5530   -0.5458 C   0  0  0  0  0  0  0  0  0  0  0  0
    0.6918   -0.0551   -0.4967 H   0  0  0  0  0  0  0  0  0  0  0  0
   -0.0871   -1.6065   -0.7756 H   0  0  0  0  0  0  0  0  0  0  0  0
   -1.1408    0.0499   -1.6805 C   0  0  0  0  0  0  0  0  0  0  0  0
   -1.3467   -0.7352   -2.4165 H   0  0  0  0  0  0  0  0  0  0  0  0
   -2.1108    0.3863   -1.3019 H   0  0  0  0  0  0  0  0  0  0  0  0
   -0.4238    1.2143   -2.3721 C   0  0  0  0  0  0  0  0  0  0  0  0
   -0.1187    1.9459   -1.6152 H   0  0  0  0  0  0  0  0  0  0  0  0
    0.4758    0.8486   -2.8790 H   0  0  0  0  0  0  0  0  0  0  0  0
   -1.3696    1.8774   -3.3696 C   0  0  0  0  0  0  0  0  0  0  0  0
   -1.6353    1.1549   -4.1552 H   0  0  0  0  0  0  0  0  0  0  0  0
   -2.3008    2.1507   -2.8506 H   0  0  0  0  0  0  0  0  0  0  0  0
   -0.7121    3.0736   -3.9365 N   0  3  0  0  0  0  0  0  0  0  0  0
    0.1534    2.8064   -4.4084 H   0  0  0  0  0  0  0  0  0  0  0  0
   -1.3319    3.5298   -4.6091 H   0  0  0  0  0  0  0  0  0  0  0  0
   -0.4927    3.7339   -3.1876 H   0  0  0  0  0  0  0  0  0  0  0  0
   -1.1054    0.9799    1.3278 C   0  0  0  0  0  0  0  0  0  0  0  0
   -1.9844    1.6953    0.8578 O   0  0  0  0  0  0  0  0  0  0  0  0
   -0.2167    1.5138    2.2424 N   0  0  0  0  0  0  0  0  0  0  0  0
    0.4369    0.8718    2.6855 H   0  0  0  0  0  0  0  0  0  0  0  0
   -0.3682    2.8487    2.8126 C   0  0  0  0  0  0  0  0  0  0  0  0
   -1.3135    2.9270    3.3607 H   0  0  0  0  0  0  0  0  0  0  0  0
    0.4518    3.0602    3.5063 H   0  0  0  0  0  0  0  0  0  0  0  0
   -0.3551    3.6085    2.0240 H   0  0  0  0  0  0  0  0  0  0  0  0
  1  2  1  0  0  0  0
  2  3  1  0  0  0  0
  2  4  1  0  0  0  0
  2  5  1  0  0  0  0
  5  6  2  0  0  0  0
  5  7  1  0  0  0  0
  7  8  1  0  0  0  0
  7  9  1  0  0  0  0
  9 10  1  0  0  0  0
  9 11  1  0  0  0  0
  9 27  1  0  0  0  0
 11 12  1  0  0  0  0
 11 13  1  0  0  0  0
 11 14  1  0  0  0  0
 14 15  1  0  0  0  0
 14 16  1  0  0  0  0
 14 17  1  0  0  0  0
 17 18  1  0  0  0  0
 17 19  1  0  0  0  0
 17 20  1  0  0  0  0
 20 21  1  0  0  0  0
 20 22  1  0  0  0  0
 20 23  1  0  0  0  0
 23 24  1  0  0  0  0
 23 25  1  0  0  0  0
 23 26  1  0  0  0  0
 27 28  2  0  0  0  0
 27 29  1  0  0  0  0
 29 30  1  0  0  0  0
 29 31  1  0  0  0  0
 31 32  1  0  0  0  0
 31 33  1  0  0  0  0
 31 34  1  0  0  0  0
M  CHG  1  23   1
M  END
$$$$

  -OEChem-02102214153D

 34 33  0     1  0  0  0  0  0999 V2000
   -3.6630   -4.0960    1.9102 H   0  0  0  0  0  0  0  0  0  0  0  0
   -3.7464   -3.0970    1.4724 C   0  0  0  0  0  0  0  0  0  0  0  0
   -4.3417   -2.4707    2.1413 H   0  0  0  0  0  0  0  0  0  0  0  0
   -4.2553   -3.1768    0.5089 H   0  0  0  0  0  0  0  0  0  0  0  0
   -2.3673   -2.4942    1.2836 C   0  0  0  0  0  0  0  0  0  0  0  0
   -1.3704   -3.1563    1.5198 O   0  0  0  0  0  0  0  0  0  0  0  0
   -2.2326   -1.1969    0.8299 N   0  0  0  0  0  0  0  0  0  0  0  0
   -3.0871   -0.6456    0.7672 H   0  0  0  0  0  0  0  0  0  0  0  0
   -0.9595   -0.4579    0.8416 C   0  0  1  0  0  0  0  0  0  0  0  0
   -0.2745   -0.9490    1.5415 H   0  0  0  0  0  0  0  0  0  0  0  0
   -0.3072   -0.5260   -0.5539 C   0  0  0  0  0  0  0  0  0  0  0  0
    0.6544   -0.0049   -0.4993 H   0  0  0  0  0  0  0  0  0  0  0  0
   -0.0883   -1.5726   -0.7929 H   0  0  0  0  0  0  0  0  0  0  0  0
   -1.1710    0.0757   -1.6845 C   0  0  0  0  0  0  0  0  0  0  0  0
   -1.6195   -0.7442   -2.2564 H   0  0  0  0  0  0  0  0  0  0  0  0
   -1.9978    0.6616   -1.2748 H   0  0  0  0  0  0  0  0  0  0  0  0
   -0.3438    0.9715   -2.6125 C   0  0  0  0  0  0  0  0  0  0  0  0
    0.1337    1.7604   -2.0206 H   0  0  0  0  0  0  0  0  0  0  0  0
    0.4426    0.3781   -3.0918 H   0  0  0  0  0  0  0  0  0  0  0  0
   -1.2546    1.5982   -3.6650 C   0  0  0  0  0  0  0  0  0  0  0  0
   -1.7138    0.8014   -4.2685 H   0  0  0  0  0  0  0  0  0  0  0  0
   -2.0719    2.1332   -3.1584 H   0  0  0  0  0  0  0  0  0  0  0  0
   -0.4609    2.5190   -4.5066 N   0  3  0  0  0  0  0  0  0  0  0  0
    0.2844    2.0050   -4.9798 H   0  0  0  0  0  0  0  0  0  0  0  0
   -1.0602    2.9581   -5.2088 H   0  0  0  0  0  0  0  0  0  0  0  0
   -0.0438    3.2484   -3.9246 H   0  0  0  0  0  0  0  0  0  0  0  0
   -1.1112    0.9868    1.3658 C   0  0  0  0  0  0  0  0  0  0  0  0
   -2.0367    1.6894    0.9753 O   0  0  0  0  0  0  0  0  0  0  0  0
   -0.2067    1.5033    2.2749 N   0  0  0  0  0  0  0  0  0  0  0  0
    0.4785    0.8621    2.6682 H   0  0  0  0  0  0  0  0  0  0  0  0
   -0.3617    2.8164    2.8928 C   0  0  0  0  0  0  0  0  0  0  0  0
   -1.2984    2.8668    3.4582 H   0  0  0  0  0  0  0  0  0  0  0  0
    0.4673    3.0124    3.5801 H   0  0  0  0  0  0  0  0  0  0  0  0
   -0.3689    3.6022    2.1302 H   0  0  0  0  0  0  0  0  0  0  0  0
  1  2  1  0  0  0  0
  2  3  1  0  0  0  0
  2  4  1  0  0  0  0
  2  5  1  0  0  0  0
  5  6  2  0  0  0  0
  5  7  1  0  0  0  0
  7  8  1  0  0  0  0
  7  9  1  0  0  0  0
  9 10  1  0  0  0  0
  9 11  1  0  0  0  0
  9 27  1  0  0  0  0
 11 12  1  0  0  0  0
 11 13  1  0  0  0  0
 11 14  1  0  0  0  0
 14 15  1  0  0  0  0
 14 16  1  0  0  0  0
 14 17  1  0  0  0  0
 17 18  1  0  0  0  0
 17 19  1  0  0  0  0
 17 20  1  0  0  0  0
 20 21  1  0  0  0  0
 20 22  1  0  0  0  0
 20 23  1  0  0  0  0
 23 24  1  0  0  0  0
 23 25  1  0  0  0  0
 23 26  1  0  0  0  0
 27 28  2  0  0  0  0
 27 29  1  0  0  0  0
 29 30  1  0  0  0  0
 29 31  1  0  0  0  0
 31 32  1  0  0  0  0
 31 33  1  0  0  0  0
 31 34  1  0  0  0  0
M  CHG  1  23   1
M  END
$$$$

  -OEChem-02102214153D

 34 33  0     1  0  0  0  0  0999 V2000
   -3.6503   -4.0896    1.9002 H   0  0  0  0  0  0  0  0  0  0  0  0
   -3.7393   -3.0785    1.4923 C   0  0  0  0  0  0  0  0  0  0  0  0
   -4.2993   -2.4634    2.2007 H   0  0  0  0  0  0  0  0  0  0  0  0
   -4.2872   -3.1263    0.5484 H   0  0  0  0  0  0  0  0  0  0  0  0
   -2.3622   -2.4858    1.2640 C   0  0  0  0  0  0  0  0  0  0  0  0
   -1.3637   -3.1610    1.4522 O   0  0  0  0  0  0  0  0  0  0  0  0
   -2.2315   -1.1834    0.8250 N   0  0  0  0  0  0  0  0  0  0  0  0
   -3.0831   -0.6240    0.8034 H   0  0  0  0  0  0  0  0  0  0  0  0
   -0.9566   -0.4481    0.8307 C   0  0  1  0  0  0  0  0  0  0  0  0
   -0.2669   -0.9460    1.5212 H   0  0  0  0  0  0  0  0  0  0  0  0
   -0.3173   -0.5134   -0.5711 C   0  0  0  0  0  0  0  0  0  0  0  0
    0.6392    0.0172   -0.5201 H   0  0  0  0  0  0  0  0  0  0  0  0
   -0.0945   -1.5575   -0.8175 H   0  0  0  0  0  0  0  0  0  0  0  0
   -1.1855    0.0938   -1.6919 C   0  0  0  0  0  0  0  0  0  0  0  0
   -1.8566   -0.6802   -2.0805 H   0  0  0  0  0  0  0  0  0  0  0  0
   -1.8131    0.8982   -1.3004 H   0  0  0  0  0  0  0  0  0  0  0  0
   -0.3207    0.6702   -2.8171 C   0  0  0  0  0  0  0  0  0  0  0  0
    0.3459    1.4379   -2.4086 H   0  0  0  0  0  0  0  0  0  0  0  0
    0.2969   -0.1259   -3.2473 H   0  0  0  0  0  0  0  0  0  0  0  0
   -1.2191    1.2809   -3.8892 C   0  0  0  0  0  0  0  0  0  0  0  0
   -1.8832    0.5015   -4.2910 H   0  0  0  0  0  0  0  0  0  0  0  0
   -1.8604    2.0466   -3.4275 H   0  0  0  0  0  0  0  0  0  0  0  0
   -0.3747    1.8650   -4.9531 N   0  3  0  0  0  0  0  0  0  0  0  0
    0.2172    1.1414   -5.3653 H   0  0  0  0  0  0  0  0  0  0  0  0
   -0.9617    2.2710   -5.6852 H   0  0  0  0  0  0  0  0  0  0  0  0
    0.2204    2.5974   -4.5615 H   0  0  0  0  0  0  0  0  0  0  0  0
   -1.1121    0.9881    1.3768 C   0  0  0  0  0  0  0  0  0  0  0  0
   -2.0716    1.6706    1.0370 O   0  0  0  0  0  0  0  0  0  0  0  0
   -0.2039    1.4998    2.2847 N   0  0  0  0  0  0  0  0  0  0  0  0
    0.5050    0.8658    2.6454 H   0  0  0  0  0  0  0  0  0  0  0  0
   -0.3765    2.7926    2.9399 C   0  0  0  0  0  0  0  0  0  0  0  0
   -1.2970    2.8025    3.5334 H   0  0  0  0  0  0  0  0  0  0  0  0
    0.4672    2.9950    3.6073 H   0  0  0  0  0  0  0  0  0  0  0  0
   -0.4282    3.5967    2.1983 H   0  0  0  0  0  0  0  0  0  0  0  0
  1  2  1  0  0  0  0
  2  3  1  0  0  0  0
  2  4  1  0  0  0  0
  2  5  1  0  0  0  0
  5  6  2  0  0  0  0
  5  7  1  0  0  0  0
  7  8  1  0  0  0  0
  7  9  1  0  0  0  0
  9 10  1  0  0  0  0
  9 11  1  0  0  0  0
  9 27  1  0  0  0  0
 11 12  1  0  0  0  0
 11 13  1  0  0  0  0
 11 14  1  0  0  0  0
 14 15  1  0  0  0  0
 14 16  1  0  0  0  0
 14 17  1  0  0  0  0
 17 18  1  0  0  0  0
 17 19  1  0  0  0  0
 17 20  1  0  0  0  0
 20 21  1  0  0  0  0
 20 22  1  0  0  0  0
 20 23  1  0  0  0  0
 23 24  1  0  0  0  0
 23 25  1  0  0  0  0
 23 26  1  0  0  0  0
 27 28  2  0  0  0  0
 27 29  1  0  0  0  0
 29 30  1  0  0  0  0
 29 31  1  0  0  0  0
 31 32  1  0  0  0  0
 31 33  1  0  0  0  0
 31 34  1  0  0  0  0
M  CHG  1  23   1
M  END
$$$$

  -OEChem-02102214153D

 34 33  0     1  0  0  0  0  0999 V2000
   -3.6591   -4.0769    1.9240 H   0  0  0  0  0  0  0  0  0  0  0  0
   -3.7442   -3.0631    1.5220 C   0  0  0  0  0  0  0  0  0  0  0  0
   -4.2810   -2.4438    2.2450 H   0  0  0  0  0  0  0  0  0  0  0  0
   -4.3129   -3.1003    0.5900 H   0  0  0  0  0  0  0  0  0  0  0  0
   -2.3650   -2.4867    1.2660 C   0  0  0  0  0  0  0  0  0  0  0  0
   -1.3707   -3.1724    1.4369 O   0  0  0  0  0  0  0  0  0  0  0  0
   -2.2275   -1.1873    0.8216 N   0  0  0  0  0  0  0  0  0  0  0  0
   -3.0732   -0.6180    0.8169 H   0  0  0  0  0  0  0  0  0  0  0  0
   -0.9469   -0.4620    0.8213 C   0  0  1  0  0  0  0  0  0  0  0  0
   -0.2554   -0.9611    1.5094 H   0  0  0  0  0  0  0  0  0  0  0  0
   -0.3149   -0.5227   -0.5844 C   0  0  0  0  0  0  0  0  0  0  0  0
    0.6468   -0.0005   -0.5431 H   0  0  0  0  0  0  0  0  0  0  0  0
   -0.1075   -1.5688   -0.8363 H   0  0  0  0  0  0  0  0  0  0  0  0
   -1.1864    0.0994   -1.6920 C   0  0  0  0  0  0  0  0  0  0  0  0
   -2.0318   -0.5651   -1.9013 H   0  0  0  0  0  0  0  0  0  0  0  0
   -1.5928    1.0595   -1.3615 H   0  0  0  0  0  0  0  0  0  0  0  0
   -0.3682    0.3382   -2.9646 C   0  0  0  0  0  0  0  0  0  0  0  0
    0.4687    1.0090   -2.7407 H   0  0  0  0  0  0  0  0  0  0  0  0
    0.0423   -0.6145   -3.3173 H   0  0  0  0  0  0  0  0  0  0  0  0
   -1.2603    0.9577   -4.0377 C   0  0  0  0  0  0  0  0  0  0  0  0
   -2.1033    0.2811   -4.2417 H   0  0  0  0  0  0  0  0  0  0  0  0
   -1.6858    1.8974   -3.6548 H   0  0  0  0  0  0  0  0  0  0  0  0
   -0.4585    1.1934   -5.2576 N   0  3  0  0  0  0  0  0  0  0  0  0
   -0.0683    0.3111   -5.5944 H   0  0  0  0  0  0  0  0  0  0  0  0
   -1.0448    1.5985   -5.9907 H   0  0  0  0  0  0  0  0  0  0  0  0
    0.3074    1.8377   -5.0519 H   0  0  0  0  0  0  0  0  0  0  0  0
   -1.1093    0.9734    1.3653 C   0  0  0  0  0  0  0  0  0  0  0  0
   -2.0814    1.6413    1.0315 O   0  0  0  0  0  0  0  0  0  0  0  0
   -0.2069    1.4934    2.2741 N   0  0  0  0  0  0  0  0  0  0  0  0
    0.5171    0.8718    2.6262 H   0  0  0  0  0  0  0  0  0  0  0  0
   -0.3936    2.7848    2.9283 C   0  0  0  0  0  0  0  0  0  0  0  0
   -1.3134    2.7851    3.5233 H   0  0  0  0  0  0  0  0  0  0  0  0
    0.4487    2.9984    3.5940 H   0  0  0  0  0  0  0  0  0  0  0  0
   -0.4557    3.5869    2.1852 H   0  0  0  0  0  0  0  0  0  0  0  0
  1  2  1  0  0  0  0
  2  3  1  0  0  0  0
  2  4  1  0  0  0  0
  2  5  1  0  0  0  0
  5  6  2  0  0  0  0
  5  7  1  0  0  0  0
  7  8  1  0  0  0  0
  7  9  1  0  0  0  0
  9 10  1  0  0  0  0
  9 11  1  0  0  0  0
  9 27  1  0  0  0  0
 11 12  1  0  0  0  0
 11 13  1  0  0  0  0
 11 14  1  0  0  0  0
 14 15  1  0  0  0  0
 14 16  1  0  0  0  0
 14 17  1  0  0  0  0
 17 18  1  0  0  0  0
 17 19  1  0  0  0  0
 17 20  1  0  0  0  0
 20 21  1  0  0  0  0
 20 22  1  0  0  0  0
 20 23  1  0  0  0  0
 23 24  1  0  0  0  0
 23 25  1  0  0  0  0
 23 26  1  0  0  0  0
 27 28  2  0  0  0  0
 27 29  1  0  0  0  0
 29 30  1  0  0  0  0
 29 31  1  0  0  0  0
 31 32  1  0  0  0  0
 31 33  1  0  0  0  0
 31 34  1  0  0  0  0
M  CHG  1  23   1
M  END
$$$$

  -OEChem-02102214153D

 34 33  0     1  0  0  0  0  0999 V2000
   -3.6619   -4.0704    1.8844 H   0  0  0  0  0  0  0  0  0  0  0  0
   -3.7429   -3.0614    1.4700 C   0  0  0  0  0  0  0  0  0  0  0  0
   -4.3049   -2.4396    2.1712 H   0  0  0  0  0  0  0  0  0  0  0  0
   -4.2848   -3.1123    0.5228 H   0  0  0  0  0  0  0  0  0  0  0  0
   -2.3609   -2.4771    1.2474 C   0  0  0  0  0  0  0  0  0  0  0  0
   -1.3679   -3.1631    1.4251 O   0  0  0  0  0  0  0  0  0  0  0  0
   -2.2192   -1.1735    0.8155 N   0  0  0  0  0  0  0  0  0  0  0  0
   -3.0661   -0.6061    0.7986 H   0  0  0  0  0  0  0  0  0  0  0  0
   -0.9394   -0.4462    0.8276 C   0  0  1  0  0  0  0  0  0  0  0  0
   -0.2551   -0.9547    1.5157 H   0  0  0  0  0  0  0  0  0  0  0  0
   -0.3072   -0.5161   -0.5783 C   0  0  0  0  0  0  0  0  0  0  0  0
    0.7469   -0.2320   -0.4938 H   0  0  0  0  0  0  0  0  0  0  0  0
   -0.3380   -1.5539   -0.9284 H   0  0  0  0  0  0  0  0  0  0  0  0
   -0.9841    0.4011   -1.6118 C   0  0  0  0  0  0  0  0  0  0  0  0
   -2.0439    0.1349   -1.6929 H   0  0  0  0  0  0  0  0  0  0  0  0
   -0.9233    1.4442   -1.2840 H   0  0  0  0  0  0  0  0  0  0  0  0
   -0.3052    0.2764   -2.9785 C   0  0  0  0  0  0  0  0  0  0  0  0
    0.7521    0.5489   -2.8876 H   0  0  0  0  0  0  0  0  0  0  0  0
   -0.3615   -0.7635   -3.3191 H   0  0  0  0  0  0  0  0  0  0  0  0
   -1.0005    1.1955   -3.9800 C   0  0  0  0  0  0  0  0  0  0  0  0
   -2.0646    0.9236   -4.0402 H   0  0  0  0  0  0  0  0  0  0  0  0
   -0.9528    2.2321   -3.6139 H   0  0  0  0  0  0  0  0  0  0  0  0
   -0.3415    1.0631   -5.2972 N   0  3  0  0  0  0  0  0  0  0  0  0
   -0.3998    0.0952   -5.6199 H   0  0  0  0  0  0  0  0  0  0  0  0
   -0.7992    1.6695   -5.9814 H   0  0  0  0  0  0  0  0  0  0  0  0
    0.6423    1.3293   -5.2234 H   0  0  0  0  0  0  0  0  0  0  0  0
   -1.1019    0.9850    1.3823 C   0  0  0  0  0  0  0  0  0  0  0  0
   -2.0669    1.6579    1.0371 O   0  0  0  0  0  0  0  0  0  0  0  0
   -0.2044    1.5004    2.2987 N   0  0  0  0  0  0  0  0  0  0  0  0
    0.5151    0.8761    2.6550 H   0  0  0  0  0  0  0  0  0  0  0  0
   -0.3886    2.7935    2.9506 C   0  0  0  0  0  0  0  0  0  0  0  0
   -1.3203    2.8036    3.5267 H   0  0  0  0  0  0  0  0  0  0  0  0
    0.4420    2.9963    3.6342 H   0  0  0  0  0  0  0  0  0  0  0  0
   -0.4261    3.5976    2.2078 H   0  0  0  0  0  0  0  0  0  0  0  0
  1  2  1  0  0  0  0
  2  3  1  0  0  0  0
  2  4  1  0  0  0  0
  2  5  1  0  0  0  0
  5  6  2  0  0  0  0
  5  7  1  0  0  0  0
  7  8  1  0  0  0  0
  7  9  1  0  0  0  0
  9 10  1  0  0  0  0
  9 11  1  0  0  0  0
  9 27  1  0  0  0  0
 11 12  1  0  0  0  0
 11 13  1  0  0  0  0
 11 14  1  0  0  0  0
 14 15  1  0  0  0  0
 14 16  1  0  0  0  0
 14 17  1  0  0  0  0
 17 18  1  0  0  0  0
 17 19  1  0  0  0  0
 17 20  1  0  0  0  0
 20 21  1  0  0  0  0
 20 22  1  0  0  0  0
 20 23  1  0  0  0  0
 23 24  1  0  0  0  0
 23 25  1  0  0  0  0
 23 26  1  0  0  0  0
 27 28  2  0  0  0  0
 27 29  1  0  0  0  0
 29 30  1  0  0  0  0
 29 31  1  0  0  0  0
 31 32  1  0  0  0  0
 31 33  1  0  0  0  0
 31 34  1  0  0  0  0
M  CHG  1  23   1
M  END
$$$$

  -OEChem-02102214153D

 34 33  0     1  0  0  0  0  0999 V2000
   -3.6760   -4.0672    1.9174 H   0  0  0  0  0  0  0  0  0  0  0  0
   -3.7532   -3.0599    1.4980 C   0  0  0  0  0  0  0  0  0  0  0  0
   -4.3048   -2.4296    2.1998 H   0  0  0  0  0  0  0  0  0  0  0  0
   -4.3029   -3.1119    0.5553 H   0  0  0  0  0  0  0  0  0  0  0  0
   -2.3687   -2.4874    1.2617 C   0  0  0  0  0  0  0  0  0  0  0  0
   -1.3795   -3.1777    1.4433 O   0  0  0  0  0  0  0  0  0  0  0  0
   -2.2213   -1.1898    0.8143 N   0  0  0  0  0  0  0  0  0  0  0  0
   -3.0652   -0.6183    0.7970 H   0  0  0  0  0  0  0  0  0  0  0  0
   -0.9393   -0.4665    0.8259 C   0  0  1  0  0  0  0  0  0  0  0  0
   -0.2578   -0.9704    1.5201 H   0  0  0  0  0  0  0  0  0  0  0  0
   -0.3010   -0.5359   -0.5765 C   0  0  0  0  0  0  0  0  0  0  0  0
    0.7567   -0.2627   -0.5008 H   0  0  0  0  0  0  0  0  0  0  0  0
   -0.3451   -1.5750   -0.9217 H   0  0  0  0  0  0  0  0  0  0  0  0
   -0.9783    0.3870   -1.6045 C   0  0  0  0  0  0  0  0  0  0  0  0
   -2.0666    0.2960   -1.5131 H   0  0  0  0  0  0  0  0  0  0  0  0
   -0.7113    1.4291   -1.3955 H   0  0  0  0  0  0  0  0  0  0  0  0
   -0.5635    0.0168   -3.0315 C   0  0  0  0  0  0  0  0  0  0  0  0
    0.5248    0.0997   -3.1272 H   0  0  0  0  0  0  0  0  0  0  0  0
   -0.8463   -1.0219   -3.2360 H   0  0  0  0  0  0  0  0  0  0  0  0
   -1.2519    0.9512   -4.0229 C   0  0  0  0  0  0  0  0  0  0  0  0
   -2.3415    0.8765   -3.8909 H   0  0  0  0  0  0  0  0  0  0  0  0
   -0.9696    1.9901   -3.7962 H   0  0  0  0  0  0  0  0  0  0  0  0
   -0.8544    0.5768   -5.3972 N   0  3  0  0  0  0  0  0  0  0  0  0
   -1.1234   -0.3908   -5.5863 H   0  0  0  0  0  0  0  0  0  0  0  0
   -1.3152    1.1879   -6.0749 H   0  0  0  0  0  0  0  0  0  0  0  0
    0.1578    0.6662   -5.5041 H   0  0  0  0  0  0  0  0  0  0  0  0
   -1.1026    0.9717    1.3617 C   0  0  0  0  0  0  0  0  0  0  0  0
   -2.0597    1.6447    0.9951 O   0  0  0  0  0  0  0  0  0  0  0  0
   -0.2100    1.4952    2.2780 N   0  0  0  0  0  0  0  0  0  0  0  0
    0.5091    0.8752    2.6425 H   0  0  0  0  0  0  0  0  0  0  0  0
   -0.3877    2.8006    2.9065 C   0  0  0  0  0  0  0  0  0  0  0  0
   -1.3253    2.8305    3.4721 H   0  0  0  0  0  0  0  0  0  0  0  0
    0.4375    3.0053    3.5959 H   0  0  0  0  0  0  0  0  0  0  0  0
   -0.4079    3.5926    2.1504 H   0  0  0  0  0  0  0  0  0  0  0  0
  1  2  1  0  0  0  0
  2  3  1  0  0  0  0
  2  4  1  0  0  0  0
  2  5  1  0  0  0  0
  5  6  2  0  0  0  0
  5  7  1  0  0  0  0
  7  8  1  0  0  0  0
  7  9  1  0  0  0  0
  9 10  1  0  0  0  0
  9 11  1  0  0  0  0
  9 27  1  0  0  0  0
 11 12  1  0  0  0  0
 11 13  1  0  0  0  0
 11 14  1  0  0  0  0
 14 15  1  0  0  0  0
 14 16  1  0  0  0  0
 14 17  1  0  0  0  0
 17 18  1  0  0  0  0
 17 19  1  0  0  0  0
 17 20  1  0  0  0  0
 20 21  1  0  0  0  0
 20 22  1  0  0  0  0
 20 23  1  0  0  0  0
 23 24  1  0  0  0  0
 23 25  1  0  0  0  0
 23 26  1  0  0  0  0
 27 28  2  0  0  0  0
 27 29  1  0  0  0  0
 29 30  1  0  0  0  0
 29 31  1  0  0  0  0
 31 32  1  0  0  0  0
 31 33  1  0  0  0  0
 31 34  1  0  0  0  0
M  CHG  1  23   1
M  END
$$$$

  -OEChem-02102214153D

 34 33  0     1  0  0  0  0  0999 V2000
   -3.6731   -4.0637    1.9509 H   0  0  0  0  0  0  0  0  0  0  0  0
   -3.7546   -3.0542    1.5378 C   0  0  0  0  0  0  0  0  0  0  0  0
   -4.2794   -2.4227    2.2589 H   0  0  0  0  0  0  0  0  0  0  0  0
   -4.3331   -3.0983    0.6122 H   0  0  0  0  0  0  0  0  0  0  0  0
   -2.3736   -2.4905    1.2630 C   0  0  0  0  0  0  0  0  0  0  0  0
   -1.3835   -3.1861    1.4164 O   0  0  0  0  0  0  0  0  0  0  0  0
   -2.2318   -1.1927    0.8149 N   0  0  0  0  0  0  0  0  0  0  0  0
   -3.0744   -0.6189    0.8243 H   0  0  0  0  0  0  0  0  0  0  0  0
   -0.9502   -0.4678    0.8217 C   0  0  1  0  0  0  0  0  0  0  0  0
   -0.2688   -0.9714    1.5168 H   0  0  0  0  0  0  0  0  0  0  0  0
   -0.3078   -0.5380   -0.5781 C   0  0  0  0  0  0  0  0  0  0  0  0
    0.7503   -0.2664   -0.5042 H   0  0  0  0  0  0  0  0  0  0  0  0
   -0.3497   -1.5799   -0.9144 H   0  0  0  0  0  0  0  0  0  0  0  0
   -0.9833    0.3811   -1.6131 C   0  0  0  0  0  0  0  0  0  0  0  0
   -2.0478    0.4829   -1.3740 H   0  0  0  0  0  0  0  0  0  0  0  0
   -0.5348    1.3799   -1.5644 H   0  0  0  0  0  0  0  0  0  0  0  0
   -0.8695   -0.1986   -3.0262 C   0  0  0  0  0  0  0  0  0  0  0  0
    0.1881   -0.3225   -3.2840 H   0  0  0  0  0  0  0  0  0  0  0  0
   -1.3463   -1.1847   -3.0556 H   0  0  0  0  0  0  0  0  0  0  0  0
   -1.5477    0.7390   -4.0214 C   0  0  0  0  0  0  0  0  0  0  0  0
   -2.5996    0.8754   -3.7295 H   0  0  0  0  0  0  0  0  0  0  0  0
   -1.0683    1.7277   -3.9704 H   0  0  0  0  0  0  0  0  0  0  0  0
   -1.4408    0.1621   -5.3789 N   0  3  0  0  0  0  0  0  0  0  0  0
   -1.8850   -0.7579   -5.4025 H   0  0  0  0  0  0  0  0  0  0  0  0
   -1.9032    0.7717   -6.0570 H   0  0  0  0  0  0  0  0  0  0  0  0
   -0.4577    0.0619   -5.6390 H   0  0  0  0  0  0  0  0  0  0  0  0
   -1.1076    0.9711    1.3578 C   0  0  0  0  0  0  0  0  0  0  0  0
   -2.0728    1.6412    1.0075 O   0  0  0  0  0  0  0  0  0  0  0  0
   -0.2089    1.4923    2.2694 N   0  0  0  0  0  0  0  0  0  0  0  0
    0.5197    0.8751    2.6197 H   0  0  0  0  0  0  0  0  0  0  0  0
   -0.3851    2.7936    2.9063 C   0  0  0  0  0  0  0  0  0  0  0  0
   -1.3203    2.8197    3.4760 H   0  0  0  0  0  0  0  0  0  0  0  0
    0.4426    2.9945    3.5937 H   0  0  0  0  0  0  0  0  0  0  0  0
   -0.4096    3.5900    2.1548 H   0  0  0  0  0  0  0  0  0  0  0  0
  1  2  1  0  0  0  0
  2  3  1  0  0  0  0
  2  4  1  0  0  0  0
  2  5  1  0  0  0  0
  5  6  2  0  0  0  0
  5  7  1  0  0  0  0
  7  8  1  0  0  0  0
  7  9  1  0  0  0  0
  9 10  1  0  0  0  0
  9 11  1  0  0  0  0
  9 27  1  0  0  0  0
 11 12  1  0  0  0  0
 11 13  1  0  0  0  0
 11 14  1  0  0  0  0
 14 15  1  0  0  0  0
 14 16  1  0  0  0  0
 14 17  1  0  0  0  0
 17 18  1  0  0  0  0
 17 19  1  0  0  0  0
 17 20  1  0  0  0  0
 20 21  1  0  0  0  0
 20 22  1  0  0  0  0
 20 23  1  0  0  0  0
 23 24  1  0  0  0  0
 23 25  1  0  0  0  0
 23 26  1  0  0  0  0
 27 28  2  0  0  0  0
 27 29  1  0  0  0  0
 29 30  1  0  0  0  0
 29 31  1  0  0  0  0
 31 32  1  0  0  0  0
 31 33  1  0  0  0  0
 31 34  1  0  0  0  0
M  CHG  1  23   1
M  END
$$$$

  -OEChem-02102214153D

 34 33  0     1  0  0  0  0  0999 V2000
   -3.6612   -4.0766    1.9384 H   0  0  0  0  0  0  0  0  0  0  0  0
   -3.7529   -3.0496    1.5731 C   0  0  0  0  0  0  0  0  0  0  0  0
   -4.2374   -2.4459    2.3446 H   0  0  0  0  0  0  0  0  0  0  0  0
   -4.3746   -3.0493    0.6749 H   0  0  0  0  0  0  0  0  0  0  0  0
   -2.3816   -2.4842    1.2567 C   0  0  0  0  0  0  0  0  0  0  0  0
   -1.3888   -3.1854    1.3589 O   0  0  0  0  0  0  0  0  0  0  0  0
   -2.2529   -1.1800    0.8233 N   0  0  0  0  0  0  0  0  0  0  0  0
   -3.0935   -0.6054    0.8781 H   0  0  0  0  0  0  0  0  0  0  0  0
   -0.9727   -0.4526    0.8200 C   0  0  1  0  0  0  0  0  0  0  0  0
   -0.2883   -0.9628    1.5071 H   0  0  0  0  0  0  0  0  0  0  0  0
   -0.3303   -0.5209   -0.5800 C   0  0  0  0  0  0  0  0  0  0  0  0
    0.7249   -0.2398   -0.4990 H   0  0  0  0  0  0  0  0  0  0  0  0
   -0.3547   -1.5654   -0.9101 H   0  0  0  0  0  0  0  0  0  0  0  0
   -0.9977    0.3899   -1.6311 C   0  0  0  0  0  0  0  0  0  0  0  0
   -1.9822    0.7132   -1.2784 H   0  0  0  0  0  0  0  0  0  0  0  0
   -0.3870    1.2879   -1.7771 H   0  0  0  0  0  0  0  0  0  0  0  0
   -1.2013   -0.3519   -2.9564 C   0  0  0  0  0  0  0  0  0  0  0  0
   -0.2302   -0.6870   -3.3376 H   0  0  0  0  0  0  0  0  0  0  0  0
   -1.8251   -1.2366   -2.7852 H   0  0  0  0  0  0  0  0  0  0  0  0
   -1.8730    0.5722   -3.9689 C   0  0  0  0  0  0  0  0  0  0  0  0
   -2.8331    0.9192   -3.5589 H   0  0  0  0  0  0  0  0  0  0  0  0
   -1.2448    1.4627   -4.1182 H   0  0  0  0  0  0  0  0  0  0  0  0
   -2.0679   -0.1624   -5.2375 N   0  3  0  0  0  0  0  0  0  0  0  0
   -2.6555   -0.9832   -5.0783 H   0  0  0  0  0  0  0  0  0  0  0  0
   -2.5205    0.4413   -5.9274 H   0  0  0  0  0  0  0  0  0  0  0  0
   -1.1650   -0.4681   -5.6053 H   0  0  0  0  0  0  0  0  0  0  0  0
   -1.1180    0.9801    1.3770 C   0  0  0  0  0  0  0  0  0  0  0  0
   -2.1038    1.6444    1.0775 O   0  0  0  0  0  0  0  0  0  0  0  0
   -0.2028    1.4887    2.2794 N   0  0  0  0  0  0  0  0  0  0  0  0
    0.5435    0.8738    2.5946 H   0  0  0  0  0  0  0  0  0  0  0  0
   -0.3667    2.7812    2.9375 C   0  0  0  0  0  0  0  0  0  0  0  0
   -1.2765    2.7891    3.5474 H   0  0  0  0  0  0  0  0  0  0  0  0
    0.4880    2.9864    3.5898 H   0  0  0  0  0  0  0  0  0  0  0  0
   -0.4336    3.5844    2.1959 H   0  0  0  0  0  0  0  0  0  0  0  0
  1  2  1  0  0  0  0
  2  3  1  0  0  0  0
  2  4  1  0  0  0  0
  2  5  1  0  0  0  0
  5  6  2  0  0  0  0
  5  7  1  0  0  0  0
  7  8  1  0  0  0  0
  7  9  1  0  0  0  0
  9 10  1  0  0  0  0
  9 11  1  0  0  0  0
  9 27  1  0  0  0  0
 11 12  1  0  0  0  0
 11 13  1  0  0  0  0
 11 14  1  0  0  0  0
 14 15  1  0  0  0  0
 14 16  1  0  0  0  0
 14 17  1  0  0  0  0
 17 18  1  0  0  0  0
 17 19  1  0  0  0  0
 17 20  1  0  0  0  0
 20 21  1  0  0  0  0
 20 22  1  0  0  0  0
 20 23  1  0  0  0  0
 23 24  1  0  0  0  0
 23 25  1  0  0  0  0
 23 26  1  0  0  0  0
 27 28  2  0  0  0  0
 27 29  1  0  0  0  0
 29 30  1  0  0  0  0
 29 31  1  0  0  0  0
 31 32  1  0  0  0  0
 31 33  1  0  0  0  0
 31 34  1  0  0  0  0
M  CHG  1  23   1
M  END
$$$$

  -OEChem-02102214153D

 34 33  0     1  0  0  0  0  0999 V2000
   -3.6534   -4.0558    1.9643 H   0  0  0  0  0  0  0  0  0  0  0  0
   -3.7492   -3.0245    1.6122 C   0  0  0  0  0  0  0  0  0  0  0  0
   -4.2002   -2.4246    2.4067 H   0  0  0  0  0  0  0  0  0  0  0  0
   -4.4032   -3.0099    0.7375 H   0  0  0  0  0  0  0  0  0  0  0  0
   -2.3850   -2.4673    1.2527 C   0  0  0  0  0  0  0  0  0  0  0  0
   -1.3953   -3.1773    1.3137 O   0  0  0  0  0  0  0  0  0  0  0  0
   -2.2609   -1.1594    0.8293 N   0  0  0  0  0  0  0  0  0  0  0  0
   -3.0949   -0.5803    0.9238 H   0  0  0  0  0  0  0  0  0  0  0  0
   -0.9788   -0.4359    0.8146 C   0  0  1  0  0  0  0  0  0  0  0  0
   -0.2919   -0.9508    1.4960 H   0  0  0  0  0  0  0  0  0  0  0  0
   -0.3434   -0.5125   -0.5890 C   0  0  0  0  0  0  0  0  0  0  0  0
    0.7073   -0.2167   -0.4991 H   0  0  0  0  0  0  0  0  0  0  0  0
   -0.3454   -1.5588   -0.9147 H   0  0  0  0  0  0  0  0  0  0  0  0
   -1.0009    0.3892   -1.6567 C   0  0  0  0  0  0  0  0  0  0  0  0
   -1.8294    0.9614   -1.2312 H   0  0  0  0  0  0  0  0  0  0  0  0
   -0.2603    1.1095   -2.0219 H   0  0  0  0  0  0  0  0  0  0  0  0
   -1.5401   -0.4434   -2.8248 C   0  0  0  0  0  0  0  0  0  0  0  0
   -0.7159   -0.9945   -3.2914 H   0  0  0  0  0  0  0  0  0  0  0  0
   -2.2660   -1.1711   -2.4446 H   0  0  0  0  0  0  0  0  0  0  0  0
   -2.2078    0.4722   -3.8478 C   0  0  0  0  0  0  0  0  0  0  0  0
   -3.0251    1.0233   -3.3589 H   0  0  0  0  0  0  0  0  0  0  0  0
   -1.4787    1.2183   -4.1965 H   0  0  0  0  0  0  0  0  0  0  0  0
   -2.7128   -0.3459   -4.9717 N   0  3  0  0  0  0  0  0  0  0  0  0
   -3.3872   -1.0318   -4.6274 H   0  0  0  0  0  0  0  0  0  0  0  0
   -3.1705    0.2513   -5.6638 H   0  0  0  0  0  0  0  0  0  0  0  0
   -1.9382   -0.8393   -5.4195 H   0  0  0  0  0  0  0  0  0  0  0  0
   -1.1166    0.9916    1.3879 C   0  0  0  0  0  0  0  0  0  0  0  0
   -2.1280    1.6404    1.1442 O   0  0  0  0  0  0  0  0  0  0  0  0
   -0.1896    1.4921    2.2830 N   0  0  0  0  0  0  0  0  0  0  0  0
    0.5777    0.8847    2.5600 H   0  0  0  0  0  0  0  0  0  0  0  0
   -0.3665    2.7580    2.9881 C   0  0  0  0  0  0  0  0  0  0  0  0
   -1.2653    2.7261    3.6133 H   0  0  0  0  0  0  0  0  0  0  0  0
    0.4954    2.9574    3.6325 H   0  0  0  0  0  0  0  0  0  0  0  0
   -0.4624    3.5856    2.2771 H   0  0  0  0  0  0  0  0  0  0  0  0
  1  2  1  0  0  0  0
  2  3  1  0  0  0  0
  2  4  1  0  0  0  0
  2  5  1  0  0  0  0
  5  6  2  0  0  0  0
  5  7  1  0  0  0  0
  7  8  1  0  0  0  0
  7  9  1  0  0  0  0
  9 10  1  0  0  0  0
  9 11  1  0  0  0  0
  9 27  1  0  0  0  0
 11 12  1  0  0  0  0
 11 13  1  0  0  0  0
 11 14  1  0  0  0  0
 14 15  1  0  0  0  0
 14 16  1  0  0  0  0
 14 17  1  0  0  0  0
 17 18  1  0  0  0  0
 17 19  1  0  0  0  0
 17 20  1  0  0  0  0
 20 21  1  0  0  0  0
 20 22  1  0  0  0  0
 20 23  1  0  0  0  0
 23 24  1  0  0  0  0
 23 25  1  0  0  0  0
 23 26  1  0  0  0  0
 27 28  2  0  0  0  0
 27 29  1  0  0  0  0
 29 30  1  0  0  0  0
 29 31  1  0  0  0  0
 31 32  1  0  0  0  0
 31 33  1  0  0  0  0
 31 34  1  0  0  0  0
M  CHG  1  23   1
M  END
$$$$

  -OEChem-02102214153D

 34 33  0     1  0  0  0  0  0999 V2000
   -3.6370   -4.0577    2.0092 H   0  0  0  0  0  0  0  0  0  0  0  0
   -3.7411   -3.0250    1.6637 C   0  0  0  0  0  0  0  0  0  0  0  0
   -4.1651   -2.4272    2.4742 H   0  0  0  0  0  0  0  0  0  0  0  0
   -4.4223   -3.0060    0.8103 H   0  0  0  0  0  0  0  0  0  0  0  0
   -2.3871   -2.4708    1.2633 C   0  0  0  0  0  0  0  0  0  0  0  0
   -1.3992   -3.1849    1.2910 O   0  0  0  0  0  0  0  0  0  0  0  0
   -2.2700   -1.1621    0.8401 N   0  0  0  0  0  0  0  0  0  0  0  0
   -3.0975   -0.5798    0.9668 H   0  0  0  0  0  0  0  0  0  0  0  0
   -0.9864   -0.4411    0.8160 C   0  0  1  0  0  0  0  0  0  0  0  0
   -0.2973   -0.9556    1.4954 H   0  0  0  0  0  0  0  0  0  0  0  0
   -0.3518   -0.5175   -0.5894 C   0  0  0  0  0  0  0  0  0  0  0  0
    0.6928   -0.2046   -0.4860 H   0  0  0  0  0  0  0  0  0  0  0  0
   -0.3322   -1.5618   -0.9201 H   0  0  0  0  0  0  0  0  0  0  0  0
   -0.9984    0.3799   -1.6664 C   0  0  0  0  0  0  0  0  0  0  0  0
   -1.6062    1.1710   -1.2209 H   0  0  0  0  0  0  0  0  0  0  0  0
   -0.1994    0.8712   -2.2329 H   0  0  0  0  0  0  0  0  0  0  0  0
   -1.8523   -0.4469   -2.6339 C   0  0  0  0  0  0  0  0  0  0  0  0
   -1.2206   -1.1847   -3.1411 H   0  0  0  0  0  0  0  0  0  0  0  0
   -2.6195   -0.9864   -2.0678 H   0  0  0  0  0  0  0  0  0  0  0  0
   -2.5115    0.4747   -3.6562 C   0  0  0  0  0  0  0  0  0  0  0  0
   -3.1323    1.2130   -3.1271 H   0  0  0  0  0  0  0  0  0  0  0  0
   -1.7326    1.0341   -4.1948 H   0  0  0  0  0  0  0  0  0  0  0  0
   -3.3236   -0.3385   -4.5864 N   0  3  0  0  0  0  0  0  0  0  0  0
   -4.0442   -0.8442   -4.0680 H   0  0  0  0  0  0  0  0  0  0  0  0
   -3.7737    0.2640   -5.2790 H   0  0  0  0  0  0  0  0  0  0  0  0
   -2.7282   -1.0136   -5.0699 H   0  0  0  0  0  0  0  0  0  0  0  0
   -1.1296    0.9831    1.3951 C   0  0  0  0  0  0  0  0  0  0  0  0
   -2.1529    1.6196    1.1667 O   0  0  0  0  0  0  0  0  0  0  0  0
   -0.2006    1.4857    2.2869 N   0  0  0  0  0  0  0  0  0  0  0  0
    0.5812    0.8884    2.5448 H   0  0  0  0  0  0  0  0  0  0  0  0
   -0.3719    2.7532    2.9903 C   0  0  0  0  0  0  0  0  0  0  0  0
   -1.2578    2.7189    3.6335 H   0  0  0  0  0  0  0  0  0  0  0  0
    0.5016    2.9599    3.6167 H   0  0  0  0  0  0  0  0  0  0  0  0
   -0.4864    3.5773    2.2780 H   0  0  0  0  0  0  0  0  0  0  0  0
  1  2  1  0  0  0  0
  2  3  1  0  0  0  0
  2  4  1  0  0  0  0
  2  5  1  0  0  0  0
  5  6  2  0  0  0  0
  5  7  1  0  0  0  0
  7  8  1  0  0  0  0
  7  9  1  0  0  0  0
  9 10  1  0  0  0  0
  9 11  1  0  0  0  0
  9 27  1  0  0  0  0
 11 12  1  0  0  0  0
 11 13  1  0  0  0  0
 11 14  1  0  0  0  0
 14 15  1  0  0  0  0
 14 16  1  0  0  0  0
 14 17  1  0  0  0  0
 17 18  1  0  0  0  0
 17 19  1  0  0  0  0
 17 20  1  0  0  0  0
 20 21  1  0  0  0  0
 20 22  1  0  0  0  0
 20 23  1  0  0  0  0
 23 24  1  0  0  0  0
 23 25  1  0  0  0  0
 23 26  1  0  0  0  0
 27 28  2  0  0  0  0
 27 29  1  0  0  0  0
 29 30  1  0  0  0  0
 29 31  1  0  0  0  0
 31 32  1  0  0  0  0
 31 33  1  0  0  0  0
 31 34  1  0  0  0  0
M  CHG  1  23   1
M  END
$$$$

  -OEChem-02102214153D

 34 33  0     1  0  0  0  0  0999 V2000
   -3.5864   -4.0994    2.0820 H   0  0  0  0  0  0  0  0  0  0  0  0
   -3.7058   -3.0694    1.7330 C   0  0  0  0  0  0  0  0  0  0  0  0
   -4.1273   -2.4718    2.5451 H   0  0  0  0  0  0  0  0  0  0  0  0
   -4.3957   -3.0629    0.8864 H   0  0  0  0  0  0  0  0  0  0  0  0
   -2.3620   -2.5037    1.3156 C   0  0  0  0  0  0  0  0  0  0  0  0
   -1.3666   -3.2070    1.3435 O   0  0  0  0  0  0  0  0  0  0  0  0
   -2.2626   -1.1985    0.8760 N   0  0  0  0  0  0  0  0  0  0  0  0
   -3.0899   -0.6197    1.0180 H   0  0  0  0  0  0  0  0  0  0  0  0
   -0.9824   -0.4723    0.8306 C   0  0  1  0  0  0  0  0  0  0  0  0
   -0.2788   -0.9747    1.5038 H   0  0  0  0  0  0  0  0  0  0  0  0
   -0.3619   -0.5360   -0.5836 C   0  0  0  0  0  0  0  0  0  0  0  0
    0.6821   -0.2191   -0.4864 H   0  0  0  0  0  0  0  0  0  0  0  0
   -0.3424   -1.5770   -0.9249 H   0  0  0  0  0  0  0  0  0  0  0  0
   -1.0150    0.3612   -1.6556 C   0  0  0  0  0  0  0  0  0  0  0  0
   -1.3730    1.3005   -1.2262 H   0  0  0  0  0  0  0  0  0  0  0  0
   -0.2426    0.6244   -2.3869 H   0  0  0  0  0  0  0  0  0  0  0  0
   -2.1493   -0.3562   -2.3960 C   0  0  0  0  0  0  0  0  0  0  0  0
   -1.7590   -1.2573   -2.8819 H   0  0  0  0  0  0  0  0  0  0  0  0
   -2.9186   -0.6617   -1.6801 H   0  0  0  0  0  0  0  0  0  0  0  0
   -2.7557    0.5851   -3.4332 C   0  0  0  0  0  0  0  0  0  0  0  0
   -3.1245    1.4895   -2.9261 H   0  0  0  0  0  0  0  0  0  0  0  0
   -1.9706    0.9045   -4.1342 H   0  0  0  0  0  0  0  0  0  0  0  0
   -3.8507   -0.1136   -4.1395 N   0  3  0  0  0  0  0  0  0  0  0  0
   -4.5796   -0.3782   -3.4744 H   0  0  0  0  0  0  0  0  0  0  0  0
   -4.2567    0.4981   -4.8509 H   0  0  0  0  0  0  0  0  0  0  0  0
   -3.4916   -0.9568   -4.5913 H   0  0  0  0  0  0  0  0  0  0  0  0
   -1.1434    0.9535    1.3989 C   0  0  0  0  0  0  0  0  0  0  0  0
   -2.1708    1.5779    1.1523 O   0  0  0  0  0  0  0  0  0  0  0  0
   -0.2181    1.4792    2.2804 N   0  0  0  0  0  0  0  0  0  0  0  0
    0.5714    0.8945    2.5445 H   0  0  0  0  0  0  0  0  0  0  0  0
   -0.3949    2.7607    2.9560 C   0  0  0  0  0  0  0  0  0  0  0  0
   -1.2758    2.7340    3.6064 H   0  0  0  0  0  0  0  0  0  0  0  0
    0.4813    2.9888    3.5710 H   0  0  0  0  0  0  0  0  0  0  0  0
   -0.5207    3.5675    2.2260 H   0  0  0  0  0  0  0  0  0  0  0  0
  1  2  1  0  0  0  0
  2  3  1  0  0  0  0
  2  4  1  0  0  0  0
  2  5  1  0  0  0  0
  5  6  2  0  0  0  0
  5  7  1  0  0  0  0
  7  8  1  0  0  0  0
  7  9  1  0  0  0  0
  9 10  1  0  0  0  0
  9 11  1  0  0  0  0
  9 27  1  0  0  0  0
 11 12  1  0  0  0  0
 11 13  1  0  0  0  0
 11 14  1  0  0  0  0
 14 15  1  0  0  0  0
 14 16  1  0  0  0  0
 14 17  1  0  0  0  0
 17 18  1  0  0  0  0
 17 19  1  0  0  0  0
 17 20  1  0  0  0  0
 20 21  1  0  0  0  0
 20 22  1  0  0  0  0
 20 23  1  0  0  0  0
 23 24  1  0  0  0  0
 23 25  1  0  0  0  0
 23 26  1  0  0  0  0
 27 28  2  0  0  0  0
 27 29  1  0  0  0  0
 29 30  1  0  0  0  0
 29 31  1  0  0  0  0
 31 32  1  0  0  0  0
 31 33  1  0  0  0  0
 31 34  1  0  0  0  0
M  CHG  1  23   1
M  END
$$$$

  -OEChem-02102214153D

 34 33  0     1  0  0  0  0  0999 V2000
   -3.5092   -4.1342    2.2174 H   0  0  0  0  0  0  0  0  0  0  0  0
   -3.6516   -3.1365    1.7914 C   0  0  0  0  0  0  0  0  0  0  0  0
   -4.1153   -2.4976    2.5472 H   0  0  0  0  0  0  0  0  0  0  0  0
   -4.3174   -3.2142    0.9290 H   0  0  0  0  0  0  0  0  0  0  0  0
   -2.3149   -2.5572    1.3684 C   0  0  0  0  0  0  0  0  0  0  0  0
   -1.3093   -3.2442    1.4136 O   0  0  0  0  0  0  0  0  0  0  0  0
   -2.2330   -1.2567    0.9111 N   0  0  0  0  0  0  0  0  0  0  0  0
   -3.0652   -0.6859    1.0517 H   0  0  0  0  0  0  0  0  0  0  0  0
   -0.9604   -0.5180    0.8428 C   0  0  1  0  0  0  0  0  0  0  0  0
   -0.2345   -1.0063    1.5029 H   0  0  0  0  0  0  0  0  0  0  0  0
   -0.3670   -0.5463   -0.5852 C   0  0  0  0  0  0  0  0  0  0  0  0
    0.6797   -0.2333   -0.5066 H   0  0  0  0  0  0  0  0  0  0  0  0
   -0.3610   -1.5801   -0.9471 H   0  0  0  0  0  0  0  0  0  0  0  0
   -1.0403    0.3634   -1.6346 C   0  0  0  0  0  0  0  0  0  0  0  0
   -1.1521    1.3804   -1.2459 H   0  0  0  0  0  0  0  0  0  0  0  0
   -0.3638    0.4278   -2.4941 H   0  0  0  0  0  0  0  0  0  0  0  0
   -2.3908   -0.1677   -2.1280 C   0  0  0  0  0  0  0  0  0  0  0  0
   -2.2668   -1.1807   -2.5258 H   0  0  0  0  0  0  0  0  0  0  0  0
   -3.0959   -0.2099   -1.2930 H   0  0  0  0  0  0  0  0  0  0  0  0
   -2.9389    0.7651   -3.2039 C   0  0  0  0  0  0  0  0  0  0  0  0
   -2.9942    1.7864   -2.7979 H   0  0  0  0  0  0  0  0  0  0  0  0
   -2.2396    0.7902   -4.0523 H   0  0  0  0  0  0  0  0  0  0  0  0
   -4.2740    0.2891   -3.6228 N   0  3  0  0  0  0  0  0  0  0  0  0
   -4.9169    0.3205   -2.8293 H   0  0  0  0  0  0  0  0  0  0  0  0
   -4.6401    0.8828   -4.3699 H   0  0  0  0  0  0  0  0  0  0  0  0
   -4.2109   -0.6724   -3.9621 H   0  0  0  0  0  0  0  0  0  0  0  0
   -1.1518    0.9085    1.3987 C   0  0  0  0  0  0  0  0  0  0  0  0
   -2.1842    1.5162    1.1271 O   0  0  0  0  0  0  0  0  0  0  0  0
   -0.2361    1.4659    2.2702 N   0  0  0  0  0  0  0  0  0  0  0  0
    0.5652    0.9011    2.5421 H   0  0  0  0  0  0  0  0  0  0  0  0
   -0.4361    2.7552    2.9237 C   0  0  0  0  0  0  0  0  0  0  0  0
   -1.3476    2.7411    3.5308 H   0  0  0  0  0  0  0  0  0  0  0  0
    0.4104    2.9833    3.5790 H   0  0  0  0  0  0  0  0  0  0  0  0
   -0.5206    3.5543    2.1796 H   0  0  0  0  0  0  0  0  0  0  0  0
  1  2  1  0  0  0  0
  2  3  1  0  0  0  0
  2  4  1  0  0  0  0
  2  5  1  0  0  0  0
  5  6  2  0  0  0  0
  5  7  1  0  0  0  0
  7  8  1  0  0  0  0
  7  9  1  0  0  0  0
  9 10  1  0  0  0  0
  9 11  1  0  0  0  0
  9 27  1  0  0  0  0
 11 12  1  0  0  0  0
 11 13  1  0  0  0  0
 11 14  1  0  0  0  0
 14 15  1  0  0  0  0
 14 16  1  0  0  0  0
 14 17  1  0  0  0  0
 17 18  1  0  0  0  0
 17 19  1  0  0  0  0
 17 20  1  0  0  0  0
 20 21  1  0  0  0  0
 20 22  1  0  0  0  0
 20 23  1  0  0  0  0
 23 24  1  0  0  0  0
 23 25  1  0  0  0  0
 23 26  1  0  0  0  0
 27 28  2  0  0  0  0
 27 29  1  0  0  0  0
 29 30  1  0  0  0  0
 29 31  1  0  0  0  0
 31 32  1  0  0  0  0
 31 33  1  0  0  0  0
 31 34  1  0  0  0  0
M  CHG  1  23   1
M  END
$$$$

  -OEChem-02102214153D

 34 33  0     1  0  0  0  0  0999 V2000
   -3.4480   -4.2065    2.2125 H   0  0  0  0  0  0  0  0  0  0  0  0
   -3.6056   -3.2004    1.8130 C   0  0  0  0  0  0  0  0  0  0  0  0
   -4.0715   -2.5865    2.5877 H   0  0  0  0  0  0  0  0  0  0  0  0
   -4.2762   -3.2649    0.9534 H   0  0  0  0  0  0  0  0  0  0  0  0
   -2.2801   -2.5938    1.3948 C   0  0  0  0  0  0  0  0  0  0  0  0
   -1.2603   -3.2591    1.4429 O   0  0  0  0  0  0  0  0  0  0  0  0
   -2.2261   -1.2906    0.9408 N   0  0  0  0  0  0  0  0  0  0  0  0
   -3.0678   -0.7377    1.0914 H   0  0  0  0  0  0  0  0  0  0  0  0
   -0.9667   -0.5299    0.8610 C   0  0  1  0  0  0  0  0  0  0  0  0
   -0.2260   -1.0105    1.5104 H   0  0  0  0  0  0  0  0  0  0  0  0
   -0.3831   -0.5341   -0.5713 C   0  0  0  0  0  0  0  0  0  0  0  0
    0.6650   -0.2234   -0.5041 H   0  0  0  0  0  0  0  0  0  0  0  0
   -0.3852   -1.5664   -0.9382 H   0  0  0  0  0  0  0  0  0  0  0  0
   -1.0684    0.3679   -1.6207 C   0  0  0  0  0  0  0  0  0  0  0  0
   -0.9711    1.4138   -1.3092 H   0  0  0  0  0  0  0  0  0  0  0  0
   -0.5174    0.2604   -2.5617 H   0  0  0  0  0  0  0  0  0  0  0  0
   -2.5482    0.0535   -1.8780 C   0  0  0  0  0  0  0  0  0  0  0  0
   -2.6574   -0.9949   -2.1760 H   0  0  0  0  0  0  0  0  0  0  0  0
   -3.1255    0.2132   -0.9639 H   0  0  0  0  0  0  0  0  0  0  0  0
   -3.0789    0.9783   -2.9697 C   0  0  0  0  0  0  0  0  0  0  0  0
   -2.8456    2.0191   -2.7000 H   0  0  0  0  0  0  0  0  0  0  0  0
   -2.5584    0.7630   -3.9144 H   0  0  0  0  0  0  0  0  0  0  0  0
   -4.5385    0.7850   -3.1005 N   0  3  0  0  0  0  0  0  0  0  0  0
   -4.9968    1.0189   -2.2171 H   0  0  0  0  0  0  0  0  0  0  0  0
   -4.9086    1.3903   -3.8362 H   0  0  0  0  0  0  0  0  0  0  0  0
   -4.7428   -0.1880   -3.3345 H   0  0  0  0  0  0  0  0  0  0  0  0
   -1.1632    0.8948    1.4211 C   0  0  0  0  0  0  0  0  0  0  0  0
   -2.1944    1.5049    1.1488 O   0  0  0  0  0  0  0  0  0  0  0  0
   -0.2403    1.4590    2.2808 N   0  0  0  0  0  0  0  0  0  0  0  0
    0.5640    0.8965    2.5494 H   0  0  0  0  0  0  0  0  0  0  0  0
   -0.4333    2.7538    2.9262 C   0  0  0  0  0  0  0  0  0  0  0  0
   -1.3349    2.7429    3.5481 H   0  0  0  0  0  0  0  0  0  0  0  0
    0.4230    2.9903    3.5659 H   0  0  0  0  0  0  0  0  0  0  0  0
   -0.5317    3.5467    2.1771 H   0  0  0  0  0  0  0  0  0  0  0  0
  1  2  1  0  0  0  0
  2  3  1  0  0  0  0
  2  4  1  0  0  0  0
  2  5  1  0  0  0  0
  5  6  2  0  0  0  0
  5  7  1  0  0  0  0
  7  8  1  0  0  0  0
  7  9  1  0  0  0  0
  9 10  1  0  0  0  0
  9 11  1  0  0  0  0
  9 27  1  0  0  0  0
 11 12  1  0  0  0  0
 11 13  1  0  0  0  0
 11 14  1  0  0  0  0
 14 15  1  0  0  0  0
 14 16  1  0  0  0  0
 14 17  1  0  0  0  0
 17 18  1  0  0  0  0
 17 19  1  0  0  0  0
 17 20  1  0  0  0  0
 20 21  1  0  0  0  0
 20 22  1  0  0  0  0
 20 23  1  0  0  0  0
 23 24  1  0  0  0  0
 23 25  1  0  0  0  0
 23 26  1  0  0  0  0
 27 28  2  0  0  0  0
 27 29  1  0  0  0  0
 29 30  1  0  0  0  0
 29 31  1  0  0  0  0
 31 32  1  0  0  0  0
 31 33  1  0  0  0  0
 31 34  1  0  0  0  0
M  CHG  1  23   1
M  END
$$$$

  -OEChem-02102214153D

 34 33  0     1  0  0  0  0  0999 V2000
   -3.3695   -4.2802    2.1847 H   0  0  0  0  0  0  0  0  0  0  0  0
   -3.5596   -3.2641    1.8268 C   0  0  0  0  0  0  0  0  0  0  0  0
   -4.0280   -2.6928    2.6319 H   0  0  0  0  0  0  0  0  0  0  0  0
   -4.2427   -3.3141    0.9760 H   0  0  0  0  0  0  0  0  0  0  0  0
   -2.2574   -2.6070    1.4106 C   0  0  0  0  0  0  0  0  0  0  0  0
   -1.2166   -3.2404    1.4385 O   0  0  0  0  0  0  0  0  0  0  0  0
   -2.2495   -1.2931    0.9832 N   0  0  0  0  0  0  0  0  0  0  0  0
   -3.1067   -0.7721    1.1544 H   0  0  0  0  0  0  0  0  0  0  0  0
   -1.0147   -0.4938    0.8859 C   0  0  1  0  0  0  0  0  0  0  0  0
   -0.2637   -0.9698    1.5271 H   0  0  0  0  0  0  0  0  0  0  0  0
   -0.4201   -0.5011   -0.5418 C   0  0  0  0  0  0  0  0  0  0  0  0
    0.6225   -0.1723   -0.4756 H   0  0  0  0  0  0  0  0  0  0  0  0
   -0.4009   -1.5422   -0.8825 H   0  0  0  0  0  0  0  0  0  0  0  0
   -1.1068    0.3470   -1.6362 C   0  0  0  0  0  0  0  0  0  0  0  0
   -0.8359    1.3934   -1.4557 H   0  0  0  0  0  0  0  0  0  0  0  0
   -0.6832    0.0644   -2.6063 H   0  0  0  0  0  0  0  0  0  0  0  0
   -2.6395    0.2580   -1.7094 C   0  0  0  0  0  0  0  0  0  0  0  0
   -2.9345   -0.7621   -1.9780 H   0  0  0  0  0  0  0  0  0  0  0  0
   -3.0885    0.4917   -0.7451 H   0  0  0  0  0  0  0  0  0  0  0  0
   -3.1546    1.2532   -2.7448 C   0  0  0  0  0  0  0  0  0  0  0  0
   -2.6834    2.2307   -2.5645 H   0  0  0  0  0  0  0  0  0  0  0  0
   -2.8520    0.9259   -3.7503 H   0  0  0  0  0  0  0  0  0  0  0  0
   -4.6238    1.3550   -2.6223 N   0  3  0  0  0  0  0  0  0  0  0  0
   -4.8674    1.6703   -1.6801 H   0  0  0  0  0  0  0  0  0  0  0  0
   -4.9883    2.0265   -3.3011 H   0  0  0  0  0  0  0  0  0  0  0  0
   -5.0531    0.4437   -2.7899 H   0  0  0  0  0  0  0  0  0  0  0  0
   -1.1842    0.9270    1.4691 C   0  0  0  0  0  0  0  0  0  0  0  0
   -2.2208    1.5520    1.2629 O   0  0  0  0  0  0  0  0  0  0  0  0
   -0.2204    1.4700    2.2974 N   0  0  0  0  0  0  0  0  0  0  0  0
    0.5912    0.8973    2.5184 H   0  0  0  0  0  0  0  0  0  0  0  0
   -0.3743    2.7516    2.9787 C   0  0  0  0  0  0  0  0  0  0  0  0
   -1.2395    2.7297    3.6499 H   0  0  0  0  0  0  0  0  0  0  0  0
    0.5173    2.9731    3.5739 H   0  0  0  0  0  0  0  0  0  0  0  0
   -0.5122    3.5602    2.2531 H   0  0  0  0  0  0  0  0  0  0  0  0
  1  2  1  0  0  0  0
  2  3  1  0  0  0  0
  2  4  1  0  0  0  0
  2  5  1  0  0  0  0
  5  6  2  0  0  0  0
  5  7  1  0  0  0  0
  7  8  1  0  0  0  0
  7  9  1  0  0  0  0
  9 10  1  0  0  0  0
  9 11  1  0  0  0  0
  9 27  1  0  0  0  0
 11 12  1  0  0  0  0
 11 13  1  0  0  0  0
 11 14  1  0  0  0  0
 14 15  1  0  0  0  0
 14 16  1  0  0  0  0
 14 17  1  0  0  0  0
 17 18  1  0  0  0  0
 17 19  1  0  0  0  0
 17 20  1  0  0  0  0
 20 21  1  0  0  0  0
 20 22  1  0  0  0  0
 20 23  1  0  0  0  0
 23 24  1  0  0  0  0
 23 25  1  0  0  0  0
 23 26  1  0  0  0  0
 27 28  2  0  0  0  0
 27 29  1  0  0  0  0
 29 30  1  0  0  0  0
 29 31  1  0  0  0  0
 31 32  1  0  0  0  0
 31 33  1  0  0  0  0
 31 34  1  0  0  0  0
M  CHG  1  23   1
M  END
$$$$

  -OEChem-02102214153D

 34 33  0     1  0  0  0  0  0999 V2000
   -2.9915   -4.5579    2.1550 H   0  0  0  0  0  0  0  0  0  0  0  0
   -3.3157   -3.5971    1.7444 C   0  0  0  0  0  0  0  0  0  0  0  0
   -3.9801   -3.1154    2.4657 H   0  0  0  0  0  0  0  0  0  0  0  0
   -3.8634   -3.7793    0.8168 H   0  0  0  0  0  0  0  0  0  0  0  0
   -2.1117   -2.7156    1.4733 C   0  0  0  0  0  0  0  0  0  0  0  0
   -0.9863   -3.1369    1.6771 O   0  0  0  0  0  0  0  0  0  0  0  0
   -2.2841   -1.4320    0.9886 N   0  0  0  0  0  0  0  0  0  0  0  0
   -3.2410   -1.0904    0.9590 H   0  0  0  0  0  0  0  0  0  0  0  0
   -1.1914   -0.4466    0.8850 C   0  0  1  0  0  0  0  0  0  0  0  0
   -0.4053   -0.7781    1.5734 H   0  0  0  0  0  0  0  0  0  0  0  0
   -0.5395   -0.4652   -0.5195 C   0  0  0  0  0  0  0  0  0  0  0  0
    0.4435    0.0117   -0.4417 H   0  0  0  0  0  0  0  0  0  0  0  0
   -0.3525   -1.5175   -0.7627 H   0  0  0  0  0  0  0  0  0  0  0  0
   -1.2693    0.1628   -1.7379 C   0  0  0  0  0  0  0  0  0  0  0  0
   -0.9350    1.2038   -1.7799 H   0  0  0  0  0  0  0  0  0  0  0  0
   -0.9002   -0.3171   -2.6515 H   0  0  0  0  0  0  0  0  0  0  0  0
   -2.8174    0.1550   -1.7627 C   0  0  0  0  0  0  0  0  0  0  0  0
   -3.1353   -0.7284   -2.3272 H   0  0  0  0  0  0  0  0  0  0  0  0
   -3.2588    0.0517   -0.7748 H   0  0  0  0  0  0  0  0  0  0  0  0
   -3.4071    1.4022   -2.4247 C   0  0  0  0  0  0  0  0  0  0  0  0
   -2.9219    1.5747   -3.3963 H   0  0  0  0  0  0  0  0  0  0  0  0
   -4.4734    1.2211   -2.6235 H   0  0  0  0  0  0  0  0  0  0  0  0
   -3.2399    2.5571   -1.5142 N   0  3  0  0  0  0  0  0  0  0  0  0
   -3.1680    2.2216   -0.5388 H   0  0  0  0  0  0  0  0  0  0  0  0
   -2.3860    3.0664   -1.7372 H   0  0  0  0  0  0  0  0  0  0  0  0
   -4.0371    3.1895   -1.5841 H   0  0  0  0  0  0  0  0  0  0  0  0
   -1.5282    0.9800    1.3801 C   0  0  0  0  0  0  0  0  0  0  0  0
   -2.5382    1.5691    0.9959 O   0  0  0  0  0  0  0  0  0  0  0  0
   -0.6337    1.6608    2.1833 N   0  0  0  0  0  0  0  0  0  0  0  0
    0.1610    1.1336    2.5421 H   0  0  0  0  0  0  0  0  0  0  0  0
   -0.9035    2.9711    2.7674 C   0  0  0  0  0  0  0  0  0  0  0  0
   -1.8131    2.9416    3.3773 H   0  0  0  0  0  0  0  0  0  0  0  0
   -0.0702    3.2759    3.4090 H   0  0  0  0  0  0  0  0  0  0  0  0
   -1.0273    3.7261    1.9844 H   0  0  0  0  0  0  0  0  0  0  0  0
  1  2  1  0  0  0  0
  2  3  1  0  0  0  0
  2  4  1  0  0  0  0
  2  5  1  0  0  0  0
  5  6  2  0  0  0  0
  5  7  1  0  0  0  0
  7  8  1  0  0  0  0
  7  9  1  0  0  0  0
  9 10  1  0  0  0  0
  9 11  1  0  0  0  0
  9 27  1  0  0  0  0
 11 12  1  0  0  0  0
 11 13  1  0  0  0  0
 11 14  1  0  0  0  0
 14 15  1  0  0  0  0
 14 16  1  0  0  0  0
 14 17  1  0  0  0  0
 17 18  1  0  0  0  0
 17 19  1  0  0  0  0
 17 20  1  0  0  0  0
 20 21  1  0  0  0  0
 20 22  1  0  0  0  0
 20 23  1  0  0  0  0
 23 24  1  0  0  0  0
 23 25  1  0  0  0  0
 23 26  1  0  0  0  0
 27 28  2  0  0  0  0
 27 29  1  0  0  0  0
 29 30  1  0  0  0  0
 29 31  1  0  0  0  0
 31 32  1  0  0  0  0
 31 33  1  0  0  0  0
 31 34  1  0  0  0  0
M  CHG  1  23   1
M  END
$$$$

  -OEChem-02102214153D

 34 33  0     1  0  0  0  0  0999 V2000
   -3.2212   -4.3274    2.2218 H   0  0  0  0  0  0  0  0  0  0  0  0
   -3.4799   -3.3536    1.7956 C   0  0  0  0  0  0  0  0  0  0  0  0
   -4.0792   -2.8015    2.5235 H   0  0  0  0  0  0  0  0  0  0  0  0
   -4.0704   -3.5137    0.8905 H   0  0  0  0  0  0  0  0  0  0  0  0
   -2.2180   -2.5804    1.4635 C   0  0  0  0  0  0  0  0  0  0  0  0
   -1.1249   -3.0892    1.6406 O   0  0  0  0  0  0  0  0  0  0  0  0
   -2.3008   -1.2963    0.9569 N   0  0  0  0  0  0  0  0  0  0  0  0
   -3.2229   -0.8698    0.9796 H   0  0  0  0  0  0  0  0  0  0  0  0
   -1.1353   -0.4011    0.8279 C   0  0  1  0  0  0  0  0  0  0  0  0
   -0.3791   -0.7654    1.5331 H   0  0  0  0  0  0  0  0  0  0  0  0
   -0.4728   -0.5300   -0.5690 C   0  0  0  0  0  0  0  0  0  0  0  0
    0.5399   -0.1219   -0.4822 H   0  0  0  0  0  0  0  0  0  0  0  0
   -0.3514   -1.6038   -0.7536 H   0  0  0  0  0  0  0  0  0  0  0  0
   -1.0942    0.0823   -1.8574 C   0  0  0  0  0  0  0  0  0  0  0  0
   -0.4608    0.9195   -2.1712 H   0  0  0  0  0  0  0  0  0  0  0  0
   -0.9959   -0.6759   -2.6430 H   0  0  0  0  0  0  0  0  0  0  0  0
   -2.5653    0.5438   -1.8483 C   0  0  0  0  0  0  0  0  0  0  0  0
   -3.0980    0.1193   -0.9973 H   0  0  0  0  0  0  0  0  0  0  0  0
   -3.0646    0.1624   -2.7457 H   0  0  0  0  0  0  0  0  0  0  0  0
   -2.6536    2.0751   -1.8629 C   0  0  0  0  0  0  0  0  0  0  0  0
   -1.7465    2.4898   -1.4005 H   0  0  0  0  0  0  0  0  0  0  0  0
   -2.6818    2.4320   -2.9025 H   0  0  0  0  0  0  0  0  0  0  0  0
   -3.8393    2.5068   -1.0981 N   0  3  0  0  0  0  0  0  0  0  0  0
   -3.6849    2.2610   -0.1059 H   0  0  0  0  0  0  0  0  0  0  0  0
   -3.9645    3.5165   -1.1687 H   0  0  0  0  0  0  0  0  0  0  0  0
   -4.6766    2.0330   -1.4340 H   0  0  0  0  0  0  0  0  0  0  0  0
   -1.4142    1.0378    1.3146 C   0  0  0  0  0  0  0  0  0  0  0  0
   -2.5099    1.5628    1.1140 O   0  0  0  0  0  0  0  0  0  0  0  0
   -0.4996    1.6958    2.1142 N   0  0  0  0  0  0  0  0  0  0  0  0
    0.3397    1.1835    2.3816 H   0  0  0  0  0  0  0  0  0  0  0  0
   -0.7726    2.9630    2.7857 C   0  0  0  0  0  0  0  0  0  0  0  0
   -1.6298    2.8648    3.4606 H   0  0  0  0  0  0  0  0  0  0  0  0
    0.0956    3.2722    3.3767 H   0  0  0  0  0  0  0  0  0  0  0  0
   -0.9861    3.7497    2.0547 H   0  0  0  0  0  0  0  0  0  0  0  0
  1  2  1  0  0  0  0
  2  3  1  0  0  0  0
  2  4  1  0  0  0  0
  2  5  1  0  0  0  0
  5  6  2  0  0  0  0
  5  7  1  0  0  0  0
  7  8  1  0  0  0  0
  7  9  1  0  0  0  0
  9 10  1  0  0  0  0
  9 11  1  0  0  0  0
  9 27  1  0  0  0  0
 11 12  1  0  0  0  0
 11 13  1  0  0  0  0
 11 14  1  0  0  0  0
 14 15  1  0  0  0  0
 14 16  1  0  0  0  0
 14 17  1  0  0  0  0
 17 18  1  0  0  0  0
 17 19  1  0  0  0  0
 17 20  1  0  0  0  0
 20 21  1  0  0  0  0
 20 22  1  0  0  0  0
 20 23  1  0  0  0  0
 23 24  1  0  0  0  0
 23 25  1  0  0  0  0
 23 26  1  0  0  0  0
 27 28  2  0  0  0  0
 27 29  1  0  0  0  0
 29 30  1  0  0  0  0
 29 31  1  0  0  0  0
 31 32  1  0  0  0  0
 31 33  1  0  0  0  0
 31 34  1  0  0  0  0
M  CHG  1  23   1
M  END
$$$$

  -OEChem-02102214153D

 34 33  0     1  0  0  0  0  0999 V2000
   -4.0226   -3.7657    1.4819 H   0  0  0  0  0  0  0  0  0  0  0  0
   -4.0529   -2.7019    1.2267 C   0  0  0  0  0  0  0  0  0  0  0  0
   -4.4973   -2.1560    2.0623 H   0  0  0  0  0  0  0  0  0  0  0  0
   -4.6765   -2.5739    0.3389 H   0  0  0  0  0  0  0  0  0  0  0  0
   -2.6491   -2.1943    0.9575 C   0  0  0  0  0  0  0  0  0  0  0  0
   -1.7067   -2.9650    0.9847 O   0  0  0  0  0  0  0  0  0  0  0  0
   -2.4324   -0.8589    0.6646 N   0  0  0  0  0  0  0  0  0  0  0  0
   -3.2147   -0.2558    0.9036 H   0  0  0  0  0  0  0  0  0  0  0  0
   -1.0956   -0.2491    0.8087 C   0  0  1  0  0  0  0  0  0  0  0  0
   -0.5341   -0.8657    1.5212 H   0  0  0  0  0  0  0  0  0  0  0  0
   -0.2641   -0.2988   -0.5030 C   0  0  0  0  0  0  0  0  0  0  0  0
    0.7762   -0.1355   -0.2009 H   0  0  0  0  0  0  0  0  0  0  0  0
   -0.3124   -1.3333   -0.8617 H   0  0  0  0  0  0  0  0  0  0  0  0
   -0.4954    0.6170   -1.7424 C   0  0  0  0  0  0  0  0  0  0  0  0
    0.4493    1.1388   -1.9346 H   0  0  0  0  0  0  0  0  0  0  0  0
   -0.6617   -0.0394   -2.6043 H   0  0  0  0  0  0  0  0  0  0  0  0
   -1.6010    1.6808   -1.7581 C   0  0  0  0  0  0  0  0  0  0  0  0
   -1.4167    2.3785   -0.9379 H   0  0  0  0  0  0  0  0  0  0  0  0
   -1.5011    2.2649   -2.6794 H   0  0  0  0  0  0  0  0  0  0  0  0
   -3.0184    1.1189   -1.7196 C   0  0  0  0  0  0  0  0  0  0  0  0
   -3.3986    1.0075   -2.7453 H   0  0  0  0  0  0  0  0  0  0  0  0
   -3.0051    0.1161   -1.2777 H   0  0  0  0  0  0  0  0  0  0  0  0
   -3.8417    2.0526   -0.9215 N   0  3  0  0  0  0  0  0  0  0  0  0
   -3.4162    2.1537    0.0158 H   0  0  0  0  0  0  0  0  0  0  0  0
   -3.8625    2.9707   -1.3657 H   0  0  0  0  0  0  0  0  0  0  0  0
   -4.7944    1.7044   -0.8215 H   0  0  0  0  0  0  0  0  0  0  0  0
   -1.2008    1.1216    1.5124 C   0  0  0  0  0  0  0  0  0  0  0  0
   -2.2152    1.8013    1.3337 O   0  0  0  0  0  0  0  0  0  0  0  0
   -0.3271    1.4733    2.5219 N   0  0  0  0  0  0  0  0  0  0  0  0
    0.4403    0.8366    2.7289 H   0  0  0  0  0  0  0  0  0  0  0  0
   -0.4990    2.6491    3.3702 C   0  0  0  0  0  0  0  0  0  0  0  0
   -1.4315    2.5803    3.9406 H   0  0  0  0  0  0  0  0  0  0  0  0
    0.3318    2.7287    4.0790 H   0  0  0  0  0  0  0  0  0  0  0  0
   -0.5220    3.5616    2.7652 H   0  0  0  0  0  0  0  0  0  0  0  0
  1  2  1  0  0  0  0
  2  3  1  0  0  0  0
  2  4  1  0  0  0  0
  2  5  1  0  0  0  0
  5  6  2  0  0  0  0
  5  7  1  0  0  0  0
  7  8  1  0  0  0  0
  7  9  1  0  0  0  0
  9 10  1  0  0  0  0
  9 11  1  0  0  0  0
  9 27  1  0  0  0  0
 11 12  1  0  0  0  0
 11 13  1  0  0  0  0
 11 14  1  0  0  0  0
 14 15  1  0  0  0  0
 14 16  1  0  0  0  0
 14 17  1  0  0  0  0
 17 18  1  0  0  0  0
 17 19  1  0  0  0  0
 17 20  1  0  0  0  0
 20 21  1  0  0  0  0
 20 22  1  0  0  0  0
 20 23  1  0  0  0  0
 23 24  1  0  0  0  0
 23 25  1  0  0  0  0
 23 26  1  0  0  0  0
 27 28  2  0  0  0  0
 27 29  1  0  0  0  0
 29 30  1  0  0  0  0
 29 31  1  0  0  0  0
 31 32  1  0  0  0  0
 31 33  1  0  0  0  0
 31 34  1  0  0  0  0
M  CHG  1  23   1
M  END
$$$$

  -OEChem-02102214153D

 34 33  0     1  0  0  0  0  0999 V2000
   -3.4413   -4.2359    1.8482 H   0  0  0  0  0  0  0  0  0  0  0  0
   -3.6083   -3.1753    1.6388 C   0  0  0  0  0  0  0  0  0  0  0  0
   -4.0432   -2.7081    2.5257 H   0  0  0  0  0  0  0  0  0  0  0  0
   -4.3103   -3.0888    0.8062 H   0  0  0  0  0  0  0  0  0  0  0  0
   -2.2961   -2.5014    1.2853 C   0  0  0  0  0  0  0  0  0  0  0  0
   -1.2707   -3.1572    1.2125 O   0  0  0  0  0  0  0  0  0  0  0  0
   -2.2599   -1.1421    1.0380 N   0  0  0  0  0  0  0  0  0  0  0  0
   -3.1059   -0.6265    1.2721 H   0  0  0  0  0  0  0  0  0  0  0  0
   -1.0120   -0.3628    0.9657 C   0  0  1  0  0  0  0  0  0  0  0  0
   -0.2669   -0.9283    1.5371 H   0  0  0  0  0  0  0  0  0  0  0  0
   -0.4532   -0.3522   -0.4836 C   0  0  0  0  0  0  0  0  0  0  0  0
    0.5869   -0.0195   -0.3996 H   0  0  0  0  0  0  0  0  0  0  0  0
   -0.4146   -1.3883   -0.8385 H   0  0  0  0  0  0  0  0  0  0  0  0
   -1.0964    0.5092   -1.6036 C   0  0  0  0  0  0  0  0  0  0  0  0
   -0.2921    0.9497   -2.2033 H   0  0  0  0  0  0  0  0  0  0  0  0
   -1.6445   -0.1773   -2.2588 H   0  0  0  0  0  0  0  0  0  0  0  0
   -2.0678    1.6112   -1.1795 C   0  0  0  0  0  0  0  0  0  0  0  0
   -2.8780    1.1694   -0.5909 H   0  0  0  0  0  0  0  0  0  0  0  0
   -1.5310    2.3434   -0.5685 H   0  0  0  0  0  0  0  0  0  0  0  0
   -2.6682    2.3280   -2.3816 C   0  0  0  0  0  0  0  0  0  0  0  0
   -1.8624    2.7543   -2.9969 H   0  0  0  0  0  0  0  0  0  0  0  0
   -3.2113    1.6052   -3.0077 H   0  0  0  0  0  0  0  0  0  0  0  0
   -3.5683    3.3806   -1.8634 N   0  3  0  0  0  0  0  0  0  0  0  0
   -3.0369    4.0399   -1.2908 H   0  0  0  0  0  0  0  0  0  0  0  0
   -4.0082    3.8857   -2.6348 H   0  0  0  0  0  0  0  0  0  0  0  0
   -4.2948    2.9590   -1.2810 H   0  0  0  0  0  0  0  0  0  0  0  0
   -1.0787    0.9761    1.7374 C   0  0  0  0  0  0  0  0  0  0  0  0
   -2.1281    1.6137    1.7778 O   0  0  0  0  0  0  0  0  0  0  0  0
   -0.0323    1.3678    2.5519 N   0  0  0  0  0  0  0  0  0  0  0  0
    0.7646    0.7388    2.6252 H   0  0  0  0  0  0  0  0  0  0  0  0
   -0.1179    2.4855    3.4875 C   0  0  0  0  0  0  0  0  0  0  0  0
   -0.8765    2.2894    4.2528 H   0  0  0  0  0  0  0  0  0  0  0  0
    0.8445    2.6364    3.9866 H   0  0  0  0  0  0  0  0  0  0  0  0
   -0.3798    3.4097    2.9620 H   0  0  0  0  0  0  0  0  0  0  0  0
  1  2  1  0  0  0  0
  2  3  1  0  0  0  0
  2  4  1  0  0  0  0
  2  5  1  0  0  0  0
  5  6  2  0  0  0  0
  5  7  1  0  0  0  0
  7  8  1  0  0  0  0
  7  9  1  0  0  0  0
  9 10  1  0  0  0  0
  9 11  1  0  0  0  0
  9 27  1  0  0  0  0
 11 12  1  0  0  0  0
 11 13  1  0  0  0  0
 11 14  1  0  0  0  0
 14 15  1  0  0  0  0
 14 16  1  0  0  0  0
 14 17  1  0  0  0  0
 17 18  1  0  0  0  0
 17 19  1  0  0  0  0
 17 20  1  0  0  0  0
 20 21  1  0  0  0  0
 20 22  1  0  0  0  0
 20 23  1  0  0  0  0
 23 24  1  0  0  0  0
 23 25  1  0  0  0  0
 23 26  1  0  0  0  0
 27 28  2  0  0  0  0
 27 29  1  0  0  0  0
 29 30  1  0  0  0  0
 29 31  1  0  0  0  0
 31 32  1  0  0  0  0
 31 33  1  0  0  0  0
 31 34  1  0  0  0  0
M  CHG  1  23   1
M  END
$$$$

  -OEChem-02102214153D

 34 33  0     1  0  0  0  0  0999 V2000
   -2.9702   -4.2658    2.2740 H   0  0  0  0  0  0  0  0  0  0  0  0
   -3.2985   -3.2871    1.9118 C   0  0  0  0  0  0  0  0  0  0  0  0
   -3.8572   -2.7888    2.7077 H   0  0  0  0  0  0  0  0  0  0  0  0
   -3.9545   -3.4341    1.0504 H   0  0  0  0  0  0  0  0  0  0  0  0
   -2.0981   -2.4500    1.5142 C   0  0  0  0  0  0  0  0  0  0  0  0
   -0.9741   -2.9180    1.5809 O   0  0  0  0  0  0  0  0  0  0  0  0
   -2.2709   -1.1504    1.0753 N   0  0  0  0  0  0  0  0  0  0  0  0
   -3.2161   -0.7760    1.1202 H   0  0  0  0  0  0  0  0  0  0  0  0
   -1.1674   -0.2190    0.7884 C   0  0  1  0  0  0  0  0  0  0  0  0
   -0.3267   -0.5795    1.3924 H   0  0  0  0  0  0  0  0  0  0  0  0
   -0.6647   -0.4104   -0.6700 C   0  0  0  0  0  0  0  0  0  0  0  0
    0.3116    0.0830   -0.7173 H   0  0  0  0  0  0  0  0  0  0  0  0
   -0.4746   -1.4787   -0.8246 H   0  0  0  0  0  0  0  0  0  0  0  0
   -1.4711    0.1009   -1.8950 C   0  0  0  0  0  0  0  0  0  0  0  0
   -0.7728    0.2533   -2.7256 H   0  0  0  0  0  0  0  0  0  0  0  0
   -2.1319   -0.7218   -2.1916 H   0  0  0  0  0  0  0  0  0  0  0  0
   -2.3632    1.3384   -1.7653 C   0  0  0  0  0  0  0  0  0  0  0  0
   -2.9395    1.4537   -2.6895 H   0  0  0  0  0  0  0  0  0  0  0  0
   -3.0905    1.1621   -0.9689 H   0  0  0  0  0  0  0  0  0  0  0  0
   -1.5601    2.6197   -1.5382 C   0  0  0  0  0  0  0  0  0  0  0  0
   -0.6728    2.3930   -0.9308 H   0  0  0  0  0  0  0  0  0  0  0  0
   -1.2037    3.0108   -2.5023 H   0  0  0  0  0  0  0  0  0  0  0  0
   -2.4344    3.5803   -0.8355 N   0  3  0  0  0  0  0  0  0  0  0  0
   -1.9507    4.4646   -0.6815 H   0  0  0  0  0  0  0  0  0  0  0  0
   -3.2860    3.7458   -1.3716 H   0  0  0  0  0  0  0  0  0  0  0  0
   -2.6919    3.1751    0.0805 H   0  0  0  0  0  0  0  0  0  0  0  0
   -1.3410    1.2121    1.3446 C   0  0  0  0  0  0  0  0  0  0  0  0
   -2.4145    1.8085    1.2938 O   0  0  0  0  0  0  0  0  0  0  0  0
   -0.2823    1.8337    1.9804 N   0  0  0  0  0  0  0  0  0  0  0  0
    0.5405    1.2573    2.1544 H   0  0  0  0  0  0  0  0  0  0  0  0
   -0.4271    3.0507    2.7752 C   0  0  0  0  0  0  0  0  0  0  0  0
   -1.1425    2.8952    3.5904 H   0  0  0  0  0  0  0  0  0  0  0  0
    0.5360    3.3321    3.2136 H   0  0  0  0  0  0  0  0  0  0  0  0
   -0.7755    3.8819    2.1544 H   0  0  0  0  0  0  0  0  0  0  0  0
  1  2  1  0  0  0  0
  2  3  1  0  0  0  0
  2  4  1  0  0  0  0
  2  5  1  0  0  0  0
  5  6  2  0  0  0  0
  5  7  1  0  0  0  0
  7  8  1  0  0  0  0
  7  9  1  0  0  0  0
  9 10  1  0  0  0  0
  9 11  1  0  0  0  0
  9 27  1  0  0  0  0
 11 12  1  0  0  0  0
 11 13  1  0  0  0  0
 11 14  1  0  0  0  0
 14 15  1  0  0  0  0
 14 16  1  0  0  0  0
 14 17  1  0  0  0  0
 17 18  1  0  0  0  0
 17 19  1  0  0  0  0
 17 20  1  0  0  0  0
 20 21  1  0  0  0  0
 20 22  1  0  0  0  0
 20 23  1  0  0  0  0
 23 24  1  0  0  0  0
 23 25  1  0  0  0  0
 23 26  1  0  0  0  0
 27 28  2  0  0  0  0
 27 29  1  0  0  0  0
 29 30  1  0  0  0  0
 29 31  1  0  0  0  0
 31 32  1  0  0  0  0
 31 33  1  0  0  0  0
 31 34  1  0  0  0  0
M  CHG  1  23   1
M  END
$$$$

  -OEChem-02102214153D

 34 33  0     1  0  0  0  0  0999 V2000
   -3.9894   -3.7103    1.6082 H   0  0  0  0  0  0  0  0  0  0  0  0
   -3.9989   -2.6697    1.2700 C   0  0  0  0  0  0  0  0  0  0  0  0
   -4.5531   -2.0712    1.9969 H   0  0  0  0  0  0  0  0  0  0  0  0
   -4.5056   -2.6208    0.3033 H   0  0  0  0  0  0  0  0  0  0  0  0
   -2.5791   -2.1516    1.1404 C   0  0  0  0  0  0  0  0  0  0  0  0
   -1.6355   -2.8906    1.3611 O   0  0  0  0  0  0  0  0  0  0  0  0
   -2.3490   -0.8390    0.7689 N   0  0  0  0  0  0  0  0  0  0  0  0
   -3.1665   -0.2345    0.7698 H   0  0  0  0  0  0  0  0  0  0  0  0
   -1.0274   -0.1920    0.8600 C   0  0  1  0  0  0  0  0  0  0  0  0
   -0.4778   -0.7493    1.6275 H   0  0  0  0  0  0  0  0  0  0  0  0
   -0.2048   -0.4410   -0.4335 C   0  0  0  0  0  0  0  0  0  0  0  0
    0.8335   -0.1986   -0.1834 H   0  0  0  0  0  0  0  0  0  0  0  0
   -0.2275   -1.5162   -0.6446 H   0  0  0  0  0  0  0  0  0  0  0  0
   -0.5155    0.2996   -1.7595 C   0  0  0  0  0  0  0  0  0  0  0  0
    0.3394    0.1286   -2.4238 H   0  0  0  0  0  0  0  0  0  0  0  0
   -1.3728   -0.1949   -2.2300 H   0  0  0  0  0  0  0  0  0  0  0  0
   -0.7740    1.8133   -1.7138 C   0  0  0  0  0  0  0  0  0  0  0  0
   -0.3163    2.2804   -2.5927 H   0  0  0  0  0  0  0  0  0  0  0  0
   -0.2848    2.2498   -0.8393 H   0  0  0  0  0  0  0  0  0  0  0  0
   -2.2768    2.1046   -1.7485 C   0  0  0  0  0  0  0  0  0  0  0  0
   -2.6292    2.0961   -2.7900 H   0  0  0  0  0  0  0  0  0  0  0  0
   -2.8063    1.3007   -1.2172 H   0  0  0  0  0  0  0  0  0  0  0  0
   -2.5365    3.3972   -1.0868 N   0  3  0  0  0  0  0  0  0  0  0  0
   -1.9053    4.1156   -1.4395 H   0  0  0  0  0  0  0  0  0  0  0  0
   -3.5034    3.6880   -1.2308 H   0  0  0  0  0  0  0  0  0  0  0  0
   -2.3756    3.2717   -0.0736 H   0  0  0  0  0  0  0  0  0  0  0  0
   -1.0535    1.2294    1.4632 C   0  0  0  0  0  0  0  0  0  0  0  0
   -1.9744    2.0040    1.2070 O   0  0  0  0  0  0  0  0  0  0  0  0
   -0.1214    1.6020    2.4126 N   0  0  0  0  0  0  0  0  0  0  0  0
    0.5548    0.8974    2.7031 H   0  0  0  0  0  0  0  0  0  0  0  0
   -0.2008    2.8360    3.1888 C   0  0  0  0  0  0  0  0  0  0  0  0
   -1.1276    2.8651    3.7719 H   0  0  0  0  0  0  0  0  0  0  0  0
    0.6434    2.9000    3.8831 H   0  0  0  0  0  0  0  0  0  0  0  0
   -0.1691    3.7102    2.5306 H   0  0  0  0  0  0  0  0  0  0  0  0
  1  2  1  0  0  0  0
  2  3  1  0  0  0  0
  2  4  1  0  0  0  0
  2  5  1  0  0  0  0
  5  6  2  0  0  0  0
  5  7  1  0  0  0  0
  7  8  1  0  0  0  0
  7  9  1  0  0  0  0
  9 10  1  0  0  0  0
  9 11  1  0  0  0  0
  9 27  1  0  0  0  0
 11 12  1  0  0  0  0
 11 13  1  0  0  0  0
 11 14  1  0  0  0  0
 14 15  1  0  0  0  0
 14 16  1  0  0  0  0
 14 17  1  0  0  0  0
 17 18  1  0  0  0  0
 17 19  1  0  0  0  0
 17 20  1  0  0  0  0
 20 21  1  0  0  0  0
 20 22  1  0  0  0  0
 20 23  1  0  0  0  0
 23 24  1  0  0  0  0
 23 25  1  0  0  0  0
 23 26  1  0  0  0  0
 27 28  2  0  0  0  0
 27 29  1  0  0  0  0
 29 30  1  0  0  0  0
 29 31  1  0  0  0  0
 31 32  1  0  0  0  0
 31 33  1  0  0  0  0
 31 34  1  0  0  0  0
M  CHG  1  23   1
M  END
$$$$

  -OEChem-02102214153D

 34 33  0     1  0  0  0  0  0999 V2000
   -3.9316   -3.7938    1.5214 H   0  0  0  0  0  0  0  0  0  0  0  0
   -3.9372   -2.7609    1.1606 C   0  0  0  0  0  0  0  0  0  0  0  0
   -4.5617   -2.1615    1.8271 H   0  0  0  0  0  0  0  0  0  0  0  0
   -4.3643   -2.7429    0.1551 H   0  0  0  0  0  0  0  0  0  0  0  0
   -2.5233   -2.2123    1.1352 C   0  0  0  0  0  0  0  0  0  0  0  0
   -1.5870   -2.9177    1.4689 O   0  0  0  0  0  0  0  0  0  0  0  0
   -2.2880   -0.9112    0.7300 N   0  0  0  0  0  0  0  0  0  0  0  0
   -3.1095   -0.3275    0.5918 H   0  0  0  0  0  0  0  0  0  0  0  0
   -0.9799   -0.2425    0.8462 C   0  0  1  0  0  0  0  0  0  0  0  0
   -0.4257   -0.7715    1.6299 H   0  0  0  0  0  0  0  0  0  0  0  0
   -0.1564   -0.4882   -0.4469 C   0  0  0  0  0  0  0  0  0  0  0  0
    0.8876   -0.2538   -0.2133 H   0  0  0  0  0  0  0  0  0  0  0  0
   -0.1914   -1.5615   -0.6665 H   0  0  0  0  0  0  0  0  0  0  0  0
   -0.5104    0.2687   -1.7495 C   0  0  0  0  0  0  0  0  0  0  0  0
    0.1825   -0.0801   -2.5238 H   0  0  0  0  0  0  0  0  0  0  0  0
   -1.5091   -0.0531   -2.0638 H   0  0  0  0  0  0  0  0  0  0  0  0
   -0.4390    1.8073   -1.7174 C   0  0  0  0  0  0  0  0  0  0  0  0
    0.2394    2.1488   -2.5067 H   0  0  0  0  0  0  0  0  0  0  0  0
   -0.0027    2.1462   -0.7748 H   0  0  0  0  0  0  0  0  0  0  0  0
   -1.8192    2.4273   -1.9682 C   0  0  0  0  0  0  0  0  0  0  0  0
   -1.9375    2.6375   -3.0410 H   0  0  0  0  0  0  0  0  0  0  0  0
   -2.5951    1.6995   -1.6907 H   0  0  0  0  0  0  0  0  0  0  0  0
   -1.9690    3.6435   -1.1466 N   0  3  0  0  0  0  0  0  0  0  0  0
   -1.1782    4.2711   -1.2864 H   0  0  0  0  0  0  0  0  0  0  0  0
   -2.8369    4.1280   -1.3758 H   0  0  0  0  0  0  0  0  0  0  0  0
   -2.0030    3.3554   -0.1546 H   0  0  0  0  0  0  0  0  0  0  0  0
   -1.0679    1.1952    1.4001 C   0  0  0  0  0  0  0  0  0  0  0  0
   -1.9575    1.9621    1.0334 O   0  0  0  0  0  0  0  0  0  0  0  0
   -0.1860    1.6219    2.3747 N   0  0  0  0  0  0  0  0  0  0  0  0
    0.4597    0.9270    2.7473 H   0  0  0  0  0  0  0  0  0  0  0  0
   -0.3302    2.8774    3.1061 C   0  0  0  0  0  0  0  0  0  0  0  0
   -1.2828    2.9013    3.6467 H   0  0  0  0  0  0  0  0  0  0  0  0
    0.4801    2.9844    3.8348 H   0  0  0  0  0  0  0  0  0  0  0  0
   -0.2901    3.7318    2.4230 H   0  0  0  0  0  0  0  0  0  0  0  0
  1  2  1  0  0  0  0
  2  3  1  0  0  0  0
  2  4  1  0  0  0  0
  2  5  1  0  0  0  0
  5  6  2  0  0  0  0
  5  7  1  0  0  0  0
  7  8  1  0  0  0  0
  7  9  1  0  0  0  0
  9 10  1  0  0  0  0
  9 11  1  0  0  0  0
  9 27  1  0  0  0  0
 11 12  1  0  0  0  0
 11 13  1  0  0  0  0
 11 14  1  0  0  0  0
 14 15  1  0  0  0  0
 14 16  1  0  0  0  0
 14 17  1  0  0  0  0
 17 18  1  0  0  0  0
 17 19  1  0  0  0  0
 17 20  1  0  0  0  0
 20 21  1  0  0  0  0
 20 22  1  0  0  0  0
 20 23  1  0  0  0  0
 23 24  1  0  0  0  0
 23 25  1  0  0  0  0
 23 26  1  0  0  0  0
 27 28  2  0  0  0  0
 27 29  1  0  0  0  0
 29 30  1  0  0  0  0
 29 31  1  0  0  0  0
 31 32  1  0  0  0  0
 31 33  1  0  0  0  0
 31 34  1  0  0  0  0
M  CHG  1  23   1
M  END
$$$$

  -OEChem-02102214153D

 34 33  0     1  0  0  0  0  0999 V2000
   -4.0628   -3.5806    1.6830 H   0  0  0  0  0  0  0  0  0  0  0  0
   -4.0060   -2.5387    1.3543 C   0  0  0  0  0  0  0  0  0  0  0  0
   -4.5035   -1.9100    2.0966 H   0  0  0  0  0  0  0  0  0  0  0  0
   -4.5252   -2.4453    0.3976 H   0  0  0  0  0  0  0  0  0  0  0  0
   -2.5561   -2.1198    1.2044 C   0  0  0  0  0  0  0  0  0  0  0  0
   -1.6618   -2.9036    1.4707 O   0  0  0  0  0  0  0  0  0  0  0  0
   -2.2388   -0.8468    0.7676 N   0  0  0  0  0  0  0  0  0  0  0  0
   -3.0122   -0.1887    0.7144 H   0  0  0  0  0  0  0  0  0  0  0  0
   -0.8733   -0.2934    0.8293 C   0  0  1  0  0  0  0  0  0  0  0  0
   -0.2954   -0.8657    1.5643 H   0  0  0  0  0  0  0  0  0  0  0  0
   -0.1883   -0.5247   -0.5453 C   0  0  0  0  0  0  0  0  0  0  0  0
    0.8926   -0.4136   -0.4080 H   0  0  0  0  0  0  0  0  0  0  0  0
   -0.3599   -1.5692   -0.8303 H   0  0  0  0  0  0  0  0  0  0  0  0
   -0.6073    0.3693   -1.7344 C   0  0  0  0  0  0  0  0  0  0  0  0
   -0.2707   -0.1059   -2.6628 H   0  0  0  0  0  0  0  0  0  0  0  0
   -1.7007    0.3833   -1.7656 H   0  0  0  0  0  0  0  0  0  0  0  0
   -0.0521    1.8127   -1.7052 C   0  0  0  0  0  0  0  0  0  0  0  0
    0.1782    2.1516   -0.6955 H   0  0  0  0  0  0  0  0  0  0  0  0
    0.9053    1.8087   -2.2384 H   0  0  0  0  0  0  0  0  0  0  0  0
   -0.9772    2.8251   -2.3855 C   0  0  0  0  0  0  0  0  0  0  0  0
   -0.4308    3.7727   -2.4990 H   0  0  0  0  0  0  0  0  0  0  0  0
   -1.2271    2.4742   -3.3971 H   0  0  0  0  0  0  0  0  0  0  0  0
   -2.1922    3.0248   -1.5656 N   0  3  0  0  0  0  0  0  0  0  0  0
   -2.5062    3.9938   -1.6175 H   0  0  0  0  0  0  0  0  0  0  0  0
   -2.9407    2.4118   -1.8845 H   0  0  0  0  0  0  0  0  0  0  0  0
   -1.9884    2.7960   -0.5788 H   0  0  0  0  0  0  0  0  0  0  0  0
   -0.8994    1.1487    1.3712 C   0  0  0  0  0  0  0  0  0  0  0  0
   -1.7482    1.9394    0.9538 O   0  0  0  0  0  0  0  0  0  0  0  0
    0.0052    1.5645    2.3279 N   0  0  0  0  0  0  0  0  0  0  0  0
    0.6223    0.8571    2.7240 H   0  0  0  0  0  0  0  0  0  0  0  0
   -0.0496    2.8698    2.9789 C   0  0  0  0  0  0  0  0  0  0  0  0
   -0.9813    2.9787    3.5445 H   0  0  0  0  0  0  0  0  0  0  0  0
    0.7896    2.9808    3.6734 H   0  0  0  0  0  0  0  0  0  0  0  0
    0.0111    3.6750    2.2393 H   0  0  0  0  0  0  0  0  0  0  0  0
  1  2  1  0  0  0  0
  2  3  1  0  0  0  0
  2  4  1  0  0  0  0
  2  5  1  0  0  0  0
  5  6  2  0  0  0  0
  5  7  1  0  0  0  0
  7  8  1  0  0  0  0
  7  9  1  0  0  0  0
  9 10  1  0  0  0  0
  9 11  1  0  0  0  0
  9 27  1  0  0  0  0
 11 12  1  0  0  0  0
 11 13  1  0  0  0  0
 11 14  1  0  0  0  0
 14 15  1  0  0  0  0
 14 16  1  0  0  0  0
 14 17  1  0  0  0  0
 17 18  1  0  0  0  0
 17 19  1  0  0  0  0
 17 20  1  0  0  0  0
 20 21  1  0  0  0  0
 20 22  1  0  0  0  0
 20 23  1  0  0  0  0
 23 24  1  0  0  0  0
 23 25  1  0  0  0  0
 23 26  1  0  0  0  0
 27 28  2  0  0  0  0
 27 29  1  0  0  0  0
 29 30  1  0  0  0  0
 29 31  1  0  0  0  0
 31 32  1  0  0  0  0
 31 33  1  0  0  0  0
 31 34  1  0  0  0  0
M  CHG  1  23   1
M  END
$$$$

  -OEChem-02102214153D

 34 33  0     1  0  0  0  0  0999 V2000
   -3.9911   -3.6313    1.8488 H   0  0  0  0  0  0  0  0  0  0  0  0
   -3.9438   -2.6415    1.3851 C   0  0  0  0  0  0  0  0  0  0  0  0
   -4.5230   -1.9425    1.9932 H   0  0  0  0  0  0  0  0  0  0  0  0
   -4.3847   -2.7010    0.3872 H   0  0  0  0  0  0  0  0  0  0  0  0
   -2.5022   -2.1797    1.2901 C   0  0  0  0  0  0  0  0  0  0  0  0
   -1.5991   -2.9069    1.6656 O   0  0  0  0  0  0  0  0  0  0  0  0
   -2.2032   -0.9330    0.7734 N   0  0  0  0  0  0  0  0  0  0  0  0
   -2.9922   -0.3178    0.5898 H   0  0  0  0  0  0  0  0  0  0  0  0
   -0.8529   -0.3420    0.7996 C   0  0  1  0  0  0  0  0  0  0  0  0
   -0.2535   -0.8637    1.5548 H   0  0  0  0  0  0  0  0  0  0  0  0
   -0.1769   -0.5993   -0.5701 C   0  0  0  0  0  0  0  0  0  0  0  0
    0.9051   -0.4654   -0.4658 H   0  0  0  0  0  0  0  0  0  0  0  0
   -0.3370   -1.6515   -0.8320 H   0  0  0  0  0  0  0  0  0  0  0  0
   -0.6838    0.2779   -1.7336 C   0  0  0  0  0  0  0  0  0  0  0  0
   -0.5875   -0.2881   -2.6671 H   0  0  0  0  0  0  0  0  0  0  0  0
   -1.7515    0.4742   -1.5928 H   0  0  0  0  0  0  0  0  0  0  0  0
    0.1063    1.5948   -1.8870 C   0  0  0  0  0  0  0  0  0  0  0  0
    0.4248    1.9932   -0.9196 H   0  0  0  0  0  0  0  0  0  0  0  0
    1.0204    1.3802   -2.4517 H   0  0  0  0  0  0  0  0  0  0  0  0
   -0.7066    2.6513   -2.6371 C   0  0  0  0  0  0  0  0  0  0  0  0
   -0.0230    3.4146   -3.0361 H   0  0  0  0  0  0  0  0  0  0  0  0
   -1.2026    2.1808   -3.4983 H   0  0  0  0  0  0  0  0  0  0  0  0
   -1.6861    3.2640   -1.7114 N   0  3  0  0  0  0  0  0  0  0  0  0
   -1.3681    4.1878   -1.4189 H   0  0  0  0  0  0  0  0  0  0  0  0
   -2.5996    3.3497   -2.1562 H   0  0  0  0  0  0  0  0  0  0  0  0
   -1.7832    2.6800   -0.8649 H   0  0  0  0  0  0  0  0  0  0  0  0
   -0.8871    1.1353    1.2419 C   0  0  0  0  0  0  0  0  0  0  0  0
   -1.6934    1.9128    0.7273 O   0  0  0  0  0  0  0  0  0  0  0  0
    0.0200    1.6177    2.1648 N   0  0  0  0  0  0  0  0  0  0  0  0
    0.6091    0.9325    2.6358 H   0  0  0  0  0  0  0  0  0  0  0  0
   -0.0240    2.9716    2.7085 C   0  0  0  0  0  0  0  0  0  0  0  0
   -0.9717    3.1465    3.2293 H   0  0  0  0  0  0  0  0  0  0  0  0
    0.7927    3.1188    3.4227 H   0  0  0  0  0  0  0  0  0  0  0  0
    0.0829    3.7131    1.9102 H   0  0  0  0  0  0  0  0  0  0  0  0
  1  2  1  0  0  0  0
  2  3  1  0  0  0  0
  2  4  1  0  0  0  0
  2  5  1  0  0  0  0
  5  6  2  0  0  0  0
  5  7  1  0  0  0  0
  7  8  1  0  0  0  0
  7  9  1  0  0  0  0
  9 10  1  0  0  0  0
  9 11  1  0  0  0  0
  9 27  1  0  0  0  0
 11 12  1  0  0  0  0
 11 13  1  0  0  0  0
 11 14  1  0  0  0  0
 14 15  1  0  0  0  0
 14 16  1  0  0  0  0
 14 17  1  0  0  0  0
 17 18  1  0  0  0  0
 17 19  1  0  0  0  0
 17 20  1  0  0  0  0
 20 21  1  0  0  0  0
 20 22  1  0  0  0  0
 20 23  1  0  0  0  0
 23 24  1  0  0  0  0
 23 25  1  0  0  0  0
 23 26  1  0  0  0  0
 27 28  2  0  0  0  0
 27 29  1  0  0  0  0
 29 30  1  0  0  0  0
 29 31  1  0  0  0  0
 31 32  1  0  0  0  0
 31 33  1  0  0  0  0
 31 34  1  0  0  0  0
M  CHG  1  23   1
M  END
$$$$

  -OEChem-02102214153D

 34 33  0     1  0  0  0  0  0999 V2000
   -3.7070   -4.0730    1.7794 H   0  0  0  0  0  0  0  0  0  0  0  0
   -3.7704   -3.0591    1.3739 C   0  0  0  0  0  0  0  0  0  0  0  0
   -4.4060   -2.4586    2.0289 H   0  0  0  0  0  0  0  0  0  0  0  0
   -4.2221   -3.1060    0.3804 H   0  0  0  0  0  0  0  0  0  0  0  0
   -2.3857   -2.4464    1.2874 C   0  0  0  0  0  0  0  0  0  0  0  0
   -1.4077   -3.0908    1.6276 O   0  0  0  0  0  0  0  0  0  0  0  0
   -2.2243   -1.1572    0.8179 N   0  0  0  0  0  0  0  0  0  0  0  0
   -3.0734   -0.6226    0.6449 H   0  0  0  0  0  0  0  0  0  0  0  0
   -0.9495   -0.4215    0.8542 C   0  0  1  0  0  0  0  0  0  0  0  0
   -0.2961   -0.9096    1.5854 H   0  0  0  0  0  0  0  0  0  0  0  0
   -0.2522   -0.5539   -0.5178 C   0  0  0  0  0  0  0  0  0  0  0  0
    0.8069   -0.2974   -0.4099 H   0  0  0  0  0  0  0  0  0  0  0  0
   -0.2908   -1.6061   -0.8219 H   0  0  0  0  0  0  0  0  0  0  0  0
   -0.8934    0.3100   -1.6226 C   0  0  0  0  0  0  0  0  0  0  0  0
   -0.9747   -0.2966   -2.5313 H   0  0  0  0  0  0  0  0  0  0  0  0
   -1.9148    0.5905   -1.3463 H   0  0  0  0  0  0  0  0  0  0  0  0
   -0.0499    1.5487   -1.9460 C   0  0  0  0  0  0  0  0  0  0  0  0
    0.2269    2.0524   -1.0135 H   0  0  0  0  0  0  0  0  0  0  0  0
    0.8713    1.2503   -2.4585 H   0  0  0  0  0  0  0  0  0  0  0  0
   -0.8678    2.5024   -2.8116 C   0  0  0  0  0  0  0  0  0  0  0  0
   -1.0743    2.0287   -3.7823 H   0  0  0  0  0  0  0  0  0  0  0  0
   -1.8379    2.6815   -2.3232 H   0  0  0  0  0  0  0  0  0  0  0  0
   -0.1223    3.7681   -2.9723 N   0  3  0  0  0  0  0  0  0  0  0  0
    0.7862    3.5877   -3.4026 H   0  0  0  0  0  0  0  0  0  0  0  0
   -0.6500    4.4138   -3.5632 H   0  0  0  0  0  0  0  0  0  0  0  0
    0.0217    4.1996   -2.0570 H   0  0  0  0  0  0  0  0  0  0  0  0
   -1.0846    1.0375    1.3465 C   0  0  0  0  0  0  0  0  0  0  0  0
   -1.9389    1.7831    0.8769 O   0  0  0  0  0  0  0  0  0  0  0  0
   -0.1864    1.5438    2.2678 N   0  0  0  0  0  0  0  0  0  0  0  0
    0.4279    0.8718    2.7233 H   0  0  0  0  0  0  0  0  0  0  0  0
   -0.3413    2.8564    2.8869 C   0  0  0  0  0  0  0  0  0  0  0  0
   -1.2787    2.9052    3.4516 H   0  0  0  0  0  0  0  0  0  0  0  0
    0.4875    3.0503    3.5752 H   0  0  0  0  0  0  0  0  0  0  0  0
   -0.3475    3.6448    2.1275 H   0  0  0  0  0  0  0  0  0  0  0  0
  1  2  1  0  0  0  0
  2  3  1  0  0  0  0
  2  4  1  0  0  0  0
  2  5  1  0  0  0  0
  5  6  2  0  0  0  0
  5  7  1  0  0  0  0
  7  8  1  0  0  0  0
  7  9  1  0  0  0  0
  9 10  1  0  0  0  0
  9 11  1  0  0  0  0
  9 27  1  0  0  0  0
 11 12  1  0  0  0  0
 11 13  1  0  0  0  0
 11 14  1  0  0  0  0
 14 15  1  0  0  0  0
 14 16  1  0  0  0  0
 14 17  1  0  0  0  0
 17 18  1  0  0  0  0
 17 19  1  0  0  0  0
 17 20  1  0  0  0  0
 20 21  1  0  0  0  0
 20 22  1  0  0  0  0
 20 23  1  0  0  0  0
 23 24  1  0  0  0  0
 23 25  1  0  0  0  0
 23 26  1  0  0  0  0
 27 28  2  0  0  0  0
 27 29  1  0  0  0  0
 29 30  1  0  0  0  0
 29 31  1  0  0  0  0
 31 32  1  0  0  0  0
 31 33  1  0  0  0  0
 31 34  1  0  0  0  0
M  CHG  1  23   1
M  END
$$$$

  -OEChem-02102214153D

 34 33  0     1  0  0  0  0  0999 V2000
   -3.6631   -4.1042    1.7961 H   0  0  0  0  0  0  0  0  0  0  0  0
   -3.7466   -3.0873    1.4019 C   0  0  0  0  0  0  0  0  0  0  0  0
   -4.3583   -2.4952    2.0868 H   0  0  0  0  0  0  0  0  0  0  0  0
   -4.2374   -3.1279    0.4267 H   0  0  0  0  0  0  0  0  0  0  0  0
   -2.3695   -2.4661    1.2653 C   0  0  0  0  0  0  0  0  0  0  0  0
   -1.3730   -3.1181    1.5297 O   0  0  0  0  0  0  0  0  0  0  0  0
   -2.2364   -1.1614    0.8316 N   0  0  0  0  0  0  0  0  0  0  0  0
   -3.0956   -0.6244    0.7277 H   0  0  0  0  0  0  0  0  0  0  0  0
   -0.9707   -0.4110    0.8558 C   0  0  1  0  0  0  0  0  0  0  0  0
   -0.3017   -0.9108    1.5651 H   0  0  0  0  0  0  0  0  0  0  0  0
   -0.2911   -0.5111   -0.5266 C   0  0  0  0  0  0  0  0  0  0  0  0
    0.7607   -0.2291   -0.4114 H   0  0  0  0  0  0  0  0  0  0  0  0
   -0.3001   -1.5592   -0.8473 H   0  0  0  0  0  0  0  0  0  0  0  0
   -0.9478    0.3566   -1.6226 C   0  0  0  0  0  0  0  0  0  0  0  0
   -1.2775   -0.3070   -2.4298 H   0  0  0  0  0  0  0  0  0  0  0  0
   -1.8482    0.8527   -1.2518 H   0  0  0  0  0  0  0  0  0  0  0  0
    0.0291    1.3863   -2.1988 C   0  0  0  0  0  0  0  0  0  0  0  0
    0.4434    1.9845   -1.3794 H   0  0  0  0  0  0  0  0  0  0  0  0
    0.8556    0.8721   -2.7016 H   0  0  0  0  0  0  0  0  0  0  0  0
   -0.7085    2.2972   -3.1761 C   0  0  0  0  0  0  0  0  0  0  0  0
   -1.0943    1.6961   -4.0122 H   0  0  0  0  0  0  0  0  0  0  0  0
   -1.5777    2.7396   -2.6662 H   0  0  0  0  0  0  0  0  0  0  0  0
    0.2173    3.3477   -3.6505 N   0  3  0  0  0  0  0  0  0  0  0  0
    1.0249    2.9216   -4.1087 H   0  0  0  0  0  0  0  0  0  0  0  0
   -0.2584    3.9604   -4.3163 H   0  0  0  0  0  0  0  0  0  0  0  0
    0.5408    3.9072   -2.8588 H   0  0  0  0  0  0  0  0  0  0  0  0
   -1.1037    1.0314    1.3951 C   0  0  0  0  0  0  0  0  0  0  0  0
   -2.0161    1.7575    1.0171 O   0  0  0  0  0  0  0  0  0  0  0  0
   -0.1858    1.5242    2.3046 N   0  0  0  0  0  0  0  0  0  0  0  0
    0.4750    0.8589    2.6999 H   0  0  0  0  0  0  0  0  0  0  0  0
   -0.3432    2.8141    2.9700 C   0  0  0  0  0  0  0  0  0  0  0  0
   -1.2619    2.8291    3.5665 H   0  0  0  0  0  0  0  0  0  0  0  0
    0.5041    3.0020    3.6370 H   0  0  0  0  0  0  0  0  0  0  0  0
   -0.3878    3.6249    2.2354 H   0  0  0  0  0  0  0  0  0  0  0  0
  1  2  1  0  0  0  0
  2  3  1  0  0  0  0
  2  4  1  0  0  0  0
  2  5  1  0  0  0  0
  5  6  2  0  0  0  0
  5  7  1  0  0  0  0
  7  8  1  0  0  0  0
  7  9  1  0  0  0  0
  9 10  1  0  0  0  0
  9 11  1  0  0  0  0
  9 27  1  0  0  0  0
 11 12  1  0  0  0  0
 11 13  1  0  0  0  0
 11 14  1  0  0  0  0
 14 15  1  0  0  0  0
 14 16  1  0  0  0  0
 14 17  1  0  0  0  0
 17 18  1  0  0  0  0
 17 19  1  0  0  0  0
 17 20  1  0  0  0  0
 20 21  1  0  0  0  0
 20 22  1  0  0  0  0
 20 23  1  0  0  0  0
 23 24  1  0  0  0  0
 23 25  1  0  0  0  0
 23 26  1  0  0  0  0
 27 28  2  0  0  0  0
 27 29  1  0  0  0  0
 29 30  1  0  0  0  0
 29 31  1  0  0  0  0
 31 32  1  0  0  0  0
 31 33  1  0  0  0  0
 31 34  1  0  0  0  0
M  CHG  1  23   1
M  END
$$$$

  -OEChem-02102214153D

 34 33  0     1  0  0  0  0  0999 V2000
   -3.6306   -4.0985    1.8210 H   0  0  0  0  0  0  0  0  0  0  0  0
   -3.7277   -3.0806    1.4324 C   0  0  0  0  0  0  0  0  0  0  0  0
   -4.3080   -2.4883    2.1440 H   0  0  0  0  0  0  0  0  0  0  0  0
   -4.2596   -3.1169    0.4788 H   0  0  0  0  0  0  0  0  0  0  0  0
   -2.3559   -2.4638    1.2388 C   0  0  0  0  0  0  0  0  0  0  0  0
   -1.3507   -3.1274    1.4328 O   0  0  0  0  0  0  0  0  0  0  0  0
   -2.2380   -1.1491    0.8332 N   0  0  0  0  0  0  0  0  0  0  0  0
   -3.0986   -0.6042    0.7994 H   0  0  0  0  0  0  0  0  0  0  0  0
   -0.9735   -0.3974    0.8476 C   0  0  1  0  0  0  0  0  0  0  0  0
   -0.2913   -0.9069    1.5374 H   0  0  0  0  0  0  0  0  0  0  0  0
   -0.3162   -0.4762   -0.5479 C   0  0  0  0  0  0  0  0  0  0  0  0
    0.7285   -0.1717   -0.4264 H   0  0  0  0  0  0  0  0  0  0  0  0
   -0.3021   -1.5193   -0.8832 H   0  0  0  0  0  0  0  0  0  0  0  0
   -0.9756    0.4001   -1.6363 C   0  0  0  0  0  0  0  0  0  0  0  0
   -1.5708   -0.2493   -2.2880 H   0  0  0  0  0  0  0  0  0  0  0  0
   -1.6684    1.1222   -1.2006 H   0  0  0  0  0  0  0  0  0  0  0  0
    0.0654    1.1598   -2.4657 C   0  0  0  0  0  0  0  0  0  0  0  0
    0.6689    1.7894   -1.8022 H   0  0  0  0  0  0  0  0  0  0  0  0
    0.7319    0.4452   -2.9615 H   0  0  0  0  0  0  0  0  0  0  0  0
   -0.6434    2.0306   -3.5008 C   0  0  0  0  0  0  0  0  0  0  0  0
   -1.2433    1.3893   -4.1633 H   0  0  0  0  0  0  0  0  0  0  0  0
   -1.3424    2.7054   -2.9840 H   0  0  0  0  0  0  0  0  0  0  0  0
    0.3650    2.7954   -4.2659 N   0  3  0  0  0  0  0  0  0  0  0  0
    1.0048    2.1543   -4.7389 H   0  0  0  0  0  0  0  0  0  0  0  0
   -0.0957    3.3815   -4.9657 H   0  0  0  0  0  0  0  0  0  0  0  0
    0.9009    3.3937   -3.6342 H   0  0  0  0  0  0  0  0  0  0  0  0
   -1.1184    1.0271    1.4274 C   0  0  0  0  0  0  0  0  0  0  0  0
   -2.0855    1.7189    1.1312 O   0  0  0  0  0  0  0  0  0  0  0  0
   -0.1935    1.5118    2.3337 N   0  0  0  0  0  0  0  0  0  0  0  0
    0.5054    0.8574    2.6776 H   0  0  0  0  0  0  0  0  0  0  0  0
   -0.3726    2.7701    3.0516 C   0  0  0  0  0  0  0  0  0  0  0  0
   -1.2781    2.7353    3.6669 H   0  0  0  0  0  0  0  0  0  0  0  0
    0.4839    2.9578    3.7067 H   0  0  0  0  0  0  0  0  0  0  0  0
   -0.4579    3.6060    2.3494 H   0  0  0  0  0  0  0  0  0  0  0  0
  1  2  1  0  0  0  0
  2  3  1  0  0  0  0
  2  4  1  0  0  0  0
  2  5  1  0  0  0  0
  5  6  2  0  0  0  0
  5  7  1  0  0  0  0
  7  8  1  0  0  0  0
  7  9  1  0  0  0  0
  9 10  1  0  0  0  0
  9 11  1  0  0  0  0
  9 27  1  0  0  0  0
 11 12  1  0  0  0  0
 11 13  1  0  0  0  0
 11 14  1  0  0  0  0
 14 15  1  0  0  0  0
 14 16  1  0  0  0  0
 14 17  1  0  0  0  0
 17 18  1  0  0  0  0
 17 19  1  0  0  0  0
 17 20  1  0  0  0  0
 20 21  1  0  0  0  0
 20 22  1  0  0  0  0
 20 23  1  0  0  0  0
 23 24  1  0  0  0  0
 23 25  1  0  0  0  0
 23 26  1  0  0  0  0
 27 28  2  0  0  0  0
 27 29  1  0  0  0  0
 29 30  1  0  0  0  0
 29 31  1  0  0  0  0
 31 32  1  0  0  0  0
 31 33  1  0  0  0  0
 31 34  1  0  0  0  0
M  CHG  1  23   1
M  END
$$$$

  -OEChem-02102214153D

 34 33  0     1  0  0  0  0  0999 V2000
   -3.6284   -4.0892    1.8293 H   0  0  0  0  0  0  0  0  0  0  0  0
   -3.7247   -3.0707    1.4422 C   0  0  0  0  0  0  0  0  0  0  0  0
   -4.2909   -2.4748    2.1624 H   0  0  0  0  0  0  0  0  0  0  0  0
   -4.2708   -3.1033    0.4965 H   0  0  0  0  0  0  0  0  0  0  0  0
   -2.3518   -2.4628    1.2283 C   0  0  0  0  0  0  0  0  0  0  0  0
   -1.3481   -3.1359    1.3966 O   0  0  0  0  0  0  0  0  0  0  0  0
   -2.2308   -1.1470    0.8287 N   0  0  0  0  0  0  0  0  0  0  0  0
   -3.0873   -0.5943    0.8180 H   0  0  0  0  0  0  0  0  0  0  0  0
   -0.9625   -0.4018    0.8402 C   0  0  1  0  0  0  0  0  0  0  0  0
   -0.2750   -0.9155    1.5216 H   0  0  0  0  0  0  0  0  0  0  0  0
   -0.3220   -0.4724   -0.5641 C   0  0  0  0  0  0  0  0  0  0  0  0
    0.7221   -0.1634   -0.4495 H   0  0  0  0  0  0  0  0  0  0  0  0
   -0.3100   -1.5121   -0.9096 H   0  0  0  0  0  0  0  0  0  0  0  0
   -0.9863    0.4169   -1.6366 C   0  0  0  0  0  0  0  0  0  0  0  0
   -1.8044   -0.1436   -2.1021 H   0  0  0  0  0  0  0  0  0  0  0  0
   -1.4228    1.3120   -1.1890 H   0  0  0  0  0  0  0  0  0  0  0  0
    0.0250    0.8751   -2.6932 C   0  0  0  0  0  0  0  0  0  0  0  0
    0.8263    1.4456   -2.2106 H   0  0  0  0  0  0  0  0  0  0  0  0
    0.4715   -0.0020   -3.1749 H   0  0  0  0  0  0  0  0  0  0  0  0
   -0.6813    1.7459   -3.7307 C   0  0  0  0  0  0  0  0  0  0  0  0
   -1.4917    1.1665   -4.1972 H   0  0  0  0  0  0  0  0  0  0  0  0
   -1.1486    2.6029   -3.2229 H   0  0  0  0  0  0  0  0  0  0  0  0
    0.3007    2.1970   -4.7406 N   0  3  0  0  0  0  0  0  0  0  0  0
    0.7248    1.3890   -5.2007 H   0  0  0  0  0  0  0  0  0  0  0  0
   -0.1615    2.7755   -5.4457 H   0  0  0  0  0  0  0  0  0  0  0  0
    1.0358    2.7466   -4.2914 H   0  0  0  0  0  0  0  0  0  0  0  0
   -1.1178    1.0164    1.4311 C   0  0  0  0  0  0  0  0  0  0  0  0
   -2.1018    1.6905    1.1488 O   0  0  0  0  0  0  0  0  0  0  0  0
   -0.1996    1.5070    2.3409 N   0  0  0  0  0  0  0  0  0  0  0  0
    0.5208    0.8680    2.6688 H   0  0  0  0  0  0  0  0  0  0  0  0
   -0.3875    2.7658    3.0558 C   0  0  0  0  0  0  0  0  0  0  0  0
   -1.2933    2.7272    3.6708 H   0  0  0  0  0  0  0  0  0  0  0  0
    0.4670    2.9616    3.7111 H   0  0  0  0  0  0  0  0  0  0  0  0
   -0.4774    3.5988    2.3505 H   0  0  0  0  0  0  0  0  0  0  0  0
  1  2  1  0  0  0  0
  2  3  1  0  0  0  0
  2  4  1  0  0  0  0
  2  5  1  0  0  0  0
  5  6  2  0  0  0  0
  5  7  1  0  0  0  0
  7  8  1  0  0  0  0
  7  9  1  0  0  0  0
  9 10  1  0  0  0  0
  9 11  1  0  0  0  0
  9 27  1  0  0  0  0
 11 12  1  0  0  0  0
 11 13  1  0  0  0  0
 11 14  1  0  0  0  0
 14 15  1  0  0  0  0
 14 16  1  0  0  0  0
 14 17  1  0  0  0  0
 17 18  1  0  0  0  0
 17 19  1  0  0  0  0
 17 20  1  0  0  0  0
 20 21  1  0  0  0  0
 20 22  1  0  0  0  0
 20 23  1  0  0  0  0
 23 24  1  0  0  0  0
 23 25  1  0  0  0  0
 23 26  1  0  0  0  0
 27 28  2  0  0  0  0
 27 29  1  0  0  0  0
 29 30  1  0  0  0  0
 29 31  1  0  0  0  0
 31 32  1  0  0  0  0
 31 33  1  0  0  0  0
 31 34  1  0  0  0  0
M  CHG  1  23   1
M  END
$$$$

  -OEChem-02102214153D

 34 33  0     1  0  0  0  0  0999 V2000
   -3.6414   -4.0773    1.8554 H   0  0  0  0  0  0  0  0  0  0  0  0
   -3.7303   -3.0626    1.4569 C   0  0  0  0  0  0  0  0  0  0  0  0
   -4.2898   -2.4541    2.1715 H   0  0  0  0  0  0  0  0  0  0  0  0
   -4.2788   -3.1022    0.5129 H   0  0  0  0  0  0  0  0  0  0  0  0
   -2.3532   -2.4675    1.2334 C   0  0  0  0  0  0  0  0  0  0  0  0
   -1.3548   -3.1476    1.4043 O   0  0  0  0  0  0  0  0  0  0  0  0
   -2.2220   -1.1566    0.8205 N   0  0  0  0  0  0  0  0  0  0  0  0
   -3.0734   -0.5961    0.8074 H   0  0  0  0  0  0  0  0  0  0  0  0
   -0.9477   -0.4210    0.8318 C   0  0  1  0  0  0  0  0  0  0  0  0
   -0.2593   -0.9331    1.5132 H   0  0  0  0  0  0  0  0  0  0  0  0
   -0.3177   -0.4886   -0.5768 C   0  0  0  0  0  0  0  0  0  0  0  0
    0.7315   -0.1909   -0.4780 H   0  0  0  0  0  0  0  0  0  0  0  0
   -0.3277   -1.5264   -0.9284 H   0  0  0  0  0  0  0  0  0  0  0  0
   -0.9891    0.4167   -1.6272 C   0  0  0  0  0  0  0  0  0  0  0  0
   -1.9623   -0.0077   -1.8976 H   0  0  0  0  0  0  0  0  0  0  0  0
   -1.1635    1.4155   -1.2178 H   0  0  0  0  0  0  0  0  0  0  0  0
   -0.1025    0.5711   -2.8669 C   0  0  0  0  0  0  0  0  0  0  0  0
    0.8573    1.0139   -2.5788 H   0  0  0  0  0  0  0  0  0  0  0  0
    0.0929   -0.4164   -3.2993 H   0  0  0  0  0  0  0  0  0  0  0  0
   -0.8046    1.4630   -3.8881 C   0  0  0  0  0  0  0  0  0  0  0  0
   -1.7746    1.0159   -4.1509 H   0  0  0  0  0  0  0  0  0  0  0  0
   -1.0142    2.4404   -3.4288 H   0  0  0  0  0  0  0  0  0  0  0  0
    0.0562    1.6085   -5.0819 N   0  3  0  0  0  0  0  0  0  0  0  0
    0.2361    0.6920   -5.4963 H   0  0  0  0  0  0  0  0  0  0  0  0
   -0.4034    2.2019   -5.7761 H   0  0  0  0  0  0  0  0  0  0  0  0
    0.9470    2.0345   -4.8196 H   0  0  0  0  0  0  0  0  0  0  0  0
   -1.1102    1.0014    1.4092 C   0  0  0  0  0  0  0  0  0  0  0  0
   -2.0892    1.6717    1.1008 O   0  0  0  0  0  0  0  0  0  0  0  0
   -0.2029    1.5033    2.3235 N   0  0  0  0  0  0  0  0  0  0  0  0
    0.5187    0.8720    2.6628 H   0  0  0  0  0  0  0  0  0  0  0  0
   -0.3924    2.7755    3.0130 C   0  0  0  0  0  0  0  0  0  0  0  0
   -1.3101    2.7557    3.6108 H   0  0  0  0  0  0  0  0  0  0  0  0
    0.4511    2.9740    3.6816 H   0  0  0  0  0  0  0  0  0  0  0  0
   -0.4604    3.5973    2.2923 H   0  0  0  0  0  0  0  0  0  0  0  0
  1  2  1  0  0  0  0
  2  3  1  0  0  0  0
  2  4  1  0  0  0  0
  2  5  1  0  0  0  0
  5  6  2  0  0  0  0
  5  7  1  0  0  0  0
  7  8  1  0  0  0  0
  7  9  1  0  0  0  0
  9 10  1  0  0  0  0
  9 11  1  0  0  0  0
  9 27  1  0  0  0  0
 11 12  1  0  0  0  0
 11 13  1  0  0  0  0
 11 14  1  0  0  0  0
 14 15  1  0  0  0  0
 14 16  1  0  0  0  0
 14 17  1  0  0  0  0
 17 18  1  0  0  0  0
 17 19  1  0  0  0  0
 17 20  1  0  0  0  0
 20 21  1  0  0  0  0
 20 22  1  0  0  0  0
 20 23  1  0  0  0  0
 23 24  1  0  0  0  0
 23 25  1  0  0  0  0
 23 26  1  0  0  0  0
 27 28  2  0  0  0  0
 27 29  1  0  0  0  0
 29 30  1  0  0  0  0
 29 31  1  0  0  0  0
 31 32  1  0  0  0  0
 31 33  1  0  0  0  0
 31 34  1  0  0  0  0
M  CHG  1  23   1
M  END
$$$$

  -OEChem-02102214153D

 34 33  0     1  0  0  0  0  0999 V2000
   -3.6576   -4.0740    1.8163 H   0  0  0  0  0  0  0  0  0  0  0  0
   -3.7356   -3.0551    1.4262 C   0  0  0  0  0  0  0  0  0  0  0  0
   -4.3052   -2.4507    2.1364 H   0  0  0  0  0  0  0  0  0  0  0  0
   -4.2678   -3.0824    0.4726 H   0  0  0  0  0  0  0  0  0  0  0  0
   -2.3525   -2.4640    1.2324 C   0  0  0  0  0  0  0  0  0  0  0  0
   -1.3592   -3.1448    1.4282 O   0  0  0  0  0  0  0  0  0  0  0  0
   -2.2104   -1.1549    0.8177 N   0  0  0  0  0  0  0  0  0  0  0  0
   -3.0602   -0.5929    0.7799 H   0  0  0  0  0  0  0  0  0  0  0  0
   -0.9335   -0.4240    0.8374 C   0  0  1  0  0  0  0  0  0  0  0  0
   -0.2517   -0.9389    1.5235 H   0  0  0  0  0  0  0  0  0  0  0  0
   -0.3012   -0.4967   -0.5725 C   0  0  0  0  0  0  0  0  0  0  0  0
    0.7869   -0.4658   -0.4538 H   0  0  0  0  0  0  0  0  0  0  0  0
   -0.5469   -1.4618   -1.0293 H   0  0  0  0  0  0  0  0  0  0  0  0
   -0.7133    0.6483   -1.5141 C   0  0  0  0  0  0  0  0  0  0  0  0
   -1.8038    0.6460   -1.6257 H   0  0  0  0  0  0  0  0  0  0  0  0
   -0.4202    1.6126   -1.0846 H   0  0  0  0  0  0  0  0  0  0  0  0
   -0.0457    0.4983   -2.8842 C   0  0  0  0  0  0  0  0  0  0  0  0
    1.0433    0.5159   -2.7649 H   0  0  0  0  0  0  0  0  0  0  0  0
   -0.3253   -0.4669   -3.3210 H   0  0  0  0  0  0  0  0  0  0  0  0
   -0.4935    1.6367   -3.7984 C   0  0  0  0  0  0  0  0  0  0  0  0
   -1.5904    1.6215   -3.8828 H   0  0  0  0  0  0  0  0  0  0  0  0
   -0.2191    2.5980   -3.3391 H   0  0  0  0  0  0  0  0  0  0  0  0
    0.1452    1.4755   -5.1224 N   0  3  0  0  0  0  0  0  0  0  0  0
   -0.1250    0.5797   -5.5330 H   0  0  0  0  0  0  0  0  0  0  0  0
   -0.1480    2.2291   -5.7480 H   0  0  0  0  0  0  0  0  0  0  0  0
    1.1619    1.5021   -5.0249 H   0  0  0  0  0  0  0  0  0  0  0  0
   -1.1039    0.9989    1.4110 C   0  0  0  0  0  0  0  0  0  0  0  0
   -2.0583    1.6825    1.0570 O   0  0  0  0  0  0  0  0  0  0  0  0
   -0.2074    1.5038    2.3340 N   0  0  0  0  0  0  0  0  0  0  0  0
    0.4978    0.8675    2.6980 H   0  0  0  0  0  0  0  0  0  0  0  0
   -0.3990    2.7854    3.0054 C   0  0  0  0  0  0  0  0  0  0  0  0
   -1.3293    2.7807    3.5839 H   0  0  0  0  0  0  0  0  0  0  0  0
    0.4321    2.9835    3.6895 H   0  0  0  0  0  0  0  0  0  0  0  0
   -0.4441    3.5999    2.2747 H   0  0  0  0  0  0  0  0  0  0  0  0
  1  2  1  0  0  0  0
  2  3  1  0  0  0  0
  2  4  1  0  0  0  0
  2  5  1  0  0  0  0
  5  6  2  0  0  0  0
  5  7  1  0  0  0  0
  7  8  1  0  0  0  0
  7  9  1  0  0  0  0
  9 10  1  0  0  0  0
  9 11  1  0  0  0  0
  9 27  1  0  0  0  0
 11 12  1  0  0  0  0
 11 13  1  0  0  0  0
 11 14  1  0  0  0  0
 14 15  1  0  0  0  0
 14 16  1  0  0  0  0
 14 17  1  0  0  0  0
 17 18  1  0  0  0  0
 17 19  1  0  0  0  0
 17 20  1  0  0  0  0
 20 21  1  0  0  0  0
 20 22  1  0  0  0  0
 20 23  1  0  0  0  0
 23 24  1  0  0  0  0
 23 25  1  0  0  0  0
 23 26  1  0  0  0  0
 27 28  2  0  0  0  0
 27 29  1  0  0  0  0
 29 30  1  0  0  0  0
 29 31  1  0  0  0  0
 31 32  1  0  0  0  0
 31 33  1  0  0  0  0
 31 34  1  0  0  0  0
M  CHG  1  23   1
M  END
$$$$

  -OEChem-02102214153D

 34 33  0     1  0  0  0  0  0999 V2000
   -3.6615   -4.0696    1.8609 H   0  0  0  0  0  0  0  0  0  0  0  0
   -3.7439   -3.0574    1.4548 C   0  0  0  0  0  0  0  0  0  0  0  0
   -4.3065   -2.4421    2.1612 H   0  0  0  0  0  0  0  0  0  0  0  0
   -4.2855   -3.1008    0.5071 H   0  0  0  0  0  0  0  0  0  0  0  0
   -2.3630   -2.4695    1.2366 C   0  0  0  0  0  0  0  0  0  0  0  0
   -1.3685   -3.1539    1.4124 O   0  0  0  0  0  0  0  0  0  0  0  0
   -2.2242   -1.1619    0.8157 N   0  0  0  0  0  0  0  0  0  0  0  0
   -3.0737   -0.5986    0.7949 H   0  0  0  0  0  0  0  0  0  0  0  0
   -0.9471   -0.4301    0.8295 C   0  0  1  0  0  0  0  0  0  0  0  0
   -0.2679   -0.9441    1.5190 H   0  0  0  0  0  0  0  0  0  0  0  0
   -0.3046   -0.5064   -0.5746 C   0  0  0  0  0  0  0  0  0  0  0  0
    0.7842   -0.4799   -0.4619 H   0  0  0  0  0  0  0  0  0  0  0  0
   -0.5565   -1.4734   -1.0238 H   0  0  0  0  0  0  0  0  0  0  0  0
   -0.7195    0.6376   -1.5158 C   0  0  0  0  0  0  0  0  0  0  0  0
   -1.8041    0.7823   -1.4486 H   0  0  0  0  0  0  0  0  0  0  0  0
   -0.2352    1.5697   -1.2033 H   0  0  0  0  0  0  0  0  0  0  0  0
   -0.3575    0.3141   -2.9687 C   0  0  0  0  0  0  0  0  0  0  0  0
    0.7249    0.1649   -3.0499 H   0  0  0  0  0  0  0  0  0  0  0  0
   -0.8535   -0.6152   -3.2705 H   0  0  0  0  0  0  0  0  0  0  0  0
   -0.8015    1.4607   -3.8738 C   0  0  0  0  0  0  0  0  0  0  0  0
   -1.8837    1.6171   -3.7523 H   0  0  0  0  0  0  0  0  0  0  0  0
   -0.3040    2.3879   -3.5534 H   0  0  0  0  0  0  0  0  0  0  0  0
   -0.4646    1.1296   -5.2752 N   0  3  0  0  0  0  0  0  0  0  0  0
   -0.9377    0.2674   -5.5530 H   0  0  0  0  0  0  0  0  0  0  0  0
   -0.7616    1.8857   -5.8959 H   0  0  0  0  0  0  0  0  0  0  0  0
    0.5444    0.9993   -5.3700 H   0  0  0  0  0  0  0  0  0  0  0  0
   -1.1054    0.9979    1.3959 C   0  0  0  0  0  0  0  0  0  0  0  0
   -2.0643    1.6805    1.0531 O   0  0  0  0  0  0  0  0  0  0  0  0
   -0.2013    1.5029    2.3117 N   0  0  0  0  0  0  0  0  0  0  0  0
    0.5142    0.8708    2.6624 H   0  0  0  0  0  0  0  0  0  0  0  0
   -0.3810    2.7882    2.9801 C   0  0  0  0  0  0  0  0  0  0  0  0
   -1.3136    2.7959    3.5545 H   0  0  0  0  0  0  0  0  0  0  0  0
    0.4492    2.9772    3.6679 H   0  0  0  0  0  0  0  0  0  0  0  0
   -0.4132    3.6021    2.2482 H   0  0  0  0  0  0  0  0  0  0  0  0
  1  2  1  0  0  0  0
  2  3  1  0  0  0  0
  2  4  1  0  0  0  0
  2  5  1  0  0  0  0
  5  6  2  0  0  0  0
  5  7  1  0  0  0  0
  7  8  1  0  0  0  0
  7  9  1  0  0  0  0
  9 10  1  0  0  0  0
  9 11  1  0  0  0  0
  9 27  1  0  0  0  0
 11 12  1  0  0  0  0
 11 13  1  0  0  0  0
 11 14  1  0  0  0  0
 14 15  1  0  0  0  0
 14 16  1  0  0  0  0
 14 17  1  0  0  0  0
 17 18  1  0  0  0  0
 17 19  1  0  0  0  0
 17 20  1  0  0  0  0
 20 21  1  0  0  0  0
 20 22  1  0  0  0  0
 20 23  1  0  0  0  0
 23 24  1  0  0  0  0
 23 25  1  0  0  0  0
 23 26  1  0  0  0  0
 27 28  2  0  0  0  0
 27 29  1  0  0  0  0
 29 30  1  0  0  0  0
 29 31  1  0  0  0  0
 31 32  1  0  0  0  0
 31 33  1  0  0  0  0
 31 34  1  0  0  0  0
M  CHG  1  23   1
M  END
$$$$

  -OEChem-02102214153D

 34 33  0     1  0  0  0  0  0999 V2000
   -3.6505   -4.0684    1.8860 H   0  0  0  0  0  0  0  0  0  0  0  0
   -3.7439   -3.0589    1.4752 C   0  0  0  0  0  0  0  0  0  0  0  0
   -4.2979   -2.4419    2.1868 H   0  0  0  0  0  0  0  0  0  0  0  0
   -4.3009   -3.1101    0.5368 H   0  0  0  0  0  0  0  0  0  0  0  0
   -2.3690   -2.4666    1.2313 C   0  0  0  0  0  0  0  0  0  0  0  0
   -1.3703   -3.1528    1.3720 O   0  0  0  0  0  0  0  0  0  0  0  0
   -2.2418   -1.1545    0.8212 N   0  0  0  0  0  0  0  0  0  0  0  0
   -3.0920   -0.5922    0.8346 H   0  0  0  0  0  0  0  0  0  0  0  0
   -0.9675   -0.4174    0.8271 C   0  0  1  0  0  0  0  0  0  0  0  0
   -0.2867   -0.9350    1.5120 H   0  0  0  0  0  0  0  0  0  0  0  0
   -0.3202   -0.4921   -0.5746 C   0  0  0  0  0  0  0  0  0  0  0  0
    0.7688   -0.4648   -0.4625 H   0  0  0  0  0  0  0  0  0  0  0  0
   -0.5673   -1.4649   -1.0140 H   0  0  0  0  0  0  0  0  0  0  0  0
   -0.7339    0.6445   -1.5288 C   0  0  0  0  0  0  0  0  0  0  0  0
   -1.7607    0.9532   -1.3055 H   0  0  0  0  0  0  0  0  0  0  0  0
   -0.0814    1.5120   -1.3787 H   0  0  0  0  0  0  0  0  0  0  0  0
   -0.7056    0.1778   -2.9880 C   0  0  0  0  0  0  0  0  0  0  0  0
    0.3085   -0.1462   -3.2468 H   0  0  0  0  0  0  0  0  0  0  0  0
   -1.3788   -0.6781   -3.1107 H   0  0  0  0  0  0  0  0  0  0  0  0
   -1.1446    1.3199   -3.9011 C   0  0  0  0  0  0  0  0  0  0  0  0
   -2.1488    1.6546   -3.6010 H   0  0  0  0  0  0  0  0  0  0  0  0
   -0.4656    2.1745   -3.7649 H   0  0  0  0  0  0  0  0  0  0  0  0
   -1.1362    0.8487   -5.3029 N   0  3  0  0  0  0  0  0  0  0  0  0
   -1.7736    0.0569   -5.4078 H   0  0  0  0  0  0  0  0  0  0  0  0
   -1.4351    1.6002   -5.9282 H   0  0  0  0  0  0  0  0  0  0  0  0
   -0.1942    0.5527   -5.5660 H   0  0  0  0  0  0  0  0  0  0  0  0
   -1.1129    1.0067    1.4071 C   0  0  0  0  0  0  0  0  0  0  0  0
   -2.0893    1.6850    1.1087 O   0  0  0  0  0  0  0  0  0  0  0  0
   -0.1929    1.5002    2.3133 N   0  0  0  0  0  0  0  0  0  0  0  0
    0.5387    0.8696    2.6320 H   0  0  0  0  0  0  0  0  0  0  0  0
   -0.3582    2.7779    2.9996 C   0  0  0  0  0  0  0  0  0  0  0  0
   -1.2843    2.7830    3.5845 H   0  0  0  0  0  0  0  0  0  0  0  0
    0.4807    2.9545    3.6802 H   0  0  0  0  0  0  0  0  0  0  0  0
   -0.3944    3.6009    2.2780 H   0  0  0  0  0  0  0  0  0  0  0  0
  1  2  1  0  0  0  0
  2  3  1  0  0  0  0
  2  4  1  0  0  0  0
  2  5  1  0  0  0  0
  5  6  2  0  0  0  0
  5  7  1  0  0  0  0
  7  8  1  0  0  0  0
  7  9  1  0  0  0  0
  9 10  1  0  0  0  0
  9 11  1  0  0  0  0
  9 27  1  0  0  0  0
 11 12  1  0  0  0  0
 11 13  1  0  0  0  0
 11 14  1  0  0  0  0
 14 15  1  0  0  0  0
 14 16  1  0  0  0  0
 14 17  1  0  0  0  0
 17 18  1  0  0  0  0
 17 19  1  0  0  0  0
 17 20  1  0  0  0  0
 20 21  1  0  0  0  0
 20 22  1  0  0  0  0
 20 23  1  0  0  0  0
 23 24  1  0  0  0  0
 23 25  1  0  0  0  0
 23 26  1  0  0  0  0
 27 28  2  0  0  0  0
 27 29  1  0  0  0  0
 29 30  1  0  0  0  0
 29 31  1  0  0  0  0
 31 32  1  0  0  0  0
 31 33  1  0  0  0  0
 31 34  1  0  0  0  0
M  CHG  1  23   1
M  END
$$$$

  -OEChem-02102214153D

 34 33  0     1  0  0  0  0  0999 V2000
   -3.6395   -4.0794    1.8547 H   0  0  0  0  0  0  0  0  0  0  0  0
   -3.7401   -3.0428    1.5200 C   0  0  0  0  0  0  0  0  0  0  0  0
   -4.2337   -2.4674    2.3069 H   0  0  0  0  0  0  0  0  0  0  0  0
   -4.3581   -3.0215    0.6195 H   0  0  0  0  0  0  0  0  0  0  0  0
   -2.3733   -2.4549    1.2266 C   0  0  0  0  0  0  0  0  0  0  0  0
   -1.3736   -3.1480    1.3171 O   0  0  0  0  0  0  0  0  0  0  0  0
   -2.2561   -1.1374    0.8308 N   0  0  0  0  0  0  0  0  0  0  0  0
   -3.1021   -0.5716    0.8944 H   0  0  0  0  0  0  0  0  0  0  0  0
   -0.9813   -0.4015    0.8229 C   0  0  1  0  0  0  0  0  0  0  0  0
   -0.2959   -0.9252    1.4988 H   0  0  0  0  0  0  0  0  0  0  0  0
   -0.3409   -0.4758   -0.5828 C   0  0  0  0  0  0  0  0  0  0  0  0
    0.7474   -0.4418   -0.4660 H   0  0  0  0  0  0  0  0  0  0  0  0
   -0.5754   -1.4553   -1.0144 H   0  0  0  0  0  0  0  0  0  0  0  0
   -0.7449    0.6520   -1.5561 C   0  0  0  0  0  0  0  0  0  0  0  0
   -1.6411    1.1647   -1.1967 H   0  0  0  0  0  0  0  0  0  0  0  0
    0.0614    1.3915   -1.6141 H   0  0  0  0  0  0  0  0  0  0  0  0
   -1.0732    0.0919   -2.9440 C   0  0  0  0  0  0  0  0  0  0  0  0
   -0.1930   -0.4205   -3.3479 H   0  0  0  0  0  0  0  0  0  0  0  0
   -1.8849   -0.6392   -2.8573 H   0  0  0  0  0  0  0  0  0  0  0  0
   -1.4943    1.2290   -3.8717 C   0  0  0  0  0  0  0  0  0  0  0  0
   -2.3609    1.7475   -3.4350 H   0  0  0  0  0  0  0  0  0  0  0  0
   -0.6782    1.9635   -3.9377 H   0  0  0  0  0  0  0  0  0  0  0  0
   -1.8208    0.6734   -5.2027 N   0  3  0  0  0  0  0  0  0  0  0  0
   -2.5843   -0.0008   -5.1209 H   0  0  0  0  0  0  0  0  0  0  0  0
   -2.1070    1.4233   -5.8360 H   0  0  0  0  0  0  0  0  0  0  0  0
   -1.0032    0.2020   -5.5943 H   0  0  0  0  0  0  0  0  0  0  0  0
   -1.1188    1.0144    1.4249 C   0  0  0  0  0  0  0  0  0  0  0  0
   -2.1237    1.6749    1.1864 O   0  0  0  0  0  0  0  0  0  0  0  0
   -0.1849    1.4997    2.3213 N   0  0  0  0  0  0  0  0  0  0  0  0
    0.5712    0.8782    2.5978 H   0  0  0  0  0  0  0  0  0  0  0  0
   -0.3563    2.7534    3.0495 C   0  0  0  0  0  0  0  0  0  0  0  0
   -1.2435    2.7070    3.6904 H   0  0  0  0  0  0  0  0  0  0  0  0
    0.5160    2.9476    3.6815 H   0  0  0  0  0  0  0  0  0  0  0  0
   -0.4691    3.5914    2.3534 H   0  0  0  0  0  0  0  0  0  0  0  0
  1  2  1  0  0  0  0
  2  3  1  0  0  0  0
  2  4  1  0  0  0  0
  2  5  1  0  0  0  0
  5  6  2  0  0  0  0
  5  7  1  0  0  0  0
  7  8  1  0  0  0  0
  7  9  1  0  0  0  0
  9 10  1  0  0  0  0
  9 11  1  0  0  0  0
  9 27  1  0  0  0  0
 11 12  1  0  0  0  0
 11 13  1  0  0  0  0
 11 14  1  0  0  0  0
 14 15  1  0  0  0  0
 14 16  1  0  0  0  0
 14 17  1  0  0  0  0
 17 18  1  0  0  0  0
 17 19  1  0  0  0  0
 17 20  1  0  0  0  0
 20 21  1  0  0  0  0
 20 22  1  0  0  0  0
 20 23  1  0  0  0  0
 23 24  1  0  0  0  0
 23 25  1  0  0  0  0
 23 26  1  0  0  0  0
 27 28  2  0  0  0  0
 27 29  1  0  0  0  0
 29 30  1  0  0  0  0
 29 31  1  0  0  0  0
 31 32  1  0  0  0  0
 31 33  1  0  0  0  0
 31 34  1  0  0  0  0
M  CHG  1  23   1
M  END
$$$$

  -OEChem-02102214153D

 34 33  0     1  0  0  0  0  0999 V2000
   -3.6353   -4.0657    1.8787 H   0  0  0  0  0  0  0  0  0  0  0  0
   -3.7405   -3.0278    1.5497 C   0  0  0  0  0  0  0  0  0  0  0  0
   -4.2125   -2.4536    2.3507 H   0  0  0  0  0  0  0  0  0  0  0  0
   -4.3811   -3.0025    0.6654 H   0  0  0  0  0  0  0  0  0  0  0  0
   -2.3788   -2.4439    1.2236 C   0  0  0  0  0  0  0  0  0  0  0  0
   -1.3811   -3.1432    1.2798 O   0  0  0  0  0  0  0  0  0  0  0  0
   -2.2638   -1.1231    0.8376 N   0  0  0  0  0  0  0  0  0  0  0  0
   -3.1037   -0.5537    0.9368 H   0  0  0  0  0  0  0  0  0  0  0  0
   -0.9860   -0.3916    0.8238 C   0  0  1  0  0  0  0  0  0  0  0  0
   -0.2987   -0.9207    1.4935 H   0  0  0  0  0  0  0  0  0  0  0  0
   -0.3518   -0.4656   -0.5858 C   0  0  0  0  0  0  0  0  0  0  0  0
    0.7345   -0.4181   -0.4550 H   0  0  0  0  0  0  0  0  0  0  0  0
   -0.5632   -1.4509   -1.0163 H   0  0  0  0  0  0  0  0  0  0  0  0
   -0.7403    0.6559   -1.5768 C   0  0  0  0  0  0  0  0  0  0  0  0
   -1.4212    1.3784   -1.1226 H   0  0  0  0  0  0  0  0  0  0  0  0
    0.1635    1.2026   -1.8685 H   0  0  0  0  0  0  0  0  0  0  0  0
   -1.4178    0.0745   -2.8224 C   0  0  0  0  0  0  0  0  0  0  0  0
   -0.7238   -0.6015   -3.3345 H   0  0  0  0  0  0  0  0  0  0  0  0
   -2.2965   -0.5050   -2.5173 H   0  0  0  0  0  0  0  0  0  0  0  0
   -1.8395    1.2049   -3.7579 C   0  0  0  0  0  0  0  0  0  0  0  0
   -2.5103    1.8889   -3.2167 H   0  0  0  0  0  0  0  0  0  0  0  0
   -0.9514    1.7854   -4.0476 H   0  0  0  0  0  0  0  0  0  0  0  0
   -2.5101    0.6264   -4.9421 N   0  3  0  0  0  0  0  0  0  0  0  0
   -3.3367    0.1008   -4.6512 H   0  0  0  0  0  0  0  0  0  0  0  0
   -2.7981    1.3704   -5.5815 H   0  0  0  0  0  0  0  0  0  0  0  0
   -1.8719   -0.0039   -5.4316 H   0  0  0  0  0  0  0  0  0  0  0  0
   -1.1210    1.0177    1.4408 C   0  0  0  0  0  0  0  0  0  0  0  0
   -2.1383    1.6694    1.2296 O   0  0  0  0  0  0  0  0  0  0  0  0
   -0.1808    1.4949    2.3346 N   0  0  0  0  0  0  0  0  0  0  0  0
    0.5874    0.8775    2.5862 H   0  0  0  0  0  0  0  0  0  0  0  0
   -0.3536    2.7336    3.0874 C   0  0  0  0  0  0  0  0  0  0  0  0
   -1.2342    2.6690    3.7356 H   0  0  0  0  0  0  0  0  0  0  0  0
    0.5236    2.9218    3.7146 H   0  0  0  0  0  0  0  0  0  0  0  0
   -0.4789    3.5838    2.4084 H   0  0  0  0  0  0  0  0  0  0  0  0
  1  2  1  0  0  0  0
  2  3  1  0  0  0  0
  2  4  1  0  0  0  0
  2  5  1  0  0  0  0
  5  6  2  0  0  0  0
  5  7  1  0  0  0  0
  7  8  1  0  0  0  0
  7  9  1  0  0  0  0
  9 10  1  0  0  0  0
  9 11  1  0  0  0  0
  9 27  1  0  0  0  0
 11 12  1  0  0  0  0
 11 13  1  0  0  0  0
 11 14  1  0  0  0  0
 14 15  1  0  0  0  0
 14 16  1  0  0  0  0
 14 17  1  0  0  0  0
 17 18  1  0  0  0  0
 17 19  1  0  0  0  0
 17 20  1  0  0  0  0
 20 21  1  0  0  0  0
 20 22  1  0  0  0  0
 20 23  1  0  0  0  0
 23 24  1  0  0  0  0
 23 25  1  0  0  0  0
 23 26  1  0  0  0  0
 27 28  2  0  0  0  0
 27 29  1  0  0  0  0
 29 30  1  0  0  0  0
 29 31  1  0  0  0  0
 31 32  1  0  0  0  0
 31 33  1  0  0  0  0
 31 34  1  0  0  0  0
M  CHG  1  23   1
M  END
$$$$

  -OEChem-02102214153D

 34 33  0     1  0  0  0  0  0999 V2000
   -3.6370   -4.0678    1.9017 H   0  0  0  0  0  0  0  0  0  0  0  0
   -3.7388   -3.0323    1.5640 C   0  0  0  0  0  0  0  0  0  0  0  0
   -4.2125   -2.4505    2.3585 H   0  0  0  0  0  0  0  0  0  0  0  0
   -4.3752   -3.0129    0.6765 H   0  0  0  0  0  0  0  0  0  0  0  0
   -2.3748   -2.4543    1.2391 C   0  0  0  0  0  0  0  0  0  0  0  0
   -1.3801   -3.1565    1.3055 O   0  0  0  0  0  0  0  0  0  0  0  0
   -2.2546   -1.1375    0.8405 N   0  0  0  0  0  0  0  0  0  0  0  0
   -3.0895   -0.5618    0.9444 H   0  0  0  0  0  0  0  0  0  0  0  0
   -0.9720   -0.4142    0.8304 C   0  0  1  0  0  0  0  0  0  0  0  0
   -0.2859   -0.9387    1.5052 H   0  0  0  0  0  0  0  0  0  0  0  0
   -0.3445   -0.4963   -0.5828 C   0  0  0  0  0  0  0  0  0  0  0  0
    0.7401   -0.4385   -0.4416 H   0  0  0  0  0  0  0  0  0  0  0  0
   -0.5428   -1.4828   -1.0169 H   0  0  0  0  0  0  0  0  0  0  0  0
   -0.7217    0.6237   -1.5783 C   0  0  0  0  0  0  0  0  0  0  0  0
   -1.1181    1.5097   -1.0789 H   0  0  0  0  0  0  0  0  0  0  0  0
    0.1895    0.9398   -2.0988 H   0  0  0  0  0  0  0  0  0  0  0  0
   -1.7223    0.1156   -2.6209 C   0  0  0  0  0  0  0  0  0  0  0  0
   -1.2672   -0.6902   -3.2077 H   0  0  0  0  0  0  0  0  0  0  0  0
   -2.6001   -0.2906   -2.1058 H   0  0  0  0  0  0  0  0  0  0  0  0
   -2.1424    1.2654   -3.5328 C   0  0  0  0  0  0  0  0  0  0  0  0
   -2.5607    2.0765   -2.9178 H   0  0  0  0  0  0  0  0  0  0  0  0
   -1.2540    1.6692   -4.0401 H   0  0  0  0  0  0  0  0  0  0  0  0
   -3.1366    0.7704   -4.5086 N   0  3  0  0  0  0  0  0  0  0  0  0
   -3.9591    0.4165   -4.0164 H   0  0  0  0  0  0  0  0  0  0  0  0
   -3.4236    1.5275   -5.1326 H   0  0  0  0  0  0  0  0  0  0  0  0
   -2.7327    0.0151   -5.0657 H   0  0  0  0  0  0  0  0  0  0  0  0
   -1.1241    0.9977    1.4360 C   0  0  0  0  0  0  0  0  0  0  0  0
   -2.1384    1.6439    1.1916 O   0  0  0  0  0  0  0  0  0  0  0  0
   -0.2021    1.4913    2.3395 N   0  0  0  0  0  0  0  0  0  0  0  0
    0.5714    0.8867    2.6053 H   0  0  0  0  0  0  0  0  0  0  0  0
   -0.3766    2.7540    3.0503 C   0  0  0  0  0  0  0  0  0  0  0  0
   -1.2667    2.7165    3.6875 H   0  0  0  0  0  0  0  0  0  0  0  0
    0.4929    2.9560    3.6837 H   0  0  0  0  0  0  0  0  0  0  0  0
   -0.4853    3.5826    2.3424 H   0  0  0  0  0  0  0  0  0  0  0  0
  1  2  1  0  0  0  0
  2  3  1  0  0  0  0
  2  4  1  0  0  0  0
  2  5  1  0  0  0  0
  5  6  2  0  0  0  0
  5  7  1  0  0  0  0
  7  8  1  0  0  0  0
  7  9  1  0  0  0  0
  9 10  1  0  0  0  0
  9 11  1  0  0  0  0
  9 27  1  0  0  0  0
 11 12  1  0  0  0  0
 11 13  1  0  0  0  0
 11 14  1  0  0  0  0
 14 15  1  0  0  0  0
 14 16  1  0  0  0  0
 14 17  1  0  0  0  0
 17 18  1  0  0  0  0
 17 19  1  0  0  0  0
 17 20  1  0  0  0  0
 20 21  1  0  0  0  0
 20 22  1  0  0  0  0
 20 23  1  0  0  0  0
 23 24  1  0  0  0  0
 23 25  1  0  0  0  0
 23 26  1  0  0  0  0
 27 28  2  0  0  0  0
 27 29  1  0  0  0  0
 29 30  1  0  0  0  0
 29 31  1  0  0  0  0
 31 32  1  0  0  0  0
 31 33  1  0  0  0  0
 31 34  1  0  0  0  0
M  CHG  1  23   1
M  END
$$$$

  -OEChem-02102214153D

 34 33  0     1  0  0  0  0  0999 V2000
   -3.6260   -4.0575    2.0154 H   0  0  0  0  0  0  0  0  0  0  0  0
   -3.7254   -3.0514    1.5972 C   0  0  0  0  0  0  0  0  0  0  0  0
   -4.2311   -2.4170    2.3292 H   0  0  0  0  0  0  0  0  0  0  0  0
   -4.3310   -3.1051    0.6897 H   0  0  0  0  0  0  0  0  0  0  0  0
   -2.3561   -2.4846    1.2755 C   0  0  0  0  0  0  0  0  0  0  0  0
   -1.3624   -3.1825    1.3838 O   0  0  0  0  0  0  0  0  0  0  0  0
   -2.2308   -1.1799    0.8406 N   0  0  0  0  0  0  0  0  0  0  0  0
   -3.0651   -0.6012    0.9253 H   0  0  0  0  0  0  0  0  0  0  0  0
   -0.9463   -0.4595    0.8273 C   0  0  1  0  0  0  0  0  0  0  0  0
   -0.2563   -0.9658    1.5119 H   0  0  0  0  0  0  0  0  0  0  0  0
   -0.3228   -0.5460   -0.5888 C   0  0  0  0  0  0  0  0  0  0  0  0
    0.7626   -0.4923   -0.4524 H   0  0  0  0  0  0  0  0  0  0  0  0
   -0.5300   -1.5286   -1.0272 H   0  0  0  0  0  0  0  0  0  0  0  0
   -0.7011    0.5756   -1.5792 C   0  0  0  0  0  0  0  0  0  0  0  0
   -0.8141    1.5422   -1.0819 H   0  0  0  0  0  0  0  0  0  0  0  0
    0.1269    0.6901   -2.2874 H   0  0  0  0  0  0  0  0  0  0  0  0
   -1.9578    0.2172   -2.3776 C   0  0  0  0  0  0  0  0  0  0  0  0
   -1.7633   -0.6600   -3.0047 H   0  0  0  0  0  0  0  0  0  0  0  0
   -2.7658   -0.0328   -1.6818 H   0  0  0  0  0  0  0  0  0  0  0  0
   -2.3715    1.4098   -3.2349 C   0  0  0  0  0  0  0  0  0  0  0  0
   -2.4910    2.2909   -2.5864 H   0  0  0  0  0  0  0  0  0  0  0  0
   -1.5685    1.6394   -3.9504 H   0  0  0  0  0  0  0  0  0  0  0  0
   -3.6362    1.0911   -3.9306 N   0  3  0  0  0  0  0  0  0  0  0  0
   -4.3712    0.9079   -3.2447 H   0  0  0  0  0  0  0  0  0  0  0  0
   -3.9209    1.8767   -4.5194 H   0  0  0  0  0  0  0  0  0  0  0  0
   -3.5138    0.2630   -4.5161 H   0  0  0  0  0  0  0  0  0  0  0  0
   -1.1309    0.9642    1.3947 C   0  0  0  0  0  0  0  0  0  0  0  0
   -2.1362    1.5994    1.0861 O   0  0  0  0  0  0  0  0  0  0  0  0
   -0.2367    1.4955    2.3041 N   0  0  0  0  0  0  0  0  0  0  0  0
    0.5305    0.9037    2.6148 H   0  0  0  0  0  0  0  0  0  0  0  0
   -0.4428    2.7777    2.9702 C   0  0  0  0  0  0  0  0  0  0  0  0
   -1.3755    2.7671    3.5447 H   0  0  0  0  0  0  0  0  0  0  0  0
    0.3828    2.9848    3.6583 H   0  0  0  0  0  0  0  0  0  0  0  0
   -0.4905    3.5898    2.2368 H   0  0  0  0  0  0  0  0  0  0  0  0
  1  2  1  0  0  0  0
  2  3  1  0  0  0  0
  2  4  1  0  0  0  0
  2  5  1  0  0  0  0
  5  6  2  0  0  0  0
  5  7  1  0  0  0  0
  7  8  1  0  0  0  0
  7  9  1  0  0  0  0
  9 10  1  0  0  0  0
  9 11  1  0  0  0  0
  9 27  1  0  0  0  0
 11 12  1  0  0  0  0
 11 13  1  0  0  0  0
 11 14  1  0  0  0  0
 14 15  1  0  0  0  0
 14 16  1  0  0  0  0
 14 17  1  0  0  0  0
 17 18  1  0  0  0  0
 17 19  1  0  0  0  0
 17 20  1  0  0  0  0
 20 21  1  0  0  0  0
 20 22  1  0  0  0  0
 20 23  1  0  0  0  0
 23 24  1  0  0  0  0
 23 25  1  0  0  0  0
 23 26  1  0  0  0  0
 27 28  2  0  0  0  0
 27 29  1  0  0  0  0
 29 30  1  0  0  0  0
 29 31  1  0  0  0  0
 31 32  1  0  0  0  0
 31 33  1  0  0  0  0
 31 34  1  0  0  0  0
M  CHG  1  23   1
M  END
$$$$

  -OEChem-02102214153D

 34 33  0     1  0  0  0  0  0999 V2000
   -3.5813   -4.1201    2.0497 H   0  0  0  0  0  0  0  0  0  0  0  0
   -3.6956   -3.1158    1.6311 C   0  0  0  0  0  0  0  0  0  0  0  0
   -4.2175   -2.4909    2.3598 H   0  0  0  0  0  0  0  0  0  0  0  0
   -4.2939   -3.1813    0.7196 H   0  0  0  0  0  0  0  0  0  0  0  0
   -2.3343   -2.5253    1.3180 C   0  0  0  0  0  0  0  0  0  0  0  0
   -1.3281   -3.1982    1.4604 O   0  0  0  0  0  0  0  0  0  0  0  0
   -2.2299   -1.2266    0.8588 N   0  0  0  0  0  0  0  0  0  0  0  0
   -3.0750   -0.6630    0.9271 H   0  0  0  0  0  0  0  0  0  0  0  0
   -0.9552   -0.4882    0.8341 C   0  0  1  0  0  0  0  0  0  0  0  0
   -0.2560   -0.9745    1.5239 H   0  0  0  0  0  0  0  0  0  0  0  0
   -0.3268   -0.5652   -0.5811 C   0  0  0  0  0  0  0  0  0  0  0  0
    0.7594   -0.5088   -0.4528 H   0  0  0  0  0  0  0  0  0  0  0  0
   -0.5385   -1.5450   -1.0234 H   0  0  0  0  0  0  0  0  0  0  0  0
   -0.7213    0.5510   -1.5695 C   0  0  0  0  0  0  0  0  0  0  0  0
   -0.6023    1.5352   -1.1056 H   0  0  0  0  0  0  0  0  0  0  0  0
   -0.0227    0.5177   -2.4130 H   0  0  0  0  0  0  0  0  0  0  0  0
   -2.1436    0.3787   -2.1153 C   0  0  0  0  0  0  0  0  0  0  0  0
   -2.2030   -0.5331   -2.7195 H   0  0  0  0  0  0  0  0  0  0  0  0
   -2.8461    0.2811   -1.2824 H   0  0  0  0  0  0  0  0  0  0  0  0
   -2.5156    1.6025   -2.9469 C   0  0  0  0  0  0  0  0  0  0  0  0
   -2.3219    2.5083   -2.3527 H   0  0  0  0  0  0  0  0  0  0  0  0
   -1.8688    1.6505   -3.8351 H   0  0  0  0  0  0  0  0  0  0  0  0
   -3.9429    1.5172   -3.3196 N   0  3  0  0  0  0  0  0  0  0  0  0
   -4.5189    1.5266   -2.4752 H   0  0  0  0  0  0  0  0  0  0  0  0
   -4.2013    2.3135   -3.9057 H   0  0  0  0  0  0  0  0  0  0  0  0
   -4.1190    0.6525   -3.8338 H   0  0  0  0  0  0  0  0  0  0  0  0
   -1.1578    0.9437    1.3750 C   0  0  0  0  0  0  0  0  0  0  0  0
   -2.1556    1.5757    1.0329 O   0  0  0  0  0  0  0  0  0  0  0  0
   -0.2691    1.4993    2.2750 N   0  0  0  0  0  0  0  0  0  0  0  0
    0.4981    0.9167    2.6033 H   0  0  0  0  0  0  0  0  0  0  0  0
   -0.4767    2.7986    2.9062 C   0  0  0  0  0  0  0  0  0  0  0  0
   -1.4103    2.8033    3.4792 H   0  0  0  0  0  0  0  0  0  0  0  0
    0.3478    3.0242    3.5900 H   0  0  0  0  0  0  0  0  0  0  0  0
   -0.5234    3.5902    2.1510 H   0  0  0  0  0  0  0  0  0  0  0  0
  1  2  1  0  0  0  0
  2  3  1  0  0  0  0
  2  4  1  0  0  0  0
  2  5  1  0  0  0  0
  5  6  2  0  0  0  0
  5  7  1  0  0  0  0
  7  8  1  0  0  0  0
  7  9  1  0  0  0  0
  9 10  1  0  0  0  0
  9 11  1  0  0  0  0
  9 27  1  0  0  0  0
 11 12  1  0  0  0  0
 11 13  1  0  0  0  0
 11 14  1  0  0  0  0
 14 15  1  0  0  0  0
 14 16  1  0  0  0  0
 14 17  1  0  0  0  0
 17 18  1  0  0  0  0
 17 19  1  0  0  0  0
 17 20  1  0  0  0  0
 20 21  1  0  0  0  0
 20 22  1  0  0  0  0
 20 23  1  0  0  0  0
 23 24  1  0  0  0  0
 23 25  1  0  0  0  0
 23 26  1  0  0  0  0
 27 28  2  0  0  0  0
 27 29  1  0  0  0  0
 29 30  1  0  0  0  0
 29 31  1  0  0  0  0
 31 32  1  0  0  0  0
 31 33  1  0  0  0  0
 31 34  1  0  0  0  0
M  CHG  1  23   1
M  END
$$$$

  -OEChem-02102214153D

 34 33  0     1  0  0  0  0  0999 V2000
   -3.3345   -4.3952    1.9494 H   0  0  0  0  0  0  0  0  0  0  0  0
   -3.5472   -3.4173    1.5076 C   0  0  0  0  0  0  0  0  0  0  0  0
   -4.2301   -2.8768    2.1674 H   0  0  0  0  0  0  0  0  0  0  0  0
   -4.0282   -3.5684    0.5384 H   0  0  0  0  0  0  0  0  0  0  0  0
   -2.2598   -2.6342    1.3343 C   0  0  0  0  0  0  0  0  0  0  0  0
   -1.1935   -3.1298    1.6546 O   0  0  0  0  0  0  0  0  0  0  0  0
   -2.2897   -1.3540    0.8128 N   0  0  0  0  0  0  0  0  0  0  0  0
   -3.2113   -0.9416    0.6939 H   0  0  0  0  0  0  0  0  0  0  0  0
   -1.1238   -0.4510    0.8070 C   0  0  1  0  0  0  0  0  0  0  0  0
   -0.4214   -0.8163    1.5652 H   0  0  0  0  0  0  0  0  0  0  0  0
   -0.3757   -0.5401   -0.5497 C   0  0  0  0  0  0  0  0  0  0  0  0
    0.6845   -0.3450   -0.3553 H   0  0  0  0  0  0  0  0  0  0  0  0
   -0.4411   -1.5689   -0.9211 H   0  0  0  0  0  0  0  0  0  0  0  0
   -0.8183    0.4252   -1.6713 C   0  0  0  0  0  0  0  0  0  0  0  0
   -0.6281    1.4493   -1.3364 H   0  0  0  0  0  0  0  0  0  0  0  0
   -0.1819    0.2581   -2.5477 H   0  0  0  0  0  0  0  0  0  0  0  0
   -2.2935    0.2663   -2.0967 C   0  0  0  0  0  0  0  0  0  0  0  0
   -2.3632   -0.5857   -2.7821 H   0  0  0  0  0  0  0  0  0  0  0  0
   -2.9391    0.0380   -1.2473 H   0  0  0  0  0  0  0  0  0  0  0  0
   -2.8284    1.5181   -2.7927 C   0  0  0  0  0  0  0  0  0  0  0  0
   -2.1339    1.8229   -3.5887 H   0  0  0  0  0  0  0  0  0  0  0  0
   -3.7847    1.2710   -3.2758 H   0  0  0  0  0  0  0  0  0  0  0  0
   -3.0136    2.5904   -1.7880 N   0  3  0  0  0  0  0  0  0  0  0  0
   -2.9095    2.1996   -0.8366 H   0  0  0  0  0  0  0  0  0  0  0  0
   -2.3131    3.3206   -1.9114 H   0  0  0  0  0  0  0  0  0  0  0  0
   -3.9437    3.0010   -1.8683 H   0  0  0  0  0  0  0  0  0  0  0  0
   -1.4639    0.9907    1.2487 C   0  0  0  0  0  0  0  0  0  0  0  0
   -2.4271    1.5826    0.7583 O   0  0  0  0  0  0  0  0  0  0  0  0
   -0.6501    1.6608    2.1411 N   0  0  0  0  0  0  0  0  0  0  0  0
    0.0933    1.1236    2.5851 H   0  0  0  0  0  0  0  0  0  0  0  0
   -0.9551    2.9831    2.6793 C   0  0  0  0  0  0  0  0  0  0  0  0
   -1.9065    2.9676    3.2221 H   0  0  0  0  0  0  0  0  0  0  0  0
   -0.1693    3.2990    3.3732 H   0  0  0  0  0  0  0  0  0  0  0  0
   -1.0185    3.7236    1.8754 H   0  0  0  0  0  0  0  0  0  0  0  0
  1  2  1  0  0  0  0
  2  3  1  0  0  0  0
  2  4  1  0  0  0  0
  2  5  1  0  0  0  0
  5  6  2  0  0  0  0
  5  7  1  0  0  0  0
  7  8  1  0  0  0  0
  7  9  1  0  0  0  0
  9 10  1  0  0  0  0
  9 11  1  0  0  0  0
  9 27  1  0  0  0  0
 11 12  1  0  0  0  0
 11 13  1  0  0  0  0
 11 14  1  0  0  0  0
 14 15  1  0  0  0  0
 14 16  1  0  0  0  0
 14 17  1  0  0  0  0
 17 18  1  0  0  0  0
 17 19  1  0  0  0  0
 17 20  1  0  0  0  0
 20 21  1  0  0  0  0
 20 22  1  0  0  0  0
 20 23  1  0  0  0  0
 23 24  1  0  0  0  0
 23 25  1  0  0  0  0
 23 26  1  0  0  0  0
 27 28  2  0  0  0  0
 27 29  1  0  0  0  0
 29 30  1  0  0  0  0
 29 31  1  0  0  0  0
 31 32  1  0  0  0  0
 31 33  1  0  0  0  0
 31 34  1  0  0  0  0
M  CHG  1  23   1
M  END
$$$$

  -OEChem-02102214153D

 34 33  0     1  0  0  0  0  0999 V2000
   -3.1937   -4.4567    1.9687 H   0  0  0  0  0  0  0  0  0  0  0  0
   -3.4631   -3.4791    1.5582 C   0  0  0  0  0  0  0  0  0  0  0  0
   -4.1485   -2.9858    2.2514 H   0  0  0  0  0  0  0  0  0  0  0  0
   -3.9666   -3.6285    0.6001 H   0  0  0  0  0  0  0  0  0  0  0  0
   -2.2179   -2.6346    1.3660 C   0  0  0  0  0  0  0  0  0  0  0  0
   -1.1189   -3.0973    1.6185 O   0  0  0  0  0  0  0  0  0  0  0  0
   -2.3223   -1.3374    0.8977 N   0  0  0  0  0  0  0  0  0  0  0  0
   -3.2649   -0.9653    0.8146 H   0  0  0  0  0  0  0  0  0  0  0  0
   -1.1941   -0.3884    0.8499 C   0  0  1  0  0  0  0  0  0  0  0  0
   -0.4649   -0.7575    1.5802 H   0  0  0  0  0  0  0  0  0  0  0  0
   -0.4562   -0.4607   -0.5122 C   0  0  0  0  0  0  0  0  0  0  0  0
    0.6004   -0.2348   -0.3323 H   0  0  0  0  0  0  0  0  0  0  0  0
   -0.4952   -1.4991   -0.8602 H   0  0  0  0  0  0  0  0  0  0  0  0
   -0.9285    0.4512   -1.6702 C   0  0  0  0  0  0  0  0  0  0  0  0
   -0.5640    1.4584   -1.4468 H   0  0  0  0  0  0  0  0  0  0  0  0
   -0.4363    0.1344   -2.5966 H   0  0  0  0  0  0  0  0  0  0  0  0
   -2.4565    0.5118   -1.9036 C   0  0  0  0  0  0  0  0  0  0  0  0
   -2.7166   -0.3006   -2.5911 H   0  0  0  0  0  0  0  0  0  0  0  0
   -3.0275    0.3246   -0.9954 H   0  0  0  0  0  0  0  0  0  0  0  0
   -2.9164    1.8357   -2.5184 C   0  0  0  0  0  0  0  0  0  0  0  0
   -2.2950    2.0749   -3.3933 H   0  0  0  0  0  0  0  0  0  0  0  0
   -3.9480    1.7118   -2.8788 H   0  0  0  0  0  0  0  0  0  0  0  0
   -2.8528    2.9017   -1.4944 N   0  3  0  0  0  0  0  0  0  0  0  0
   -2.9066    2.4800   -0.5520 H   0  0  0  0  0  0  0  0  0  0  0  0
   -1.9733    3.4115   -1.5644 H   0  0  0  0  0  0  0  0  0  0  0  0
   -3.6294    3.5537   -1.6047 H   0  0  0  0  0  0  0  0  0  0  0  0
   -1.4876    1.0447    1.3533 C   0  0  0  0  0  0  0  0  0  0  0  0
   -2.4743    1.6709    0.9692 O   0  0  0  0  0  0  0  0  0  0  0  0
   -0.5944    1.6790    2.1955 N   0  0  0  0  0  0  0  0  0  0  0  0
    0.1698    1.1165    2.5671 H   0  0  0  0  0  0  0  0  0  0  0  0
   -0.8446    2.9803    2.8087 C   0  0  0  0  0  0  0  0  0  0  0  0
   -1.7698    2.9590    3.3950 H   0  0  0  0  0  0  0  0  0  0  0  0
   -0.0207    3.2461    3.4789 H   0  0  0  0  0  0  0  0  0  0  0  0
   -0.9281    3.7591    2.0439 H   0  0  0  0  0  0  0  0  0  0  0  0
  1  2  1  0  0  0  0
  2  3  1  0  0  0  0
  2  4  1  0  0  0  0
  2  5  1  0  0  0  0
  5  6  2  0  0  0  0
  5  7  1  0  0  0  0
  7  8  1  0  0  0  0
  7  9  1  0  0  0  0
  9 10  1  0  0  0  0
  9 11  1  0  0  0  0
  9 27  1  0  0  0  0
 11 12  1  0  0  0  0
 11 13  1  0  0  0  0
 11 14  1  0  0  0  0
 14 15  1  0  0  0  0
 14 16  1  0  0  0  0
 14 17  1  0  0  0  0
 17 18  1  0  0  0  0
 17 19  1  0  0  0  0
 17 20  1  0  0  0  0
 20 21  1  0  0  0  0
 20 22  1  0  0  0  0
 20 23  1  0  0  0  0
 23 24  1  0  0  0  0
 23 25  1  0  0  0  0
 23 26  1  0  0  0  0
 27 28  2  0  0  0  0
 27 29  1  0  0  0  0
 29 30  1  0  0  0  0
 29 31  1  0  0  0  0
 31 32  1  0  0  0  0
 31 33  1  0  0  0  0
 31 34  1  0  0  0  0
M  CHG  1  23   1
M  END
$$$$

  -OEChem-02102214153D

 34 33  0     1  0  0  0  0  0999 V2000
   -3.3623   -4.2335    2.1278 H   0  0  0  0  0  0  0  0  0  0  0  0
   -3.5789   -3.2469    1.7078 C   0  0  0  0  0  0  0  0  0  0  0  0
   -4.1924   -2.6906    2.4204 H   0  0  0  0  0  0  0  0  0  0  0  0
   -4.1372   -3.3775    0.7778 H   0  0  0  0  0  0  0  0  0  0  0  0
   -2.2859   -2.5011    1.4385 C   0  0  0  0  0  0  0  0  0  0  0  0
   -1.2133   -3.0338    1.6651 O   0  0  0  0  0  0  0  0  0  0  0  0
   -2.3175   -1.2141    0.9330 N   0  0  0  0  0  0  0  0  0  0  0  0
   -3.2316   -0.7710    0.8992 H   0  0  0  0  0  0  0  0  0  0  0  0
   -1.1289   -0.3454    0.8404 C   0  0  1  0  0  0  0  0  0  0  0  0
   -0.4187   -0.7304    1.5814 H   0  0  0  0  0  0  0  0  0  0  0  0
   -0.4028   -0.5244   -0.5210 C   0  0  0  0  0  0  0  0  0  0  0  0
    0.6684   -0.3811   -0.3416 H   0  0  0  0  0  0  0  0  0  0  0  0
   -0.5230   -1.5743   -0.8115 H   0  0  0  0  0  0  0  0  0  0  0  0
   -0.7686    0.3390   -1.7573 C   0  0  0  0  0  0  0  0  0  0  0  0
   -0.0966    1.2038   -1.7601 H   0  0  0  0  0  0  0  0  0  0  0  0
   -0.5207   -0.2411   -2.6538 H   0  0  0  0  0  0  0  0  0  0  0  0
   -2.2238    0.8358   -1.8862 C   0  0  0  0  0  0  0  0  0  0  0  0
   -2.8416    0.4134   -1.0919 H   0  0  0  0  0  0  0  0  0  0  0  0
   -2.6439    0.4616   -2.8262 H   0  0  0  0  0  0  0  0  0  0  0  0
   -2.2955    2.3685   -1.8993 C   0  0  0  0  0  0  0  0  0  0  0  0
   -1.4072    2.7762   -1.3961 H   0  0  0  0  0  0  0  0  0  0  0  0
   -2.2756    2.7285   -2.9380 H   0  0  0  0  0  0  0  0  0  0  0  0
   -3.5117    2.8040   -1.1858 N   0  3  0  0  0  0  0  0  0  0  0  0
   -3.4292    2.5062   -0.1990 H   0  0  0  0  0  0  0  0  0  0  0  0
   -3.6018    3.8195   -1.2148 H   0  0  0  0  0  0  0  0  0  0  0  0
   -4.3410    2.3749   -1.5941 H   0  0  0  0  0  0  0  0  0  0  0  0
   -1.3670    1.1054    1.3166 C   0  0  0  0  0  0  0  0  0  0  0  0
   -2.4332    1.6765    1.0845 O   0  0  0  0  0  0  0  0  0  0  0  0
   -0.4476    1.7289    2.1379 N   0  0  0  0  0  0  0  0  0  0  0  0
    0.3598    1.1811    2.4312 H   0  0  0  0  0  0  0  0  0  0  0  0
   -0.6914    3.0020    2.8096 C   0  0  0  0  0  0  0  0  0  0  0  0
   -1.5607    2.9276    3.4720 H   0  0  0  0  0  0  0  0  0  0  0  0
    0.1776    3.2830    3.4137 H   0  0  0  0  0  0  0  0  0  0  0  0
   -0.8710    3.7973    2.0789 H   0  0  0  0  0  0  0  0  0  0  0  0
  1  2  1  0  0  0  0
  2  3  1  0  0  0  0
  2  4  1  0  0  0  0
  2  5  1  0  0  0  0
  5  6  2  0  0  0  0
  5  7  1  0  0  0  0
  7  8  1  0  0  0  0
  7  9  1  0  0  0  0
  9 10  1  0  0  0  0
  9 11  1  0  0  0  0
  9 27  1  0  0  0  0
 11 12  1  0  0  0  0
 11 13  1  0  0  0  0
 11 14  1  0  0  0  0
 14 15  1  0  0  0  0
 14 16  1  0  0  0  0
 14 17  1  0  0  0  0
 17 18  1  0  0  0  0
 17 19  1  0  0  0  0
 17 20  1  0  0  0  0
 20 21  1  0  0  0  0
 20 22  1  0  0  0  0
 20 23  1  0  0  0  0
 23 24  1  0  0  0  0
 23 25  1  0  0  0  0
 23 26  1  0  0  0  0
 27 28  2  0  0  0  0
 27 29  1  0  0  0  0
 29 30  1  0  0  0  0
 29 31  1  0  0  0  0
 31 32  1  0  0  0  0
 31 33  1  0  0  0  0
 31 34  1  0  0  0  0
M  CHG  1  23   1
M  END
$$$$

  -OEChem-02102214153D

 34 33  0     1  0  0  0  0  0999 V2000
   -3.6455   -4.2008    1.6797 H   0  0  0  0  0  0  0  0  0  0  0  0
   -3.7741   -3.1712    1.3325 C   0  0  0  0  0  0  0  0  0  0  0  0
   -4.4408   -2.6502    2.0237 H   0  0  0  0  0  0  0  0  0  0  0  0
   -4.2293   -3.1909    0.3395 H   0  0  0  0  0  0  0  0  0  0  0  0
   -2.4303   -2.4698    1.2754 C   0  0  0  0  0  0  0  0  0  0  0  0
   -1.4134   -3.0718    1.5739 O   0  0  0  0  0  0  0  0  0  0  0  0
   -2.3525   -1.1459    0.8832 N   0  0  0  0  0  0  0  0  0  0  0  0
   -3.2358   -0.6589    0.7605 H   0  0  0  0  0  0  0  0  0  0  0  0
   -1.1239   -0.3354    0.9657 C   0  0  1  0  0  0  0  0  0  0  0  0
   -0.5105   -0.8098    1.7404 H   0  0  0  0  0  0  0  0  0  0  0  0
   -0.2787   -0.4936   -0.3320 C   0  0  0  0  0  0  0  0  0  0  0  0
    0.7730   -0.4077   -0.0384 H   0  0  0  0  0  0  0  0  0  0  0  0
   -0.4087   -1.5256   -0.6777 H   0  0  0  0  0  0  0  0  0  0  0  0
   -0.4682    0.4350   -1.5635 C   0  0  0  0  0  0  0  0  0  0  0  0
    0.4095    1.0918   -1.6479 H   0  0  0  0  0  0  0  0  0  0  0  0
   -0.4205   -0.2240   -2.4427 H   0  0  0  0  0  0  0  0  0  0  0  0
   -1.7718    1.2801   -1.5767 C   0  0  0  0  0  0  0  0  0  0  0  0
   -1.1981    1.9594   -0.9396 H   0  0  0  0  0  0  0  0  0  0  0  0
   -1.8142    1.0736   -2.6510 H   0  0  0  0  0  0  0  0  0  0  0  0
   -2.4078    2.6042   -2.0223 C   0  0  0  0  0  0  0  0  0  0  0  0
   -1.6255    3.3660   -2.1606 H   0  0  0  0  0  0  0  0  0  0  0  0
   -2.9148    2.4867   -2.9927 H   0  0  0  0  0  0  0  0  0  0  0  0
   -3.3793    3.0011   -0.9778 N   0  3  0  0  0  0  0  0  0  0  0  0
   -3.0305    2.6974   -0.0527 H   0  0  0  0  0  0  0  0  0  0  0  0
   -3.5081    4.0129   -0.9664 H   0  0  0  0  0  0  0  0  0  0  0  0
   -4.2778    2.5476   -1.1397 H   0  0  0  0  0  0  0  0  0  0  0  0
   -1.3383    1.0830    1.5436 C   0  0  0  0  0  0  0  0  0  0  0  0
   -2.3555    1.7261    1.2764 O   0  0  0  0  0  0  0  0  0  0  0  0
   -0.4667    1.5877    2.4896 N   0  0  0  0  0  0  0  0  0  0  0  0
    0.2945    0.9813    2.7910 H   0  0  0  0  0  0  0  0  0  0  0  0
   -0.7051    2.8152    3.2429 C   0  0  0  0  0  0  0  0  0  0  0  0
   -1.6371    2.7427    3.8138 H   0  0  0  0  0  0  0  0  0  0  0  0
    0.1152    2.9914    3.9463 H   0  0  0  0  0  0  0  0  0  0  0  0
   -0.7688    3.6758    2.5693 H   0  0  0  0  0  0  0  0  0  0  0  0
  1  2  1  0  0  0  0
  2  3  1  0  0  0  0
  2  4  1  0  0  0  0
  2  5  1  0  0  0  0
  5  6  2  0  0  0  0
  5  7  1  0  0  0  0
  7  8  1  0  0  0  0
  7  9  1  0  0  0  0
  9 10  1  0  0  0  0
  9 11  1  0  0  0  0
  9 27  1  0  0  0  0
 11 12  1  0  0  0  0
 11 13  1  0  0  0  0
 11 14  1  0  0  0  0
 14 15  1  0  0  0  0
 14 16  1  0  0  0  0
 14 17  1  0  0  0  0
 17 18  1  0  0  0  0
 17 19  1  0  0  0  0
 17 20  1  0  0  0  0
 20 21  1  0  0  0  0
 20 22  1  0  0  0  0
 20 23  1  0  0  0  0
 23 24  1  0  0  0  0
 23 25  1  0  0  0  0
 23 26  1  0  0  0  0
 27 28  2  0  0  0  0
 27 29  1  0  0  0  0
 29 30  1  0  0  0  0
 29 31  1  0  0  0  0
 31 32  1  0  0  0  0
 31 33  1  0  0  0  0
 31 34  1  0  0  0  0
M  CHG  1  23   1
M  END
$$$$

  -OEChem-02102214153D

 34 33  0     1  0  0  0  0  0999 V2000
   -3.5278   -4.2327    1.6872 H   0  0  0  0  0  0  0  0  0  0  0  0
   -3.6796   -3.1646    1.5054 C   0  0  0  0  0  0  0  0  0  0  0  0
   -4.1468   -2.7223    2.3885 H   0  0  0  0  0  0  0  0  0  0  0  0
   -4.3467   -3.0459    0.6485 H   0  0  0  0  0  0  0  0  0  0  0  0
   -2.3501   -2.4898    1.2275 C   0  0  0  0  0  0  0  0  0  0  0  0
   -1.3269   -3.1514    1.1772 O   0  0  0  0  0  0  0  0  0  0  0  0
   -2.2932   -1.1234    1.0280 N   0  0  0  0  0  0  0  0  0  0  0  0
   -3.1453   -0.6063    1.2360 H   0  0  0  0  0  0  0  0  0  0  0  0
   -1.0376   -0.3533    1.0112 C   0  0  1  0  0  0  0  0  0  0  0  0
   -0.3223   -0.9460    1.5932 H   0  0  0  0  0  0  0  0  0  0  0  0
   -0.4286   -0.3317   -0.4217 C   0  0  0  0  0  0  0  0  0  0  0  0
    0.6569   -0.2826   -0.2839 H   0  0  0  0  0  0  0  0  0  0  0  0
   -0.6264   -1.3064   -0.8821 H   0  0  0  0  0  0  0  0  0  0  0  0
   -0.7742    0.7627   -1.4702 C   0  0  0  0  0  0  0  0  0  0  0  0
    0.1598    1.2357   -1.7941 H   0  0  0  0  0  0  0  0  0  0  0  0
   -1.1878    0.2467   -2.3440 H   0  0  0  0  0  0  0  0  0  0  0  0
   -1.7582    1.8610   -1.0637 C   0  0  0  0  0  0  0  0  0  0  0  0
   -2.6514    1.3995   -0.6300 H   0  0  0  0  0  0  0  0  0  0  0  0
   -1.2842    2.5094   -0.3212 H   0  0  0  0  0  0  0  0  0  0  0  0
   -2.1744    2.7172   -2.2527 C   0  0  0  0  0  0  0  0  0  0  0  0
   -1.2834    3.1739   -2.7080 H   0  0  0  0  0  0  0  0  0  0  0  0
   -2.6447    2.0817   -3.0173 H   0  0  0  0  0  0  0  0  0  0  0  0
   -3.1131    3.7440   -1.7510 N   0  3  0  0  0  0  0  0  0  0  0  0
   -2.6516    4.3191   -1.0429 H   0  0  0  0  0  0  0  0  0  0  0  0
   -3.4289    4.3433   -2.5159 H   0  0  0  0  0  0  0  0  0  0  0  0
   -3.9237    3.2919   -1.3226 H   0  0  0  0  0  0  0  0  0  0  0  0
   -1.1118    0.9579    1.8263 C   0  0  0  0  0  0  0  0  0  0  0  0
   -2.1563    1.6041    1.8603 O   0  0  0  0  0  0  0  0  0  0  0  0
   -0.0813    1.3118    2.6776 N   0  0  0  0  0  0  0  0  0  0  0  0
    0.7032    0.6677    2.7525 H   0  0  0  0  0  0  0  0  0  0  0  0
   -0.1867    2.3856    3.6607 C   0  0  0  0  0  0  0  0  0  0  0  0
   -0.9638    2.1569    4.3980 H   0  0  0  0  0  0  0  0  0  0  0  0
    0.7639    2.5103    4.1889 H   0  0  0  0  0  0  0  0  0  0  0  0
   -0.4335    3.3335    3.1716 H   0  0  0  0  0  0  0  0  0  0  0  0
  1  2  1  0  0  0  0
  2  3  1  0  0  0  0
  2  4  1  0  0  0  0
  2  5  1  0  0  0  0
  5  6  2  0  0  0  0
  5  7  1  0  0  0  0
  7  8  1  0  0  0  0
  7  9  1  0  0  0  0
  9 10  1  0  0  0  0
  9 11  1  0  0  0  0
  9 27  1  0  0  0  0
 11 12  1  0  0  0  0
 11 13  1  0  0  0  0
 11 14  1  0  0  0  0
 14 15  1  0  0  0  0
 14 16  1  0  0  0  0
 14 17  1  0  0  0  0
 17 18  1  0  0  0  0
 17 19  1  0  0  0  0
 17 20  1  0  0  0  0
 20 21  1  0  0  0  0
 20 22  1  0  0  0  0
 20 23  1  0  0  0  0
 23 24  1  0  0  0  0
 23 25  1  0  0  0  0
 23 26  1  0  0  0  0
 27 28  2  0  0  0  0
 27 29  1  0  0  0  0
 29 30  1  0  0  0  0
 29 31  1  0  0  0  0
 31 32  1  0  0  0  0
 31 33  1  0  0  0  0
 31 34  1  0  0  0  0
M  CHG  1  23   1
M  END
$$$$

  -OEChem-02102214153D

 34 33  0     1  0  0  0  0  0999 V2000
   -3.0734   -4.2321    2.2486 H   0  0  0  0  0  0  0  0  0  0  0  0
   -3.3754   -3.2419    1.8948 C   0  0  0  0  0  0  0  0  0  0  0  0
   -3.9436   -2.7468    2.6860 H   0  0  0  0  0  0  0  0  0  0  0  0
   -4.0137   -3.3631    1.0164 H   0  0  0  0  0  0  0  0  0  0  0  0
   -2.1508   -2.4204    1.5389 C   0  0  0  0  0  0  0  0  0  0  0  0
   -1.0379   -2.9120    1.6216 O   0  0  0  0  0  0  0  0  0  0  0  0
   -2.2876   -1.1088    1.1216 N   0  0  0  0  0  0  0  0  0  0  0  0
   -3.2282   -0.7201    1.1381 H   0  0  0  0  0  0  0  0  0  0  0  0
   -1.1623   -0.1961    0.8554 C   0  0  1  0  0  0  0  0  0  0  0  0
   -0.3469   -0.5862    1.4752 H   0  0  0  0  0  0  0  0  0  0  0  0
   -0.6223   -0.4023   -0.5913 C   0  0  0  0  0  0  0  0  0  0  0  0
    0.4433   -0.1549   -0.5349 H   0  0  0  0  0  0  0  0  0  0  0  0
   -0.6671   -1.4731   -0.8206 H   0  0  0  0  0  0  0  0  0  0  0  0
   -1.1546    0.3651   -1.8364 C   0  0  0  0  0  0  0  0  0  0  0  0
   -0.3047    0.5992   -2.4873 H   0  0  0  0  0  0  0  0  0  0  0  0
   -1.7728   -0.3530   -2.3875 H   0  0  0  0  0  0  0  0  0  0  0  0
   -2.0167    1.6218   -1.6786 C   0  0  0  0  0  0  0  0  0  0  0  0
   -2.4923    1.8395   -2.6414 H   0  0  0  0  0  0  0  0  0  0  0  0
   -2.8273    1.4038   -0.9784 H   0  0  0  0  0  0  0  0  0  0  0  0
   -1.2070    2.8527   -1.2674 C   0  0  0  0  0  0  0  0  0  0  0  0
   -0.3897    2.5493   -0.5985 H   0  0  0  0  0  0  0  0  0  0  0  0
   -0.7476    3.3088   -2.1563 H   0  0  0  0  0  0  0  0  0  0  0  0
   -2.1239    3.7823   -0.5766 N   0  3  0  0  0  0  0  0  0  0  0  0
   -1.6370    4.6361   -0.3053 H   0  0  0  0  0  0  0  0  0  0  0  0
   -2.9142    4.0164   -1.1773 H   0  0  0  0  0  0  0  0  0  0  0  0
   -2.4811    3.3151    0.2741 H   0  0  0  0  0  0  0  0  0  0  0  0
   -1.3071    1.2273    1.4353 C   0  0  0  0  0  0  0  0  0  0  0  0
   -2.3680    1.8470    1.3947 O   0  0  0  0  0  0  0  0  0  0  0  0
   -0.2363    1.8131    2.0859 N   0  0  0  0  0  0  0  0  0  0  0  0
    0.5693    1.2104    2.2523 H   0  0  0  0  0  0  0  0  0  0  0  0
   -0.3621    3.0025    2.9246 C   0  0  0  0  0  0  0  0  0  0  0  0
   -1.0776    2.8276    3.7358 H   0  0  0  0  0  0  0  0  0  0  0  0
    0.6064    3.2530    3.3698 H   0  0  0  0  0  0  0  0  0  0  0  0
   -0.6997    3.8614    2.3366 H   0  0  0  0  0  0  0  0  0  0  0  0
  1  2  1  0  0  0  0
  2  3  1  0  0  0  0
  2  4  1  0  0  0  0
  2  5  1  0  0  0  0
  5  6  2  0  0  0  0
  5  7  1  0  0  0  0
  7  8  1  0  0  0  0
  7  9  1  0  0  0  0
  9 10  1  0  0  0  0
  9 11  1  0  0  0  0
  9 27  1  0  0  0  0
 11 12  1  0  0  0  0
 11 13  1  0  0  0  0
 11 14  1  0  0  0  0
 14 15  1  0  0  0  0
 14 16  1  0  0  0  0
 14 17  1  0  0  0  0
 17 18  1  0  0  0  0
 17 19  1  0  0  0  0
 17 20  1  0  0  0  0
 20 21  1  0  0  0  0
 20 22  1  0  0  0  0
 20 23  1  0  0  0  0
 23 24  1  0  0  0  0
 23 25  1  0  0  0  0
 23 26  1  0  0  0  0
 27 28  2  0  0  0  0
 27 29  1  0  0  0  0
 29 30  1  0  0  0  0
 29 31  1  0  0  0  0
 31 32  1  0  0  0  0
 31 33  1  0  0  0  0
 31 34  1  0  0  0  0
M  CHG  1  23   1
M  END
$$$$

  -OEChem-02102214153D

 34 33  0     1  0  0  0  0  0999 V2000
   -4.0359   -3.6635    1.5305 H   0  0  0  0  0  0  0  0  0  0  0  0
   -4.0287   -2.6039    1.2583 C   0  0  0  0  0  0  0  0  0  0  0  0
   -4.5701   -2.0428    2.0237 H   0  0  0  0  0  0  0  0  0  0  0  0
   -4.5374   -2.4860    0.2987 H   0  0  0  0  0  0  0  0  0  0  0  0
   -2.6006   -2.1029    1.1557 C   0  0  0  0  0  0  0  0  0  0  0  0
   -1.6697   -2.8652    1.3506 O   0  0  0  0  0  0  0  0  0  0  0  0
   -2.3475   -0.7794    0.8416 N   0  0  0  0  0  0  0  0  0  0  0  0
   -3.1555   -0.1619    0.8491 H   0  0  0  0  0  0  0  0  0  0  0  0
   -1.0138   -0.1582    0.9419 C   0  0  1  0  0  0  0  0  0  0  0  0
   -0.4818   -0.7552    1.6918 H   0  0  0  0  0  0  0  0  0  0  0  0
   -0.1922   -0.4081   -0.3572 C   0  0  0  0  0  0  0  0  0  0  0  0
    0.8525   -0.4280   -0.0285 H   0  0  0  0  0  0  0  0  0  0  0  0
   -0.4139   -1.4211   -0.7118 H   0  0  0  0  0  0  0  0  0  0  0  0
   -0.2063    0.5329   -1.5944 C   0  0  0  0  0  0  0  0  0  0  0  0
    0.7631    0.4094   -2.0911 H   0  0  0  0  0  0  0  0  0  0  0  0
   -0.9564    0.1474   -2.2941 H   0  0  0  0  0  0  0  0  0  0  0  0
   -0.4447    2.0394   -1.4197 C   0  0  0  0  0  0  0  0  0  0  0  0
    0.0815    2.5763   -2.2167 H   0  0  0  0  0  0  0  0  0  0  0  0
   -0.0137    2.3845   -0.4771 H   0  0  0  0  0  0  0  0  0  0  0  0
   -1.9379    2.3570   -1.5410 C   0  0  0  0  0  0  0  0  0  0  0  0
   -2.2144    2.4181   -2.6035 H   0  0  0  0  0  0  0  0  0  0  0  0
   -2.5131    1.5293   -1.1010 H   0  0  0  0  0  0  0  0  0  0  0  0
   -2.2334    3.6106   -0.8213 N   0  3  0  0  0  0  0  0  0  0  0  0
   -1.5624    4.3364   -1.0697 H   0  0  0  0  0  0  0  0  0  0  0  0
   -3.1792    3.9306   -1.0296 H   0  0  0  0  0  0  0  0  0  0  0  0
   -2.1656    3.4169    0.1914 H   0  0  0  0  0  0  0  0  0  0  0  0
   -1.0046    1.2342    1.6082 C   0  0  0  0  0  0  0  0  0  0  0  0
   -1.9126    2.0373    1.3991 O   0  0  0  0  0  0  0  0  0  0  0  0
   -0.0511    1.5465    2.5583 N   0  0  0  0  0  0  0  0  0  0  0  0
    0.6044    0.8102    2.8161 H   0  0  0  0  0  0  0  0  0  0  0  0
   -0.1059    2.7369    3.4020 C   0  0  0  0  0  0  0  0  0  0  0  0
   -1.0120    2.7311    4.0177 H   0  0  0  0  0  0  0  0  0  0  0  0
    0.7621    2.7669    4.0687 H   0  0  0  0  0  0  0  0  0  0  0  0
   -0.0988    3.6457    2.7915 H   0  0  0  0  0  0  0  0  0  0  0  0
  1  2  1  0  0  0  0
  2  3  1  0  0  0  0
  2  4  1  0  0  0  0
  2  5  1  0  0  0  0
  5  6  2  0  0  0  0
  5  7  1  0  0  0  0
  7  8  1  0  0  0  0
  7  9  1  0  0  0  0
  9 10  1  0  0  0  0
  9 11  1  0  0  0  0
  9 27  1  0  0  0  0
 11 12  1  0  0  0  0
 11 13  1  0  0  0  0
 11 14  1  0  0  0  0
 14 15  1  0  0  0  0
 14 16  1  0  0  0  0
 14 17  1  0  0  0  0
 17 18  1  0  0  0  0
 17 19  1  0  0  0  0
 17 20  1  0  0  0  0
 20 21  1  0  0  0  0
 20 22  1  0  0  0  0
 20 23  1  0  0  0  0
 23 24  1  0  0  0  0
 23 25  1  0  0  0  0
 23 26  1  0  0  0  0
 27 28  2  0  0  0  0
 27 29  1  0  0  0  0
 29 30  1  0  0  0  0
 29 31  1  0  0  0  0
 31 32  1  0  0  0  0
 31 33  1  0  0  0  0
 31 34  1  0  0  0  0
M  CHG  1  23   1
M  END
$$$$

  -OEChem-02102214153D

 34 33  0     1  0  0  0  0  0999 V2000
   -4.0456   -3.7225    1.3493 H   0  0  0  0  0  0  0  0  0  0  0  0
   -4.0108   -2.6823    1.0127 C   0  0  0  0  0  0  0  0  0  0  0  0
   -4.6567   -2.0836    1.6593 H   0  0  0  0  0  0  0  0  0  0  0  0
   -4.3845   -2.6333   -0.0127 H   0  0  0  0  0  0  0  0  0  0  0  0
   -2.5865   -2.1639    1.0728 C   0  0  0  0  0  0  0  0  0  0  0  0
   -1.6779   -2.9042    1.4083 O   0  0  0  0  0  0  0  0  0  0  0  0
   -2.3107   -0.8479    0.7494 N   0  0  0  0  0  0  0  0  0  0  0  0
   -3.1133   -0.2443    0.5873 H   0  0  0  0  0  0  0  0  0  0  0  0
   -0.9953   -0.2107    0.9367 C   0  0  1  0  0  0  0  0  0  0  0  0
   -0.4959   -0.7896    1.7223 H   0  0  0  0  0  0  0  0  0  0  0  0
   -0.1150   -0.4542   -0.3237 C   0  0  0  0  0  0  0  0  0  0  0  0
    0.9174   -0.4773    0.0417 H   0  0  0  0  0  0  0  0  0  0  0  0
   -0.3258   -1.4624   -0.6985 H   0  0  0  0  0  0  0  0  0  0  0  0
   -0.0997    0.5062   -1.5427 C   0  0  0  0  0  0  0  0  0  0  0  0
    0.7629    0.2194   -2.1550 H   0  0  0  0  0  0  0  0  0  0  0  0
   -0.9867    0.2844   -2.1463 H   0  0  0  0  0  0  0  0  0  0  0  0
   -0.0176    2.0267   -1.3151 C   0  0  0  0  0  0  0  0  0  0  0  0
    0.7316    2.4476   -1.9948 H   0  0  0  0  0  0  0  0  0  0  0  0
    0.3333    2.2440   -0.3040 H   0  0  0  0  0  0  0  0  0  0  0  0
   -1.3653    2.6897   -1.6272 C   0  0  0  0  0  0  0  0  0  0  0  0
   -1.4046    2.9552   -2.6935 H   0  0  0  0  0  0  0  0  0  0  0  0
   -2.1699    1.9632   -1.4421 H   0  0  0  0  0  0  0  0  0  0  0  0
   -1.5568    3.8661   -0.7585 N   0  3  0  0  0  0  0  0  0  0  0  0
   -0.7266    4.4569   -0.7630 H   0  0  0  0  0  0  0  0  0  0  0  0
   -2.3665    4.4076   -1.0612 H   0  0  0  0  0  0  0  0  0  0  0  0
   -1.7283    3.5251    0.2016 H   0  0  0  0  0  0  0  0  0  0  0  0
   -1.0651    1.1949    1.5668 C   0  0  0  0  0  0  0  0  0  0  0  0
   -1.9262    2.0034    1.2249 O   0  0  0  0  0  0  0  0  0  0  0  0
   -0.1975    1.5447    2.5841 N   0  0  0  0  0  0  0  0  0  0  0  0
    0.4118    0.8089    2.9392 H   0  0  0  0  0  0  0  0  0  0  0  0
   -0.3417    2.7532    3.3903 C   0  0  0  0  0  0  0  0  0  0  0  0
   -1.3170    2.7697    3.8893 H   0  0  0  0  0  0  0  0  0  0  0  0
    0.4372    2.7891    4.1592 H   0  0  0  0  0  0  0  0  0  0  0  0
   -0.2477    3.6482    2.7672 H   0  0  0  0  0  0  0  0  0  0  0  0
  1  2  1  0  0  0  0
  2  3  1  0  0  0  0
  2  4  1  0  0  0  0
  2  5  1  0  0  0  0
  5  6  2  0  0  0  0
  5  7  1  0  0  0  0
  7  8  1  0  0  0  0
  7  9  1  0  0  0  0
  9 10  1  0  0  0  0
  9 11  1  0  0  0  0
  9 27  1  0  0  0  0
 11 12  1  0  0  0  0
 11 13  1  0  0  0  0
 11 14  1  0  0  0  0
 14 15  1  0  0  0  0
 14 16  1  0  0  0  0
 14 17  1  0  0  0  0
 17 18  1  0  0  0  0
 17 19  1  0  0  0  0
 17 20  1  0  0  0  0
 20 21  1  0  0  0  0
 20 22  1  0  0  0  0
 20 23  1  0  0  0  0
 23 24  1  0  0  0  0
 23 25  1  0  0  0  0
 23 26  1  0  0  0  0
 27 28  2  0  0  0  0
 27 29  1  0  0  0  0
 29 30  1  0  0  0  0
 29 31  1  0  0  0  0
 31 32  1  0  0  0  0
 31 33  1  0  0  0  0
 31 34  1  0  0  0  0
M  CHG  1  23   1
M  END
$$$$

  -OEChem-02102214153D

 34 33  0     1  0  0  0  0  0999 V2000
   -4.0966   -3.5661    1.5676 H   0  0  0  0  0  0  0  0  0  0  0  0
   -4.0192   -2.5104    1.2910 C   0  0  0  0  0  0  0  0  0  0  0  0
   -4.5245   -1.9113    2.0523 H   0  0  0  0  0  0  0  0  0  0  0  0
   -4.5163   -2.3630    0.3293 H   0  0  0  0  0  0  0  0  0  0  0  0
   -2.5615   -2.1044    1.1913 C   0  0  0  0  0  0  0  0  0  0  0  0
   -1.6812   -2.9162    1.4182 O   0  0  0  0  0  0  0  0  0  0  0  0
   -2.2220   -0.8095    0.8454 N   0  0  0  0  0  0  0  0  0  0  0  0
   -2.9867   -0.1399    0.8040 H   0  0  0  0  0  0  0  0  0  0  0  0
   -0.8477   -0.2813    0.9262 C   0  0  1  0  0  0  0  0  0  0  0  0
   -0.2754   -0.9110    1.6172 H   0  0  0  0  0  0  0  0  0  0  0  0
   -0.1932   -0.4608   -0.4765 C   0  0  0  0  0  0  0  0  0  0  0  0
    0.8761   -0.6157   -0.2980 H   0  0  0  0  0  0  0  0  0  0  0  0
   -0.5666   -1.3958   -0.9099 H   0  0  0  0  0  0  0  0  0  0  0  0
   -0.2900    0.6375   -1.5661 C   0  0  0  0  0  0  0  0  0  0  0  0
    0.1878    0.2562   -2.4759 H   0  0  0  0  0  0  0  0  0  0  0  0
   -1.3544    0.7450   -1.7946 H   0  0  0  0  0  0  0  0  0  0  0  0
    0.3074    2.0339   -1.2643 C   0  0  0  0  0  0  0  0  0  0  0  0
    0.4488    2.2215   -0.2030 H   0  0  0  0  0  0  0  0  0  0  0  0
    1.3155    2.0541   -1.6930 H   0  0  0  0  0  0  0  0  0  0  0  0
   -0.4943    3.1806   -1.8886 C   0  0  0  0  0  0  0  0  0  0  0  0
    0.0926    4.1054   -1.7911 H   0  0  0  0  0  0  0  0  0  0  0  0
   -0.6252    2.9944   -2.9643 H   0  0  0  0  0  0  0  0  0  0  0  0
   -1.7987    3.3234   -1.2050 N   0  3  0  0  0  0  0  0  0  0  0  0
   -2.0923    4.3001   -1.1887 H   0  0  0  0  0  0  0  0  0  0  0  0
   -2.5100    2.7672   -1.6767 H   0  0  0  0  0  0  0  0  0  0  0  0
   -1.7218    2.9853   -0.2318 H   0  0  0  0  0  0  0  0  0  0  0  0
   -0.8575    1.1159    1.5725 C   0  0  0  0  0  0  0  0  0  0  0  0
   -1.6812    1.9539    1.2012 O   0  0  0  0  0  0  0  0  0  0  0  0
    0.0612    1.4531    2.5470 N   0  0  0  0  0  0  0  0  0  0  0  0
    0.6608    0.7072    2.8969 H   0  0  0  0  0  0  0  0  0  0  0  0
    0.0245    2.7079    3.2917 C   0  0  0  0  0  0  0  0  0  0  0  0
   -0.9051    2.7877    3.8655 H   0  0  0  0  0  0  0  0  0  0  0  0
    0.8658    2.7561    3.9909 H   0  0  0  0  0  0  0  0  0  0  0  0
    0.0951    3.5642    2.6131 H   0  0  0  0  0  0  0  0  0  0  0  0
  1  2  1  0  0  0  0
  2  3  1  0  0  0  0
  2  4  1  0  0  0  0
  2  5  1  0  0  0  0
  5  6  2  0  0  0  0
  5  7  1  0  0  0  0
  7  8  1  0  0  0  0
  7  9  1  0  0  0  0
  9 10  1  0  0  0  0
  9 11  1  0  0  0  0
  9 27  1  0  0  0  0
 11 12  1  0  0  0  0
 11 13  1  0  0  0  0
 11 14  1  0  0  0  0
 14 15  1  0  0  0  0
 14 16  1  0  0  0  0
 14 17  1  0  0  0  0
 17 18  1  0  0  0  0
 17 19  1  0  0  0  0
 17 20  1  0  0  0  0
 20 21  1  0  0  0  0
 20 22  1  0  0  0  0
 20 23  1  0  0  0  0
 23 24  1  0  0  0  0
 23 25  1  0  0  0  0
 23 26  1  0  0  0  0
 27 28  2  0  0  0  0
 27 29  1  0  0  0  0
 29 30  1  0  0  0  0
 29 31  1  0  0  0  0
 31 32  1  0  0  0  0
 31 33  1  0  0  0  0
 31 34  1  0  0  0  0
M  CHG  1  23   1
M  END
$$$$

  -OEChem-02102214153D

 34 33  0     1  0  0  0  0  0999 V2000
   -4.0266   -3.6315    1.6310 H   0  0  0  0  0  0  0  0  0  0  0  0
   -3.9641   -2.5806    1.3339 C   0  0  0  0  0  0  0  0  0  0  0  0
   -4.5005   -1.9759    2.0690 H   0  0  0  0  0  0  0  0  0  0  0  0
   -4.4397   -2.4643    0.3572 H   0  0  0  0  0  0  0  0  0  0  0  0
   -2.5128   -2.1461    1.2620 C   0  0  0  0  0  0  0  0  0  0  0  0
   -1.6240   -2.9190    1.5759 O   0  0  0  0  0  0  0  0  0  0  0  0
   -2.1881   -0.8695    0.8428 N   0  0  0  0  0  0  0  0  0  0  0  0
   -2.9629   -0.2271    0.6953 H   0  0  0  0  0  0  0  0  0  0  0  0
   -0.8232   -0.3154    0.8855 C   0  0  1  0  0  0  0  0  0  0  0  0
   -0.2303   -0.9045    1.5945 H   0  0  0  0  0  0  0  0  0  0  0  0
   -0.1857   -0.5321   -0.5176 C   0  0  0  0  0  0  0  0  0  0  0  0
    0.8908   -0.6762   -0.3760 H   0  0  0  0  0  0  0  0  0  0  0  0
   -0.5691   -1.4725   -0.9300 H   0  0  0  0  0  0  0  0  0  0  0  0
   -0.3679    0.5738   -1.5806 C   0  0  0  0  0  0  0  0  0  0  0  0
   -0.1314    0.1513   -2.5638 H   0  0  0  0  0  0  0  0  0  0  0  0
   -1.4294    0.8385   -1.5975 H   0  0  0  0  0  0  0  0  0  0  0  0
    0.5022    1.8368   -1.3824 C   0  0  0  0  0  0  0  0  0  0  0  0
    0.6948    2.0526   -0.3316 H   0  0  0  0  0  0  0  0  0  0  0  0
    1.4825    1.6428   -1.8316 H   0  0  0  0  0  0  0  0  0  0  0  0
   -0.1060    3.0742   -2.0487 C   0  0  0  0  0  0  0  0  0  0  0  0
    0.6372    3.8842   -2.0246 H   0  0  0  0  0  0  0  0  0  0  0  0
   -0.3104    2.8564   -3.1068 H   0  0  0  0  0  0  0  0  0  0  0  0
   -1.3385    3.4796   -1.3346 N   0  3  0  0  0  0  0  0  0  0  0  0
   -1.3534    4.4886   -1.1865 H   0  0  0  0  0  0  0  0  0  0  0  0
   -2.1643    3.2073   -1.8665 H   0  0  0  0  0  0  0  0  0  0  0  0
   -1.3819    3.0117   -0.4145 H   0  0  0  0  0  0  0  0  0  0  0  0
   -0.8279    1.1192    1.4491 C   0  0  0  0  0  0  0  0  0  0  0  0
   -1.6011    1.9621    0.9911 O   0  0  0  0  0  0  0  0  0  0  0  0
    0.1044    1.5064    2.3921 N   0  0  0  0  0  0  0  0  0  0  0  0
    0.6707    0.7686    2.8090 H   0  0  0  0  0  0  0  0  0  0  0  0
    0.0993    2.8132    3.0426 C   0  0  0  0  0  0  0  0  0  0  0  0
   -0.8424    2.9725    3.5791 H   0  0  0  0  0  0  0  0  0  0  0  0
    0.9206    2.8786    3.7637 H   0  0  0  0  0  0  0  0  0  0  0  0
    0.2267    3.6134    2.3065 H   0  0  0  0  0  0  0  0  0  0  0  0
  1  2  1  0  0  0  0
  2  3  1  0  0  0  0
  2  4  1  0  0  0  0
  2  5  1  0  0  0  0
  5  6  2  0  0  0  0
  5  7  1  0  0  0  0
  7  8  1  0  0  0  0
  7  9  1  0  0  0  0
  9 10  1  0  0  0  0
  9 11  1  0  0  0  0
  9 27  1  0  0  0  0
 11 12  1  0  0  0  0
 11 13  1  0  0  0  0
 11 14  1  0  0  0  0
 14 15  1  0  0  0  0
 14 16  1  0  0  0  0
 14 17  1  0  0  0  0
 17 18  1  0  0  0  0
 17 19  1  0  0  0  0
 17 20  1  0  0  0  0
 20 21  1  0  0  0  0
 20 22  1  0  0  0  0
 20 23  1  0  0  0  0
 23 24  1  0  0  0  0
 23 25  1  0  0  0  0
 23 26  1  0  0  0  0
 27 28  2  0  0  0  0
 27 29  1  0  0  0  0
 29 30  1  0  0  0  0
 29 31  1  0  0  0  0
 31 32  1  0  0  0  0
 31 33  1  0  0  0  0
 31 34  1  0  0  0  0
M  CHG  1  23   1
M  END
$$$$

  -OEChem-02102214153D

 34 33  0     1  0  0  0  0  0999 V2000
   -3.7536   -4.0185    1.6693 H   0  0  0  0  0  0  0  0  0  0  0  0
   -3.7979   -2.9899    1.2995 C   0  0  0  0  0  0  0  0  0  0  0  0
   -4.4588   -2.4118    1.9497 H   0  0  0  0  0  0  0  0  0  0  0  0
   -4.2084   -2.9984    0.2868 H   0  0  0  0  0  0  0  0  0  0  0  0
   -2.4098   -2.3785    1.2932 C   0  0  0  0  0  0  0  0  0  0  0  0
   -1.4580   -3.0142    1.7146 O   0  0  0  0  0  0  0  0  0  0  0  0
   -2.2145   -1.1009    0.8042 N   0  0  0  0  0  0  0  0  0  0  0  0
   -3.0453   -0.5785    0.5327 H   0  0  0  0  0  0  0  0  0  0  0  0
   -0.9322   -0.3795    0.8587 C   0  0  1  0  0  0  0  0  0  0  0  0
   -0.3184   -0.8569    1.6303 H   0  0  0  0  0  0  0  0  0  0  0  0
   -0.1881   -0.6032   -0.4841 C   0  0  0  0  0  0  0  0  0  0  0  0
    0.8912   -0.6065   -0.2993 H   0  0  0  0  0  0  0  0  0  0  0  0
   -0.4403   -1.5999   -0.8635 H   0  0  0  0  0  0  0  0  0  0  0  0
   -0.5095    0.4401   -1.5699 C   0  0  0  0  0  0  0  0  0  0  0  0
   -0.4063   -0.0370   -2.5509 H   0  0  0  0  0  0  0  0  0  0  0  0
   -1.5602    0.7380   -1.4829 H   0  0  0  0  0  0  0  0  0  0  0  0
    0.4277    1.6581   -1.5376 C   0  0  0  0  0  0  0  0  0  0  0  0
    0.7894    1.8317   -0.5197 H   0  0  0  0  0  0  0  0  0  0  0  0
    1.3007    1.4712   -2.1723 H   0  0  0  0  0  0  0  0  0  0  0  0
   -0.3443    2.8862   -2.0151 C   0  0  0  0  0  0  0  0  0  0  0  0
   -0.6399    2.7461   -3.0650 H   0  0  0  0  0  0  0  0  0  0  0  0
   -1.2704    2.9717   -1.4243 H   0  0  0  0  0  0  0  0  0  0  0  0
    0.4944    4.0899   -1.8440 N   0  3  0  0  0  0  0  0  0  0  0  0
    1.3696    3.9840   -2.3590 H   0  0  0  0  0  0  0  0  0  0  0  0
   -0.0019    4.9130   -2.1914 H   0  0  0  0  0  0  0  0  0  0  0  0
    0.7022    4.2233   -0.8527 H   0  0  0  0  0  0  0  0  0  0  0  0
   -1.0592    1.0919    1.3185 C   0  0  0  0  0  0  0  0  0  0  0  0
   -1.8591    1.8581    0.7894 O   0  0  0  0  0  0  0  0  0  0  0  0
   -0.1751    1.6012    2.2531 N   0  0  0  0  0  0  0  0  0  0  0  0
    0.3885    0.9173    2.7553 H   0  0  0  0  0  0  0  0  0  0  0  0
   -0.3521    2.9126    2.8705 C   0  0  0  0  0  0  0  0  0  0  0  0
   -1.2961    2.9499    3.4252 H   0  0  0  0  0  0  0  0  0  0  0  0
    0.4663    3.1156    3.5689 H   0  0  0  0  0  0  0  0  0  0  0  0
   -0.3597    3.7022    2.1123 H   0  0  0  0  0  0  0  0  0  0  0  0
  1  2  1  0  0  0  0
  2  3  1  0  0  0  0
  2  4  1  0  0  0  0
  2  5  1  0  0  0  0
  5  6  2  0  0  0  0
  5  7  1  0  0  0  0
  7  8  1  0  0  0  0
  7  9  1  0  0  0  0
  9 10  1  0  0  0  0
  9 11  1  0  0  0  0
  9 27  1  0  0  0  0
 11 12  1  0  0  0  0
 11 13  1  0  0  0  0
 11 14  1  0  0  0  0
 14 15  1  0  0  0  0
 14 16  1  0  0  0  0
 14 17  1  0  0  0  0
 17 18  1  0  0  0  0
 17 19  1  0  0  0  0
 17 20  1  0  0  0  0
 20 21  1  0  0  0  0
 20 22  1  0  0  0  0
 20 23  1  0  0  0  0
 23 24  1  0  0  0  0
 23 25  1  0  0  0  0
 23 26  1  0  0  0  0
 27 28  2  0  0  0  0
 27 29  1  0  0  0  0
 29 30  1  0  0  0  0
 29 31  1  0  0  0  0
 31 32  1  0  0  0  0
 31 33  1  0  0  0  0
 31 34  1  0  0  0  0
M  CHG  1  23   1
M  END
$$$$

  -OEChem-02102214153D

 34 33  0     1  0  0  0  0  0999 V2000
   -3.6812   -4.0895    1.7347 H   0  0  0  0  0  0  0  0  0  0  0  0
   -3.7561   -3.0697    1.3467 C   0  0  0  0  0  0  0  0  0  0  0  0
   -4.3957   -2.4870    2.0138 H   0  0  0  0  0  0  0  0  0  0  0  0
   -4.2106   -3.1041    0.3538 H   0  0  0  0  0  0  0  0  0  0  0  0
   -2.3788   -2.4405    1.2661 C   0  0  0  0  0  0  0  0  0  0  0  0
   -1.3895   -3.0873    1.5677 O   0  0  0  0  0  0  0  0  0  0  0  0
   -2.2365   -1.1342    0.8405 N   0  0  0  0  0  0  0  0  0  0  0  0
   -3.0926   -0.6039    0.6873 H   0  0  0  0  0  0  0  0  0  0  0  0
   -0.9694   -0.3866    0.8729 C   0  0  1  0  0  0  0  0  0  0  0  0
   -0.3182   -0.8907    1.5955 H   0  0  0  0  0  0  0  0  0  0  0  0
   -0.2628   -0.5215   -0.4978 C   0  0  0  0  0  0  0  0  0  0  0  0
    0.8202   -0.5070   -0.3361 H   0  0  0  0  0  0  0  0  0  0  0  0
   -0.4982   -1.5067   -0.9163 H   0  0  0  0  0  0  0  0  0  0  0  0
   -0.6408    0.5630   -1.5270 C   0  0  0  0  0  0  0  0  0  0  0  0
   -0.7949    0.0696   -2.4931 H   0  0  0  0  0  0  0  0  0  0  0  0
   -1.5960    1.0305   -1.2732 H   0  0  0  0  0  0  0  0  0  0  0  0
    0.4651    1.6085   -1.7036 C   0  0  0  0  0  0  0  0  0  0  0  0
    0.7552    1.9967   -0.7211 H   0  0  0  0  0  0  0  0  0  0  0  0
    1.3452    1.1451   -2.1631 H   0  0  0  0  0  0  0  0  0  0  0  0
   -0.0574    2.7508   -2.5707 C   0  0  0  0  0  0  0  0  0  0  0  0
   -0.3147    2.3628   -3.5672 H   0  0  0  0  0  0  0  0  0  0  0  0
   -0.9853    3.1408   -2.1251 H   0  0  0  0  0  0  0  0  0  0  0  0
    0.9723    3.8081   -2.6537 N   0  3  0  0  0  0  0  0  0  0  0  0
    1.8290    3.4314   -3.0633 H   0  0  0  0  0  0  0  0  0  0  0  0
    0.6365    4.5795   -3.2342 H   0  0  0  0  0  0  0  0  0  0  0  0
    1.1787    4.1637   -1.7182 H   0  0  0  0  0  0  0  0  0  0  0  0
   -1.0939    1.0548    1.4181 C   0  0  0  0  0  0  0  0  0  0  0  0
   -1.9877    1.7986    1.0308 O   0  0  0  0  0  0  0  0  0  0  0  0
   -0.1723    1.5340    2.3319 N   0  0  0  0  0  0  0  0  0  0  0  0
    0.4551    0.8481    2.7462 H   0  0  0  0  0  0  0  0  0  0  0  0
   -0.3378    2.8098    3.0222 C   0  0  0  0  0  0  0  0  0  0  0  0
   -1.2512    2.8029    3.6270 H   0  0  0  0  0  0  0  0  0  0  0  0
    0.5139    2.9956    3.6844 H   0  0  0  0  0  0  0  0  0  0  0  0
   -0.4001    3.6337    2.3040 H   0  0  0  0  0  0  0  0  0  0  0  0
  1  2  1  0  0  0  0
  2  3  1  0  0  0  0
  2  4  1  0  0  0  0
  2  5  1  0  0  0  0
  5  6  2  0  0  0  0
  5  7  1  0  0  0  0
  7  8  1  0  0  0  0
  7  9  1  0  0  0  0
  9 10  1  0  0  0  0
  9 11  1  0  0  0  0
  9 27  1  0  0  0  0
 11 12  1  0  0  0  0
 11 13  1  0  0  0  0
 11 14  1  0  0  0  0
 14 15  1  0  0  0  0
 14 16  1  0  0  0  0
 14 17  1  0  0  0  0
 17 18  1  0  0  0  0
 17 19  1  0  0  0  0
 17 20  1  0  0  0  0
 20 21  1  0  0  0  0
 20 22  1  0  0  0  0
 20 23  1  0  0  0  0
 23 24  1  0  0  0  0
 23 25  1  0  0  0  0
 23 26  1  0  0  0  0
 27 28  2  0  0  0  0
 27 29  1  0  0  0  0
 29 30  1  0  0  0  0
 29 31  1  0  0  0  0
 31 32  1  0  0  0  0
 31 33  1  0  0  0  0
 31 34  1  0  0  0  0
M  CHG  1  23   1
M  END
$$$$

  -OEChem-02102214153D

 34 33  0     1  0  0  0  0  0999 V2000
   -3.6349   -4.1096    1.7467 H   0  0  0  0  0  0  0  0  0  0  0  0
   -3.7300   -3.0837    1.3794 C   0  0  0  0  0  0  0  0  0  0  0  0
   -4.3335   -2.5119    2.0886 H   0  0  0  0  0  0  0  0  0  0  0  0
   -4.2366   -3.1023    0.4115 H   0  0  0  0  0  0  0  0  0  0  0  0
   -2.3590   -2.4515    1.2361 C   0  0  0  0  0  0  0  0  0  0  0  0
   -1.3537   -3.1058    1.4599 O   0  0  0  0  0  0  0  0  0  0  0  0
   -2.2408   -1.1325    0.8445 N   0  0  0  0  0  0  0  0  0  0  0  0
   -3.1047   -0.5974    0.7684 H   0  0  0  0  0  0  0  0  0  0  0  0
   -0.9802   -0.3743    0.8678 C   0  0  1  0  0  0  0  0  0  0  0  0
   -0.3123   -0.8888    1.5676 H   0  0  0  0  0  0  0  0  0  0  0  0
   -0.2956   -0.4699   -0.5178 C   0  0  0  0  0  0  0  0  0  0  0  0
    0.7861   -0.4358   -0.3516 H   0  0  0  0  0  0  0  0  0  0  0  0
   -0.5072   -1.4538   -0.9516 H   0  0  0  0  0  0  0  0  0  0  0  0
   -0.6821    0.6242   -1.5392 C   0  0  0  0  0  0  0  0  0  0  0  0
   -1.1156    0.1271   -2.4142 H   0  0  0  0  0  0  0  0  0  0  0  0
   -1.4605    1.2844   -1.1521 H   0  0  0  0  0  0  0  0  0  0  0  0
    0.5276    1.4488   -1.9915 C   0  0  0  0  0  0  0  0  0  0  0  0
    1.0051    1.9000   -1.1146 H   0  0  0  0  0  0  0  0  0  0  0  0
    1.2572    0.7946   -2.4818 H   0  0  0  0  0  0  0  0  0  0  0  0
    0.0660    2.5430   -2.9513 C   0  0  0  0  0  0  0  0  0  0  0  0
   -0.4109    2.0789   -3.8272 H   0  0  0  0  0  0  0  0  0  0  0  0
   -0.7002    3.1568   -2.4538 H   0  0  0  0  0  0  0  0  0  0  0  0
    1.2291    3.3649   -3.3490 N   0  3  0  0  0  0  0  0  0  0  0  0
    1.9342    2.7782   -3.7993 H   0  0  0  0  0  0  0  0  0  0  0  0
    0.9361    4.0937   -4.0035 H   0  0  0  0  0  0  0  0  0  0  0  0
    1.6410    3.8063   -2.5247 H   0  0  0  0  0  0  0  0  0  0  0  0
   -1.1211    1.0460    1.4592 C   0  0  0  0  0  0  0  0  0  0  0  0
   -2.0798    1.7486    1.1624 O   0  0  0  0  0  0  0  0  0  0  0  0
   -0.1935    1.5218    2.3684 N   0  0  0  0  0  0  0  0  0  0  0  0
    0.4846    0.8522    2.7250 H   0  0  0  0  0  0  0  0  0  0  0  0
   -0.3867    2.7636    3.1119 C   0  0  0  0  0  0  0  0  0  0  0  0
   -1.2790    2.6974    3.7439 H   0  0  0  0  0  0  0  0  0  0  0  0
    0.4776    2.9606    3.7540 H   0  0  0  0  0  0  0  0  0  0  0  0
   -0.5047    3.6095    2.4265 H   0  0  0  0  0  0  0  0  0  0  0  0
  1  2  1  0  0  0  0
  2  3  1  0  0  0  0
  2  4  1  0  0  0  0
  2  5  1  0  0  0  0
  5  6  2  0  0  0  0
  5  7  1  0  0  0  0
  7  8  1  0  0  0  0
  7  9  1  0  0  0  0
  9 10  1  0  0  0  0
  9 11  1  0  0  0  0
  9 27  1  0  0  0  0
 11 12  1  0  0  0  0
 11 13  1  0  0  0  0
 11 14  1  0  0  0  0
 14 15  1  0  0  0  0
 14 16  1  0  0  0  0
 14 17  1  0  0  0  0
 17 18  1  0  0  0  0
 17 19  1  0  0  0  0
 17 20  1  0  0  0  0
 20 21  1  0  0  0  0
 20 22  1  0  0  0  0
 20 23  1  0  0  0  0
 23 24  1  0  0  0  0
 23 25  1  0  0  0  0
 23 26  1  0  0  0  0
 27 28  2  0  0  0  0
 27 29  1  0  0  0  0
 29 30  1  0  0  0  0
 29 31  1  0  0  0  0
 31 32  1  0  0  0  0
 31 33  1  0  0  0  0
 31 34  1  0  0  0  0
M  CHG  1  23   1
M  END
$$$$

  -OEChem-02102214153D

 34 33  0     1  0  0  0  0  0999 V2000
   -3.6061   -4.1211    1.7091 H   0  0  0  0  0  0  0  0  0  0  0  0
   -3.7104   -3.0846    1.3758 C   0  0  0  0  0  0  0  0  0  0  0  0
   -4.2976   -2.5362    2.1163 H   0  0  0  0  0  0  0  0  0  0  0  0
   -4.2392   -3.0740    0.4199 H   0  0  0  0  0  0  0  0  0  0  0  0
   -2.3431   -2.4474    1.2197 C   0  0  0  0  0  0  0  0  0  0  0  0
   -1.3330   -3.1052    1.4101 O   0  0  0  0  0  0  0  0  0  0  0  0
   -2.2336   -1.1223    0.8466 N   0  0  0  0  0  0  0  0  0  0  0  0
   -3.0985   -0.5846    0.8034 H   0  0  0  0  0  0  0  0  0  0  0  0
   -0.9749   -0.3614    0.8675 C   0  0  1  0  0  0  0  0  0  0  0  0
   -0.2934   -0.8807    1.5504 H   0  0  0  0  0  0  0  0  0  0  0  0
   -0.3171   -0.4363   -0.5332 C   0  0  0  0  0  0  0  0  0  0  0  0
    0.7638   -0.3815   -0.3662 H   0  0  0  0  0  0  0  0  0  0  0  0
   -0.5100   -1.4193   -0.9776 H   0  0  0  0  0  0  0  0  0  0  0  0
   -0.7105    0.6660   -1.5445 C   0  0  0  0  0  0  0  0  0  0  0  0
   -1.4183    0.2376   -2.2628 H   0  0  0  0  0  0  0  0  0  0  0  0
   -1.2240    1.4972   -1.0592 H   0  0  0  0  0  0  0  0  0  0  0  0
    0.5120    1.2274   -2.2796 C   0  0  0  0  0  0  0  0  0  0  0  0
    1.2086    1.6596   -1.5529 H   0  0  0  0  0  0  0  0  0  0  0  0
    1.0255    0.4153   -2.8063 H   0  0  0  0  0  0  0  0  0  0  0  0
    0.0643    2.2998   -3.2705 C   0  0  0  0  0  0  0  0  0  0  0  0
   -0.6496    1.8585   -3.9814 H   0  0  0  0  0  0  0  0  0  0  0  0
   -0.4710    3.0921   -2.7260 H   0  0  0  0  0  0  0  0  0  0  0  0
    1.2483    2.8422   -3.9717 N   0  3  0  0  0  0  0  0  0  0  0  0
    1.7359    2.0923   -4.4659 H   0  0  0  0  0  0  0  0  0  0  0  0
    0.9605    3.5528   -4.6483 H   0  0  0  0  0  0  0  0  0  0  0  0
    1.8884    3.2666   -3.2979 H   0  0  0  0  0  0  0  0  0  0  0  0
   -1.1339    1.0452    1.4850 C   0  0  0  0  0  0  0  0  0  0  0  0
   -2.1200    1.7228    1.2206 O   0  0  0  0  0  0  0  0  0  0  0  0
   -0.2097    1.5211    2.3969 N   0  0  0  0  0  0  0  0  0  0  0  0
    0.4996    0.8675    2.7198 H   0  0  0  0  0  0  0  0  0  0  0  0
   -0.4130    2.7490    3.1599 C   0  0  0  0  0  0  0  0  0  0  0  0
   -1.2961    2.6604    3.8018 H   0  0  0  0  0  0  0  0  0  0  0  0
    0.4566    2.9490    3.7937 H   0  0  0  0  0  0  0  0  0  0  0  0
   -0.5519    3.6030    2.4884 H   0  0  0  0  0  0  0  0  0  0  0  0
  1  2  1  0  0  0  0
  2  3  1  0  0  0  0
  2  4  1  0  0  0  0
  2  5  1  0  0  0  0
  5  6  2  0  0  0  0
  5  7  1  0  0  0  0
  7  8  1  0  0  0  0
  7  9  1  0  0  0  0
  9 10  1  0  0  0  0
  9 11  1  0  0  0  0
  9 27  1  0  0  0  0
 11 12  1  0  0  0  0
 11 13  1  0  0  0  0
 11 14  1  0  0  0  0
 14 15  1  0  0  0  0
 14 16  1  0  0  0  0
 14 17  1  0  0  0  0
 17 18  1  0  0  0  0
 17 19  1  0  0  0  0
 17 20  1  0  0  0  0
 20 21  1  0  0  0  0
 20 22  1  0  0  0  0
 20 23  1  0  0  0  0
 23 24  1  0  0  0  0
 23 25  1  0  0  0  0
 23 26  1  0  0  0  0
 27 28  2  0  0  0  0
 27 29  1  0  0  0  0
 29 30  1  0  0  0  0
 29 31  1  0  0  0  0
 31 32  1  0  0  0  0
 31 33  1  0  0  0  0
 31 34  1  0  0  0  0
M  CHG  1  23   1
M  END
$$$$

  -OEChem-02102214153D

 34 33  0     1  0  0  0  0  0999 V2000
   -3.6140   -4.1045    1.7305 H   0  0  0  0  0  0  0  0  0  0  0  0
   -3.7111   -3.0705    1.3872 C   0  0  0  0  0  0  0  0  0  0  0  0
   -4.2848   -2.5082    2.1281 H   0  0  0  0  0  0  0  0  0  0  0  0
   -4.2504   -3.0643    0.4371 H   0  0  0  0  0  0  0  0  0  0  0  0
   -2.3390   -2.4484    1.2100 C   0  0  0  0  0  0  0  0  0  0  0  0
   -1.3333   -3.1170    1.3856 O   0  0  0  0  0  0  0  0  0  0  0  0
   -2.2199   -1.1246    0.8356 N   0  0  0  0  0  0  0  0  0  0  0  0
   -3.0798   -0.5777    0.8056 H   0  0  0  0  0  0  0  0  0  0  0  0
   -0.9546   -0.3740    0.8578 C   0  0  1  0  0  0  0  0  0  0  0  0
   -0.2675   -0.8971    1.5319 H   0  0  0  0  0  0  0  0  0  0  0  0
   -0.3186   -0.4368   -0.5534 C   0  0  0  0  0  0  0  0  0  0  0  0
    0.7642   -0.3821   -0.3997 H   0  0  0  0  0  0  0  0  0  0  0  0
   -0.5211   -1.4124   -1.0095 H   0  0  0  0  0  0  0  0  0  0  0  0
   -0.7170    0.6838   -1.5392 C   0  0  0  0  0  0  0  0  0  0  0  0
   -1.6314    0.3844   -2.0634 H   0  0  0  0  0  0  0  0  0  0  0  0
   -0.9335    1.6171   -1.0152 H   0  0  0  0  0  0  0  0  0  0  0  0
    0.4113    0.9779   -2.5345 C   0  0  0  0  0  0  0  0  0  0  0  0
    1.3030    1.3121   -1.9924 H   0  0  0  0  0  0  0  0  0  0  0  0
    0.6648    0.0599   -3.0768 H   0  0  0  0  0  0  0  0  0  0  0  0
   -0.0422    2.0592   -3.5132 C   0  0  0  0  0  0  0  0  0  0  0  0
   -0.9527    1.7191   -4.0284 H   0  0  0  0  0  0  0  0  0  0  0  0
   -0.3095    2.9658   -2.9498 H   0  0  0  0  0  0  0  0  0  0  0  0
    1.0445    2.3322   -4.4783 N   0  3  0  0  0  0  0  0  0  0  0  0
    1.2790    1.4796   -4.9904 H   0  0  0  0  0  0  0  0  0  0  0  0
    0.7497    3.0490   -5.1451 H   0  0  0  0  0  0  0  0  0  0  0  0
    1.8759    2.6615   -3.9841 H   0  0  0  0  0  0  0  0  0  0  0  0
   -1.1251    1.0300    1.4770 C   0  0  0  0  0  0  0  0  0  0  0  0
   -2.1085    1.7035    1.1920 O   0  0  0  0  0  0  0  0  0  0  0  0
   -0.2131    1.5138    2.3970 N   0  0  0  0  0  0  0  0  0  0  0  0
    0.5023    0.8699    2.7258 H   0  0  0  0  0  0  0  0  0  0  0  0
   -0.4230    2.7518    3.1416 C   0  0  0  0  0  0  0  0  0  0  0  0
   -1.3200    2.6767    3.7659 H   0  0  0  0  0  0  0  0  0  0  0  0
    0.4341    2.9538    3.7917 H   0  0  0  0  0  0  0  0  0  0  0  0
   -0.5415    3.5986    2.4571 H   0  0  0  0  0  0  0  0  0  0  0  0
  1  2  1  0  0  0  0
  2  3  1  0  0  0  0
  2  4  1  0  0  0  0
  2  5  1  0  0  0  0
  5  6  2  0  0  0  0
  5  7  1  0  0  0  0
  7  8  1  0  0  0  0
  7  9  1  0  0  0  0
  9 10  1  0  0  0  0
  9 11  1  0  0  0  0
  9 27  1  0  0  0  0
 11 12  1  0  0  0  0
 11 13  1  0  0  0  0
 11 14  1  0  0  0  0
 14 15  1  0  0  0  0
 14 16  1  0  0  0  0
 14 17  1  0  0  0  0
 17 18  1  0  0  0  0
 17 19  1  0  0  0  0
 17 20  1  0  0  0  0
 20 21  1  0  0  0  0
 20 22  1  0  0  0  0
 20 23  1  0  0  0  0
 23 24  1  0  0  0  0
 23 25  1  0  0  0  0
 23 26  1  0  0  0  0
 27 28  2  0  0  0  0
 27 29  1  0  0  0  0
 29 30  1  0  0  0  0
 29 31  1  0  0  0  0
 31 32  1  0  0  0  0
 31 33  1  0  0  0  0
 31 34  1  0  0  0  0
M  CHG  1  23   1
M  END
$$$$

  -OEChem-02102214153D

 34 33  0     1  0  0  0  0  0999 V2000
   -3.6378   -4.0792    1.7970 H   0  0  0  0  0  0  0  0  0  0  0  0
   -3.7224   -3.0601    1.4089 C   0  0  0  0  0  0  0  0  0  0  0  0
   -4.2970   -2.4615    2.1199 H   0  0  0  0  0  0  0  0  0  0  0  0
   -4.2534   -3.0901    0.4546 H   0  0  0  0  0  0  0  0  0  0  0  0
   -2.3434   -2.4575    1.2182 C   0  0  0  0  0  0  0  0  0  0  0  0
   -1.3450   -3.1344    1.4019 O   0  0  0  0  0  0  0  0  0  0  0  0
   -2.2103   -1.1410    0.8244 N   0  0  0  0  0  0  0  0  0  0  0  0
   -3.0641   -0.5848    0.7889 H   0  0  0  0  0  0  0  0  0  0  0  0
   -0.9378   -0.4024    0.8458 C   0  0  1  0  0  0  0  0  0  0  0  0
   -0.2523   -0.9227    1.5240 H   0  0  0  0  0  0  0  0  0  0  0  0
   -0.3100   -0.4679   -0.5681 C   0  0  0  0  0  0  0  0  0  0  0  0
    0.7759   -0.4238   -0.4332 H   0  0  0  0  0  0  0  0  0  0  0  0
   -0.5342   -1.4366   -1.0280 H   0  0  0  0  0  0  0  0  0  0  0  0
   -0.7165    0.6684   -1.5269 C   0  0  0  0  0  0  0  0  0  0  0  0
   -1.7562    0.5186   -1.8397 H   0  0  0  0  0  0  0  0  0  0  0  0
   -0.6553    1.6381   -1.0244 H   0  0  0  0  0  0  0  0  0  0  0  0
    0.2164    0.7229   -2.7413 C   0  0  0  0  0  0  0  0  0  0  0  0
    1.2442    0.9037   -2.4082 H   0  0  0  0  0  0  0  0  0  0  0  0
    0.1912   -0.2406   -3.2625 H   0  0  0  0  0  0  0  0  0  0  0  0
   -0.2346    1.8392   -3.6806 C   0  0  0  0  0  0  0  0  0  0  0  0
   -1.2757    1.6553   -3.9849 H   0  0  0  0  0  0  0  0  0  0  0  0
   -0.2216    2.7956   -3.1370 H   0  0  0  0  0  0  0  0  0  0  0  0
    0.6636    1.8812   -4.8548 N   0  3  0  0  0  0  0  0  0  0  0  0
    0.6312    0.9884   -5.3509 H   0  0  0  0  0  0  0  0  0  0  0  0
    0.3727    2.6257   -5.4925 H   0  0  0  0  0  0  0  0  0  0  0  0
    1.6238    2.0587   -4.5540 H   0  0  0  0  0  0  0  0  0  0  0  0
   -1.1115    1.0101    1.4438 C   0  0  0  0  0  0  0  0  0  0  0  0
   -2.0797    1.6879    1.1184 O   0  0  0  0  0  0  0  0  0  0  0  0
   -0.2109    1.5073    2.3676 N   0  0  0  0  0  0  0  0  0  0  0  0
    0.4997    0.8692    2.7175 H   0  0  0  0  0  0  0  0  0  0  0  0
   -0.4136    2.7713    3.0692 C   0  0  0  0  0  0  0  0  0  0  0  0
   -1.3380    2.7411    3.6560 H   0  0  0  0  0  0  0  0  0  0  0  0
    0.4210    2.9654    3.7500 H   0  0  0  0  0  0  0  0  0  0  0  0
   -0.4766    3.6017    2.3581 H   0  0  0  0  0  0  0  0  0  0  0  0
  1  2  1  0  0  0  0
  2  3  1  0  0  0  0
  2  4  1  0  0  0  0
  2  5  1  0  0  0  0
  5  6  2  0  0  0  0
  5  7  1  0  0  0  0
  7  8  1  0  0  0  0
  7  9  1  0  0  0  0
  9 10  1  0  0  0  0
  9 11  1  0  0  0  0
  9 27  1  0  0  0  0
 11 12  1  0  0  0  0
 11 13  1  0  0  0  0
 11 14  1  0  0  0  0
 14 15  1  0  0  0  0
 14 16  1  0  0  0  0
 14 17  1  0  0  0  0
 17 18  1  0  0  0  0
 17 19  1  0  0  0  0
 17 20  1  0  0  0  0
 20 21  1  0  0  0  0
 20 22  1  0  0  0  0
 20 23  1  0  0  0  0
 23 24  1  0  0  0  0
 23 25  1  0  0  0  0
 23 26  1  0  0  0  0
 27 28  2  0  0  0  0
 27 29  1  0  0  0  0
 29 30  1  0  0  0  0
 29 31  1  0  0  0  0
 31 32  1  0  0  0  0
 31 33  1  0  0  0  0
 31 34  1  0  0  0  0
M  CHG  1  23   1
M  END
$$$$

  -OEChem-02102214153D

 34 33  0     1  0  0  0  0  0999 V2000
   -3.6532   -4.0731    1.7960 H   0  0  0  0  0  0  0  0  0  0  0  0
   -3.7306   -3.0585    1.3949 C   0  0  0  0  0  0  0  0  0  0  0  0
   -4.3213   -2.4528    2.0863 H   0  0  0  0  0  0  0  0  0  0  0  0
   -4.2402   -3.0997    0.4294 H   0  0  0  0  0  0  0  0  0  0  0  0
   -2.3482   -2.4575    1.2277 C   0  0  0  0  0  0  0  0  0  0  0  0
   -1.3543   -3.1342    1.4348 O   0  0  0  0  0  0  0  0  0  0  0  0
   -2.2058   -1.1452    0.8234 N   0  0  0  0  0  0  0  0  0  0  0  0
   -3.0573   -0.5875    0.7647 H   0  0  0  0  0  0  0  0  0  0  0  0
   -0.9297   -0.4127    0.8473 C   0  0  1  0  0  0  0  0  0  0  0  0
   -0.2487   -0.9290    1.5329 H   0  0  0  0  0  0  0  0  0  0  0  0
   -0.2943   -0.4811   -0.5657 C   0  0  0  0  0  0  0  0  0  0  0  0
    0.7663   -0.7228   -0.4405 H   0  0  0  0  0  0  0  0  0  0  0  0
   -0.7430   -1.3072   -1.1286 H   0  0  0  0  0  0  0  0  0  0  0  0
   -0.3942    0.8158   -1.3880 C   0  0  0  0  0  0  0  0  0  0  0  0
   -1.4510    1.0795   -1.5135 H   0  0  0  0  0  0  0  0  0  0  0  0
    0.1004    1.6365   -0.8567 H   0  0  0  0  0  0  0  0  0  0  0  0
    0.2598    0.6432   -2.7623 C   0  0  0  0  0  0  0  0  0  0  0  0
    1.3201    0.3980   -2.6355 H   0  0  0  0  0  0  0  0  0  0  0  0
   -0.2212   -0.1869   -3.2915 H   0  0  0  0  0  0  0  0  0  0  0  0
    0.1100    1.9324   -3.5670 C   0  0  0  0  0  0  0  0  0  0  0  0
   -0.9583    2.1803   -3.6554 H   0  0  0  0  0  0  0  0  0  0  0  0
    0.5882    2.7581   -3.0196 H   0  0  0  0  0  0  0  0  0  0  0  0
    0.7257    1.7472   -4.8990 N   0  3  0  0  0  0  0  0  0  0  0  0
    0.2617    0.9830   -5.3942 H   0  0  0  0  0  0  0  0  0  0  0  0
    0.6343    2.6034   -5.4503 H   0  0  0  0  0  0  0  0  0  0  0  0
    1.7173    1.5223   -4.7973 H   0  0  0  0  0  0  0  0  0  0  0  0
   -1.1077    1.0049    1.4330 C   0  0  0  0  0  0  0  0  0  0  0  0
   -2.0539    1.6946    1.0705 O   0  0  0  0  0  0  0  0  0  0  0  0
   -0.2141    1.5068    2.3610 N   0  0  0  0  0  0  0  0  0  0  0  0
    0.4810    0.8649    2.7347 H   0  0  0  0  0  0  0  0  0  0  0  0
   -0.4129    2.7843    3.0386 C   0  0  0  0  0  0  0  0  0  0  0  0
   -1.3525    2.7779    3.6017 H   0  0  0  0  0  0  0  0  0  0  0  0
    0.4069    2.9753    3.7382 H   0  0  0  0  0  0  0  0  0  0  0  0
   -0.4439    3.6042    2.3133 H   0  0  0  0  0  0  0  0  0  0  0  0
  1  2  1  0  0  0  0
  2  3  1  0  0  0  0
  2  4  1  0  0  0  0
  2  5  1  0  0  0  0
  5  6  2  0  0  0  0
  5  7  1  0  0  0  0
  7  8  1  0  0  0  0
  7  9  1  0  0  0  0
  9 10  1  0  0  0  0
  9 11  1  0  0  0  0
  9 27  1  0  0  0  0
 11 12  1  0  0  0  0
 11 13  1  0  0  0  0
 11 14  1  0  0  0  0
 14 15  1  0  0  0  0
 14 16  1  0  0  0  0
 14 17  1  0  0  0  0
 17 18  1  0  0  0  0
 17 19  1  0  0  0  0
 17 20  1  0  0  0  0
 20 21  1  0  0  0  0
 20 22  1  0  0  0  0
 20 23  1  0  0  0  0
 23 24  1  0  0  0  0
 23 25  1  0  0  0  0
 23 26  1  0  0  0  0
 27 28  2  0  0  0  0
 27 29  1  0  0  0  0
 29 30  1  0  0  0  0
 29 31  1  0  0  0  0
 31 32  1  0  0  0  0
 31 33  1  0  0  0  0
 31 34  1  0  0  0  0
M  CHG  1  23   1
M  END
$$$$

  -OEChem-02102214153D

 34 33  0     1  0  0  0  0  0999 V2000
   -3.6516   -4.0729    1.8198 H   0  0  0  0  0  0  0  0  0  0  0  0
   -3.7357   -3.0603    1.4148 C   0  0  0  0  0  0  0  0  0  0  0  0
   -4.3191   -2.4524    2.1107 H   0  0  0  0  0  0  0  0  0  0  0  0
   -4.2568   -3.1065    0.4556 H   0  0  0  0  0  0  0  0  0  0  0  0
   -2.3562   -2.4585    1.2272 C   0  0  0  0  0  0  0  0  0  0  0  0
   -1.3592   -3.1372    1.4111 O   0  0  0  0  0  0  0  0  0  0  0  0
   -2.2215   -1.1447    0.8252 N   0  0  0  0  0  0  0  0  0  0  0  0
   -3.0742   -0.5871    0.7910 H   0  0  0  0  0  0  0  0  0  0  0  0
   -0.9473   -0.4085    0.8395 C   0  0  1  0  0  0  0  0  0  0  0  0
   -0.2664   -0.9254    1.5246 H   0  0  0  0  0  0  0  0  0  0  0  0
   -0.3029   -0.4818   -0.5686 C   0  0  0  0  0  0  0  0  0  0  0  0
    0.7580   -0.7262   -0.4500 H   0  0  0  0  0  0  0  0  0  0  0  0
   -0.7567   -1.3112   -1.1224 H   0  0  0  0  0  0  0  0  0  0  0  0
   -0.4069    0.8112   -1.3970 C   0  0  0  0  0  0  0  0  0  0  0  0
   -1.4311    1.1963   -1.3385 H   0  0  0  0  0  0  0  0  0  0  0  0
    0.2671    1.5723   -0.9876 H   0  0  0  0  0  0  0  0  0  0  0  0
   -0.0860    0.5454   -2.8713 C   0  0  0  0  0  0  0  0  0  0  0  0
    0.9358    0.1597   -2.9593 H   0  0  0  0  0  0  0  0  0  0  0  0
   -0.7717   -0.2146   -3.2622 H   0  0  0  0  0  0  0  0  0  0  0  0
   -0.2331    1.8395   -3.6683 C   0  0  0  0  0  0  0  0  0  0  0  0
   -1.2535    2.2292   -3.5363 H   0  0  0  0  0  0  0  0  0  0  0  0
    0.4557    2.5948   -3.2621 H   0  0  0  0  0  0  0  0  0  0  0  0
    0.0530    1.5665   -5.0933 N   0  3  0  0  0  0  0  0  0  0  0  0
   -0.6016    0.8688   -5.4524 H   0  0  0  0  0  0  0  0  0  0  0  0
   -0.0427    2.4240   -5.6417 H   0  0  0  0  0  0  0  0  0  0  0  0
    1.0053    1.2111   -5.1964 H   0  0  0  0  0  0  0  0  0  0  0  0
   -1.1110    1.0100    1.4287 C   0  0  0  0  0  0  0  0  0  0  0  0
   -2.0740    1.6943    1.1023 O   0  0  0  0  0  0  0  0  0  0  0  0
   -0.2034    1.5067    2.3458 N   0  0  0  0  0  0  0  0  0  0  0  0
    0.5078    0.8681    2.6937 H   0  0  0  0  0  0  0  0  0  0  0  0
   -0.3873    2.7814    3.0330 C   0  0  0  0  0  0  0  0  0  0  0  0
   -1.3185    2.7762    3.6099 H   0  0  0  0  0  0  0  0  0  0  0  0
    0.4435    2.9651    3.7215 H   0  0  0  0  0  0  0  0  0  0  0  0
   -0.4252    3.6054    2.3128 H   0  0  0  0  0  0  0  0  0  0  0  0
  1  2  1  0  0  0  0
  2  3  1  0  0  0  0
  2  4  1  0  0  0  0
  2  5  1  0  0  0  0
  5  6  2  0  0  0  0
  5  7  1  0  0  0  0
  7  8  1  0  0  0  0
  7  9  1  0  0  0  0
  9 10  1  0  0  0  0
  9 11  1  0  0  0  0
  9 27  1  0  0  0  0
 11 12  1  0  0  0  0
 11 13  1  0  0  0  0
 11 14  1  0  0  0  0
 14 15  1  0  0  0  0
 14 16  1  0  0  0  0
 14 17  1  0  0  0  0
 17 18  1  0  0  0  0
 17 19  1  0  0  0  0
 17 20  1  0  0  0  0
 20 21  1  0  0  0  0
 20 22  1  0  0  0  0
 20 23  1  0  0  0  0
 23 24  1  0  0  0  0
 23 25  1  0  0  0  0
 23 26  1  0  0  0  0
 27 28  2  0  0  0  0
 27 29  1  0  0  0  0
 29 30  1  0  0  0  0
 29 31  1  0  0  0  0
 31 32  1  0  0  0  0
 31 33  1  0  0  0  0
 31 34  1  0  0  0  0
M  CHG  1  23   1
M  END
$$$$

  -OEChem-02102214153D

 34 33  0     1  0  0  0  0  0999 V2000
   -3.6388   -4.0696    1.8347 H   0  0  0  0  0  0  0  0  0  0  0  0
   -3.7329   -3.0555    1.4356 C   0  0  0  0  0  0  0  0  0  0  0  0
   -4.3004   -2.4510    2.1474 H   0  0  0  0  0  0  0  0  0  0  0  0
   -4.2765   -3.0983    0.4890 H   0  0  0  0  0  0  0  0  0  0  0  0
   -2.3591   -2.4507    1.2177 C   0  0  0  0  0  0  0  0  0  0  0  0
   -1.3570   -3.1320    1.3595 O   0  0  0  0  0  0  0  0  0  0  0  0
   -2.2362   -1.1308    0.8319 N   0  0  0  0  0  0  0  0  0  0  0  0
   -3.0895   -0.5729    0.8401 H   0  0  0  0  0  0  0  0  0  0  0  0
   -0.9638   -0.3907    0.8371 C   0  0  1  0  0  0  0  0  0  0  0  0
   -0.2798   -0.9132    1.5153 H   0  0  0  0  0  0  0  0  0  0  0  0
   -0.3187   -0.4598   -0.5716 C   0  0  0  0  0  0  0  0  0  0  0  0
    0.7423   -0.7047   -0.4558 H   0  0  0  0  0  0  0  0  0  0  0  0
   -0.7718   -1.2966   -1.1146 H   0  0  0  0  0  0  0  0  0  0  0  0
   -0.4183    0.8256   -1.4176 C   0  0  0  0  0  0  0  0  0  0  0  0
   -1.3479    1.3543   -1.1863 H   0  0  0  0  0  0  0  0  0  0  0  0
    0.4187    1.4921   -1.1808 H   0  0  0  0  0  0  0  0  0  0  0  0
   -0.4581    0.4956   -2.9136 C   0  0  0  0  0  0  0  0  0  0  0  0
    0.4601   -0.0321   -3.1945 H   0  0  0  0  0  0  0  0  0  0  0  0
   -1.3081   -0.1647   -3.1193 H   0  0  0  0  0  0  0  0  0  0  0  0
   -0.5955    1.7840   -3.7208 C   0  0  0  0  0  0  0  0  0  0  0  0
   -1.5001    2.3184   -3.3943 H   0  0  0  0  0  0  0  0  0  0  0  0
    0.2618    2.4388   -3.5060 H   0  0  0  0  0  0  0  0  0  0  0  0
   -0.6656    1.4498   -5.1596 N   0  3  0  0  0  0  0  0  0  0  0  0
   -1.4707    0.8463   -5.3382 H   0  0  0  0  0  0  0  0  0  0  0  0
   -0.7616    2.3032   -5.7144 H   0  0  0  0  0  0  0  0  0  0  0  0
    0.1846    0.9611   -5.4465 H   0  0  0  0  0  0  0  0  0  0  0  0
   -1.1185    1.0195    1.4481 C   0  0  0  0  0  0  0  0  0  0  0  0
   -2.1058    1.6926    1.1748 O   0  0  0  0  0  0  0  0  0  0  0  0
   -0.1954    1.5032    2.3564 N   0  0  0  0  0  0  0  0  0  0  0  0
    0.5378    0.8684    2.6629 H   0  0  0  0  0  0  0  0  0  0  0  0
   -0.3735    2.7596    3.0780 C   0  0  0  0  0  0  0  0  0  0  0  0
   -1.2955    2.7367    3.6691 H   0  0  0  0  0  0  0  0  0  0  0  0
    0.4676    2.9289    3.7577 H   0  0  0  0  0  0  0  0  0  0  0  0
   -0.4257    3.6008    2.3788 H   0  0  0  0  0  0  0  0  0  0  0  0
  1  2  1  0  0  0  0
  2  3  1  0  0  0  0
  2  4  1  0  0  0  0
  2  5  1  0  0  0  0
  5  6  2  0  0  0  0
  5  7  1  0  0  0  0
  7  8  1  0  0  0  0
  7  9  1  0  0  0  0
  9 10  1  0  0  0  0
  9 11  1  0  0  0  0
  9 27  1  0  0  0  0
 11 12  1  0  0  0  0
 11 13  1  0  0  0  0
 11 14  1  0  0  0  0
 14 15  1  0  0  0  0
 14 16  1  0  0  0  0
 14 17  1  0  0  0  0
 17 18  1  0  0  0  0
 17 19  1  0  0  0  0
 17 20  1  0  0  0  0
 20 21  1  0  0  0  0
 20 22  1  0  0  0  0
 20 23  1  0  0  0  0
 23 24  1  0  0  0  0
 23 25  1  0  0  0  0
 23 26  1  0  0  0  0
 27 28  2  0  0  0  0
 27 29  1  0  0  0  0
 29 30  1  0  0  0  0
 29 31  1  0  0  0  0
 31 32  1  0  0  0  0
 31 33  1  0  0  0  0
 31 34  1  0  0  0  0
M  CHG  1  23   1
M  END
$$$$

  -OEChem-02102214153D

 34 33  0     1  0  0  0  0  0999 V2000
   -3.6268   -4.0866    1.7868 H   0  0  0  0  0  0  0  0  0  0  0  0
   -3.7310   -3.0446    1.4708 C   0  0  0  0  0  0  0  0  0  0  0  0
   -4.2390   -2.4883    2.2624 H   0  0  0  0  0  0  0  0  0  0  0  0
   -4.3380   -3.0114    0.5631 H   0  0  0  0  0  0  0  0  0  0  0  0
   -2.3648   -2.4416    1.2054 C   0  0  0  0  0  0  0  0  0  0  0  0
   -1.3615   -3.1292    1.2985 O   0  0  0  0  0  0  0  0  0  0  0  0
   -2.2497   -1.1155    0.8379 N   0  0  0  0  0  0  0  0  0  0  0  0
   -3.0992   -0.5544    0.8940 H   0  0  0  0  0  0  0  0  0  0  0  0
   -0.9758   -0.3772    0.8379 C   0  0  1  0  0  0  0  0  0  0  0  0
   -0.2894   -0.9092    1.5065 H   0  0  0  0  0  0  0  0  0  0  0  0
   -0.3358   -0.4398   -0.5748 C   0  0  0  0  0  0  0  0  0  0  0  0
    0.7256   -0.6799   -0.4517 H   0  0  0  0  0  0  0  0  0  0  0  0
   -0.7756   -1.2864   -1.1136 H   0  0  0  0  0  0  0  0  0  0  0  0
   -0.4216    0.8391   -1.4405 C   0  0  0  0  0  0  0  0  0  0  0  0
   -1.1723    1.5301   -1.0513 H   0  0  0  0  0  0  0  0  0  0  0  0
    0.5444    1.3562   -1.4231 H   0  0  0  0  0  0  0  0  0  0  0  0
   -0.8316    0.5001   -2.8785 C   0  0  0  0  0  0  0  0  0  0  0  0
   -0.0850   -0.1681   -3.3220 H   0  0  0  0  0  0  0  0  0  0  0  0
   -1.7945   -0.0233   -2.8658 H   0  0  0  0  0  0  0  0  0  0  0  0
   -0.9494    1.7798   -3.7032 C   0  0  0  0  0  0  0  0  0  0  0  0
   -1.6693    2.4564   -3.2188 H   0  0  0  0  0  0  0  0  0  0  0  0
    0.0222    2.2951   -3.7134 H   0  0  0  0  0  0  0  0  0  0  0  0
   -1.3850    1.4316   -5.0729 N   0  3  0  0  0  0  0  0  0  0  0  0
   -2.2935    0.9649   -5.0407 H   0  0  0  0  0  0  0  0  0  0  0  0
   -1.4668    2.2772   -5.6416 H   0  0  0  0  0  0  0  0  0  0  0  0
   -0.7053    0.8039   -5.5065 H   0  0  0  0  0  0  0  0  0  0  0  0
   -1.1253    1.0224    1.4735 C   0  0  0  0  0  0  0  0  0  0  0  0
   -2.1277    1.6873    1.2351 O   0  0  0  0  0  0  0  0  0  0  0  0
   -0.1940    1.4961    2.3788 N   0  0  0  0  0  0  0  0  0  0  0  0
    0.5537    0.8653    2.6575 H   0  0  0  0  0  0  0  0  0  0  0  0
   -0.3733    2.7350    3.1295 C   0  0  0  0  0  0  0  0  0  0  0  0
   -1.2530    2.6669    3.7786 H   0  0  0  0  0  0  0  0  0  0  0  0
    0.5035    2.9299    3.7553 H   0  0  0  0  0  0  0  0  0  0  0  0
   -0.5042    3.5828    2.4486 H   0  0  0  0  0  0  0  0  0  0  0  0
  1  2  1  0  0  0  0
  2  3  1  0  0  0  0
  2  4  1  0  0  0  0
  2  5  1  0  0  0  0
  5  6  2  0  0  0  0
  5  7  1  0  0  0  0
  7  8  1  0  0  0  0
  7  9  1  0  0  0  0
  9 10  1  0  0  0  0
  9 11  1  0  0  0  0
  9 27  1  0  0  0  0
 11 12  1  0  0  0  0
 11 13  1  0  0  0  0
 11 14  1  0  0  0  0
 14 15  1  0  0  0  0
 14 16  1  0  0  0  0
 14 17  1  0  0  0  0
 17 18  1  0  0  0  0
 17 19  1  0  0  0  0
 17 20  1  0  0  0  0
 20 21  1  0  0  0  0
 20 22  1  0  0  0  0
 20 23  1  0  0  0  0
 23 24  1  0  0  0  0
 23 25  1  0  0  0  0
 23 26  1  0  0  0  0
 27 28  2  0  0  0  0
 27 29  1  0  0  0  0
 29 30  1  0  0  0  0
 29 31  1  0  0  0  0
 31 32  1  0  0  0  0
 31 33  1  0  0  0  0
 31 34  1  0  0  0  0
M  CHG  1  23   1
M  END
$$$$

  -OEChem-02102214153D

 34 33  0     1  0  0  0  0  0999 V2000
   -3.6385   -4.0734    1.7993 H   0  0  0  0  0  0  0  0  0  0  0  0
   -3.7356   -3.0318    1.4794 C   0  0  0  0  0  0  0  0  0  0  0  0
   -4.2419   -2.4695    2.2678 H   0  0  0  0  0  0  0  0  0  0  0  0
   -4.3398   -2.9980    0.5700 H   0  0  0  0  0  0  0  0  0  0  0  0
   -2.3652   -2.4378    1.2157 C   0  0  0  0  0  0  0  0  0  0  0  0
   -1.3665   -3.1312    1.3131 O   0  0  0  0  0  0  0  0  0  0  0  0
   -2.2417   -1.1135    0.8445 N   0  0  0  0  0  0  0  0  0  0  0  0
   -3.0865   -0.5460    0.9046 H   0  0  0  0  0  0  0  0  0  0  0  0
   -0.9621   -0.3848    0.8466 C   0  0  1  0  0  0  0  0  0  0  0  0
   -0.2750   -0.9171    1.5142 H   0  0  0  0  0  0  0  0  0  0  0  0
   -0.3355   -0.4536   -0.5731 C   0  0  0  0  0  0  0  0  0  0  0  0
    0.7263   -0.6860   -0.4376 H   0  0  0  0  0  0  0  0  0  0  0  0
   -0.7600   -1.3098   -1.1092 H   0  0  0  0  0  0  0  0  0  0  0  0
   -0.4044    0.8174   -1.4556 C   0  0  0  0  0  0  0  0  0  0  0  0
   -0.8782    1.6559   -0.9433 H   0  0  0  0  0  0  0  0  0  0  0  0
    0.6169    1.1313   -1.6992 H   0  0  0  0  0  0  0  0  0  0  0  0
   -1.1732    0.5412   -2.7526 C   0  0  0  0  0  0  0  0  0  0  0  0
   -0.6520   -0.2286   -3.3328 H   0  0  0  0  0  0  0  0  0  0  0  0
   -2.1716    0.1641   -2.5033 H   0  0  0  0  0  0  0  0  0  0  0  0
   -1.2939    1.8272   -3.5670 C   0  0  0  0  0  0  0  0  0  0  0  0
   -1.7717    2.6011   -2.9477 H   0  0  0  0  0  0  0  0  0  0  0  0
   -0.2877    2.1915   -3.8211 H   0  0  0  0  0  0  0  0  0  0  0  0
   -2.0883    1.5560   -4.7841 N   0  3  0  0  0  0  0  0  0  0  0  0
   -3.0235    1.2365   -4.5242 H   0  0  0  0  0  0  0  0  0  0  0  0
   -2.1726    2.4062   -5.3455 H   0  0  0  0  0  0  0  0  0  0  0  0
   -1.6340    0.8317   -5.3435 H   0  0  0  0  0  0  0  0  0  0  0  0
   -1.1217    1.0139    1.4810 C   0  0  0  0  0  0  0  0  0  0  0  0
   -2.1209    1.6776    1.2234 O   0  0  0  0  0  0  0  0  0  0  0  0
   -0.2003    1.4922    2.3938 N   0  0  0  0  0  0  0  0  0  0  0  0
    0.5520    0.8677    2.6747 H   0  0  0  0  0  0  0  0  0  0  0  0
   -0.3822    2.7380    3.1325 C   0  0  0  0  0  0  0  0  0  0  0  0
   -1.2737    2.6820    3.7666 H   0  0  0  0  0  0  0  0  0  0  0  0
    0.4852    2.9294    3.7722 H   0  0  0  0  0  0  0  0  0  0  0  0
   -0.4935    3.5823    2.4438 H   0  0  0  0  0  0  0  0  0  0  0  0
  1  2  1  0  0  0  0
  2  3  1  0  0  0  0
  2  4  1  0  0  0  0
  2  5  1  0  0  0  0
  5  6  2  0  0  0  0
  5  7  1  0  0  0  0
  7  8  1  0  0  0  0
  7  9  1  0  0  0  0
  9 10  1  0  0  0  0
  9 11  1  0  0  0  0
  9 27  1  0  0  0  0
 11 12  1  0  0  0  0
 11 13  1  0  0  0  0
 11 14  1  0  0  0  0
 14 15  1  0  0  0  0
 14 16  1  0  0  0  0
 14 17  1  0  0  0  0
 17 18  1  0  0  0  0
 17 19  1  0  0  0  0
 17 20  1  0  0  0  0
 20 21  1  0  0  0  0
 20 22  1  0  0  0  0
 20 23  1  0  0  0  0
 23 24  1  0  0  0  0
 23 25  1  0  0  0  0
 23 26  1  0  0  0  0
 27 28  2  0  0  0  0
 27 29  1  0  0  0  0
 29 30  1  0  0  0  0
 29 31  1  0  0  0  0
 31 32  1  0  0  0  0
 31 33  1  0  0  0  0
 31 34  1  0  0  0  0
M  CHG  1  23   1
M  END
$$$$

  -OEChem-02102214153D

 34 33  0     1  0  0  0  0  0999 V2000
   -3.6636   -4.0587    1.8425 H   0  0  0  0  0  0  0  0  0  0  0  0
   -3.7444   -3.0253    1.4930 C   0  0  0  0  0  0  0  0  0  0  0  0
   -4.2604   -2.4371    2.2558 H   0  0  0  0  0  0  0  0  0  0  0  0
   -4.3303   -3.0105    0.5711 H   0  0  0  0  0  0  0  0  0  0  0  0
   -2.3634   -2.4517    1.2407 C   0  0  0  0  0  0  0  0  0  0  0  0
   -1.3735   -3.1491    1.3835 O   0  0  0  0  0  0  0  0  0  0  0  0
   -2.2208   -1.1393    0.8357 N   0  0  0  0  0  0  0  0  0  0  0  0
   -3.0607   -0.5630    0.8683 H   0  0  0  0  0  0  0  0  0  0  0  0
   -0.9335   -0.4242    0.8447 C   0  0  1  0  0  0  0  0  0  0  0  0
   -0.2502   -0.9449    1.5251 H   0  0  0  0  0  0  0  0  0  0  0  0
   -0.3132   -0.5064   -0.5780 C   0  0  0  0  0  0  0  0  0  0  0  0
    0.7484   -0.7332   -0.4309 H   0  0  0  0  0  0  0  0  0  0  0  0
   -0.7290   -1.3645   -1.1180 H   0  0  0  0  0  0  0  0  0  0  0  0
   -0.3693    0.7642   -1.4598 C   0  0  0  0  0  0  0  0  0  0  0  0
   -0.5232    1.6781   -0.8830 H   0  0  0  0  0  0  0  0  0  0  0  0
    0.6026    0.8768   -1.9532 H   0  0  0  0  0  0  0  0  0  0  0  0
   -1.4404    0.6251   -2.5461 C   0  0  0  0  0  0  0  0  0  0  0  0
   -1.1709   -0.1855   -3.2323 H   0  0  0  0  0  0  0  0  0  0  0  0
   -2.3943    0.3692   -2.0710 H   0  0  0  0  0  0  0  0  0  0  0  0
   -1.5822    1.9421   -3.3047 C   0  0  0  0  0  0  0  0  0  0  0  0
   -1.7725    2.7516   -2.5840 H   0  0  0  0  0  0  0  0  0  0  0  0
   -0.6339    2.1744   -3.8109 H   0  0  0  0  0  0  0  0  0  0  0  0
   -2.6944    1.8246   -4.2716 N   0  3  0  0  0  0  0  0  0  0  0  0
   -3.5660    1.6312   -3.7741 H   0  0  0  0  0  0  0  0  0  0  0  0
   -2.7986    2.6960   -4.7955 H   0  0  0  0  0  0  0  0  0  0  0  0
   -2.5096    1.0623   -4.9260 H   0  0  0  0  0  0  0  0  0  0  0  0
   -1.1194    0.9871    1.4414 C   0  0  0  0  0  0  0  0  0  0  0  0
   -2.0967    1.6517    1.1072 O   0  0  0  0  0  0  0  0  0  0  0  0
   -0.2289    1.4948    2.3683 N   0  0  0  0  0  0  0  0  0  0  0  0
    0.5092    0.8779    2.6997 H   0  0  0  0  0  0  0  0  0  0  0  0
   -0.4265    2.7712    3.0479 C   0  0  0  0  0  0  0  0  0  0  0  0
   -1.3468    2.7520    3.6415 H   0  0  0  0  0  0  0  0  0  0  0  0
    0.4130    2.9776    3.7195 H   0  0  0  0  0  0  0  0  0  0  0  0
   -0.4936    3.5881    2.3215 H   0  0  0  0  0  0  0  0  0  0  0  0
  1  2  1  0  0  0  0
  2  3  1  0  0  0  0
  2  4  1  0  0  0  0
  2  5  1  0  0  0  0
  5  6  2  0  0  0  0
  5  7  1  0  0  0  0
  7  8  1  0  0  0  0
  7  9  1  0  0  0  0
  9 10  1  0  0  0  0
  9 11  1  0  0  0  0
  9 27  1  0  0  0  0
 11 12  1  0  0  0  0
 11 13  1  0  0  0  0
 11 14  1  0  0  0  0
 14 15  1  0  0  0  0
 14 16  1  0  0  0  0
 14 17  1  0  0  0  0
 17 18  1  0  0  0  0
 17 19  1  0  0  0  0
 17 20  1  0  0  0  0
 20 21  1  0  0  0  0
 20 22  1  0  0  0  0
 20 23  1  0  0  0  0
 23 24  1  0  0  0  0
 23 25  1  0  0  0  0
 23 26  1  0  0  0  0
 27 28  2  0  0  0  0
 27 29  1  0  0  0  0
 29 30  1  0  0  0  0
 29 31  1  0  0  0  0
 31 32  1  0  0  0  0
 31 33  1  0  0  0  0
 31 34  1  0  0  0  0
M  CHG  1  23   1
M  END
$$$$

  -OEChem-02102214153D

 34 33  0     1  0  0  0  0  0999 V2000
   -3.6747   -4.0485    1.9094 H   0  0  0  0  0  0  0  0  0  0  0  0
   -3.7481   -3.0367    1.5000 C   0  0  0  0  0  0  0  0  0  0  0  0
   -4.2996   -2.4122    2.2070 H   0  0  0  0  0  0  0  0  0  0  0  0
   -4.2949   -3.0789    0.5553 H   0  0  0  0  0  0  0  0  0  0  0  0
   -2.3616   -2.4655    1.2730 C   0  0  0  0  0  0  0  0  0  0  0  0
   -1.3746   -3.1496    1.4830 O   0  0  0  0  0  0  0  0  0  0  0  0
   -2.2109   -1.1685    0.8219 N   0  0  0  0  0  0  0  0  0  0  0  0
   -3.0519   -0.5942    0.8120 H   0  0  0  0  0  0  0  0  0  0  0  0
   -0.9220   -0.4553    0.8320 C   0  0  1  0  0  0  0  0  0  0  0  0
   -0.2431   -0.9525    1.5342 H   0  0  0  0  0  0  0  0  0  0  0  0
   -0.2917   -0.5627   -0.5849 C   0  0  0  0  0  0  0  0  0  0  0  0
    0.7683   -0.7914   -0.4324 H   0  0  0  0  0  0  0  0  0  0  0  0
   -0.7118   -1.4191   -1.1242 H   0  0  0  0  0  0  0  0  0  0  0  0
   -0.3475    0.7020   -1.4682 C   0  0  0  0  0  0  0  0  0  0  0  0
   -0.2283    1.6189   -0.8845 H   0  0  0  0  0  0  0  0  0  0  0  0
    0.5023    0.6707   -2.1593 H   0  0  0  0  0  0  0  0  0  0  0  0
   -1.6320    0.7287   -2.3026 C   0  0  0  0  0  0  0  0  0  0  0  0
   -1.6023   -0.0592   -3.0631 H   0  0  0  0  0  0  0  0  0  0  0  0
   -2.4864    0.5353   -1.6447 H   0  0  0  0  0  0  0  0  0  0  0  0
   -1.7929    2.1004   -2.9508 C   0  0  0  0  0  0  0  0  0  0  0  0
   -1.6905    2.8744   -2.1751 H   0  0  0  0  0  0  0  0  0  0  0  0
   -0.9838    2.2586   -3.6786 H   0  0  0  0  0  0  0  0  0  0  0  0
   -3.1224    2.1765   -3.5917 N   0  3  0  0  0  0  0  0  0  0  0  0
   -3.8511    2.0702   -2.8826 H   0  0  0  0  0  0  0  0  0  0  0  0
   -3.2393    3.0807   -4.0534 H   0  0  0  0  0  0  0  0  0  0  0  0
   -3.2206    1.4323   -4.2843 H   0  0  0  0  0  0  0  0  0  0  0  0
   -1.1296    0.9759    1.3740 C   0  0  0  0  0  0  0  0  0  0  0  0
   -2.0828    1.6381    0.9677 O   0  0  0  0  0  0  0  0  0  0  0  0
   -0.2631    1.5183    2.3034 N   0  0  0  0  0  0  0  0  0  0  0  0
    0.4571    0.9090    2.6852 H   0  0  0  0  0  0  0  0  0  0  0  0
   -0.4757    2.8189    2.9297 C   0  0  0  0  0  0  0  0  0  0  0  0
   -1.4243    2.8313    3.4771 H   0  0  0  0  0  0  0  0  0  0  0  0
    0.3321    3.0365    3.6355 H   0  0  0  0  0  0  0  0  0  0  0  0
   -0.4943    3.6118    2.1749 H   0  0  0  0  0  0  0  0  0  0  0  0
  1  2  1  0  0  0  0
  2  3  1  0  0  0  0
  2  4  1  0  0  0  0
  2  5  1  0  0  0  0
  5  6  2  0  0  0  0
  5  7  1  0  0  0  0
  7  8  1  0  0  0  0
  7  9  1  0  0  0  0
  9 10  1  0  0  0  0
  9 11  1  0  0  0  0
  9 27  1  0  0  0  0
 11 12  1  0  0  0  0
 11 13  1  0  0  0  0
 11 14  1  0  0  0  0
 14 15  1  0  0  0  0
 14 16  1  0  0  0  0
 14 17  1  0  0  0  0
 17 18  1  0  0  0  0
 17 19  1  0  0  0  0
 17 20  1  0  0  0  0
 20 21  1  0  0  0  0
 20 22  1  0  0  0  0
 20 23  1  0  0  0  0
 23 24  1  0  0  0  0
 23 25  1  0  0  0  0
 23 26  1  0  0  0  0
 27 28  2  0  0  0  0
 27 29  1  0  0  0  0
 29 30  1  0  0  0  0
 29 31  1  0  0  0  0
 31 32  1  0  0  0  0
 31 33  1  0  0  0  0
 31 34  1  0  0  0  0
M  CHG  1  23   1
M  END
$$$$

  -OEChem-02102214153D

 34 33  0     1  0  0  0  0  0999 V2000
   -3.5362   -4.2536    1.7330 H   0  0  0  0  0  0  0  0  0  0  0  0
   -3.6843   -3.2501    1.3232 C   0  0  0  0  0  0  0  0  0  0  0  0
   -4.3841   -2.7098    1.9653 H   0  0  0  0  0  0  0  0  0  0  0  0
   -4.1121   -3.3412    0.3220 H   0  0  0  0  0  0  0  0  0  0  0  0
   -2.3595   -2.5137    1.2596 C   0  0  0  0  0  0  0  0  0  0  0  0
   -1.3408   -3.0497    1.6599 O   0  0  0  0  0  0  0  0  0  0  0  0
   -2.2987   -1.2328    0.7426 N   0  0  0  0  0  0  0  0  0  0  0  0
   -3.1880   -0.7881    0.5297 H   0  0  0  0  0  0  0  0  0  0  0  0
   -1.0925   -0.3867    0.7912 C   0  0  1  0  0  0  0  0  0  0  0  0
   -0.4454   -0.7805    1.5836 H   0  0  0  0  0  0  0  0  0  0  0  0
   -0.3007   -0.5536   -0.5362 C   0  0  0  0  0  0  0  0  0  0  0  0
    0.7558   -0.6585   -0.2665 H   0  0  0  0  0  0  0  0  0  0  0  0
   -0.5865   -1.4913   -1.0262 H   0  0  0  0  0  0  0  0  0  0  0  0
   -0.3919    0.6069   -1.5484 C   0  0  0  0  0  0  0  0  0  0  0  0
   -0.1962    1.5611   -1.0503 H   0  0  0  0  0  0  0  0  0  0  0  0
    0.3964    0.4816   -2.2991 H   0  0  0  0  0  0  0  0  0  0  0  0
   -1.7544    0.6159   -2.2689 C   0  0  0  0  0  0  0  0  0  0  0  0
   -1.7310   -0.1443   -3.0577 H   0  0  0  0  0  0  0  0  0  0  0  0
   -2.5637    0.3384   -1.5865 H   0  0  0  0  0  0  0  0  0  0  0  0
   -2.0580    1.9772   -2.8951 C   0  0  0  0  0  0  0  0  0  0  0  0
   -1.1507    2.3651   -3.3799 H   0  0  0  0  0  0  0  0  0  0  0  0
   -2.8142    1.8483   -3.6827 H   0  0  0  0  0  0  0  0  0  0  0  0
   -2.5537    2.8957   -1.8456 N   0  3  0  0  0  0  0  0  0  0  0  0
   -2.4100    2.4738   -0.9136 H   0  0  0  0  0  0  0  0  0  0  0  0
   -2.0569    3.7852   -1.8807 H   0  0  0  0  0  0  0  0  0  0  0  0
   -3.5526    3.0648   -1.9640 H   0  0  0  0  0  0  0  0  0  0  0  0
   -1.3865    1.0680    1.2215 C   0  0  0  0  0  0  0  0  0  0  0  0
   -2.2813    1.7118    0.6720 O   0  0  0  0  0  0  0  0  0  0  0  0
   -0.5839    1.6991    2.1518 N   0  0  0  0  0  0  0  0  0  0  0  0
    0.1037    1.1245    2.6370 H   0  0  0  0  0  0  0  0  0  0  0  0
   -0.8314    3.0460    2.6574 C   0  0  0  0  0  0  0  0  0  0  0  0
   -1.8252    3.1103    3.1135 H   0  0  0  0  0  0  0  0  0  0  0  0
   -0.0878    3.3066    3.4177 H   0  0  0  0  0  0  0  0  0  0  0  0
   -0.7651    3.7809    1.8487 H   0  0  0  0  0  0  0  0  0  0  0  0
  1  2  1  0  0  0  0
  2  3  1  0  0  0  0
  2  4  1  0  0  0  0
  2  5  1  0  0  0  0
  5  6  2  0  0  0  0
  5  7  1  0  0  0  0
  7  8  1  0  0  0  0
  7  9  1  0  0  0  0
  9 10  1  0  0  0  0
  9 11  1  0  0  0  0
  9 27  1  0  0  0  0
 11 12  1  0  0  0  0
 11 13  1  0  0  0  0
 11 14  1  0  0  0  0
 14 15  1  0  0  0  0
 14 16  1  0  0  0  0
 14 17  1  0  0  0  0
 17 18  1  0  0  0  0
 17 19  1  0  0  0  0
 17 20  1  0  0  0  0
 20 21  1  0  0  0  0
 20 22  1  0  0  0  0
 20 23  1  0  0  0  0
 23 24  1  0  0  0  0
 23 25  1  0  0  0  0
 23 26  1  0  0  0  0
 27 28  2  0  0  0  0
 27 29  1  0  0  0  0
 29 30  1  0  0  0  0
 29 31  1  0  0  0  0
 31 32  1  0  0  0  0
 31 33  1  0  0  0  0
 31 34  1  0  0  0  0
M  CHG  1  23   1
M  END
$$$$

  -OEChem-02102214153D

 34 33  0     1  0  0  0  0  0999 V2000
   -3.3676   -4.3282    1.8214 H   0  0  0  0  0  0  0  0  0  0  0  0
   -3.5803   -3.3349    1.4149 C   0  0  0  0  0  0  0  0  0  0  0  0
   -4.2834   -2.8279    2.0800 H   0  0  0  0  0  0  0  0  0  0  0  0
   -4.0378   -3.4505    0.4295 H   0  0  0  0  0  0  0  0  0  0  0  0
   -2.2980   -2.5324    1.3031 C   0  0  0  0  0  0  0  0  0  0  0  0
   -1.2337   -3.0284    1.6308 O   0  0  0  0  0  0  0  0  0  0  0  0
   -2.3285   -1.2361    0.8219 N   0  0  0  0  0  0  0  0  0  0  0  0
   -3.2493   -0.8364    0.6575 H   0  0  0  0  0  0  0  0  0  0  0  0
   -1.1654   -0.3301    0.8203 C   0  0  1  0  0  0  0  0  0  0  0  0
   -0.4902   -0.7139    1.5938 H   0  0  0  0  0  0  0  0  0  0  0  0
   -0.3660   -0.4744   -0.5050 C   0  0  0  0  0  0  0  0  0  0  0  0
    0.6962   -0.5309   -0.2433 H   0  0  0  0  0  0  0  0  0  0  0  0
   -0.6189   -1.4329   -0.9720 H   0  0  0  0  0  0  0  0  0  0  0  0
   -0.5120    0.6435   -1.5590 C   0  0  0  0  0  0  0  0  0  0  0  0
   -0.1467    1.5771   -1.1206 H   0  0  0  0  0  0  0  0  0  0  0  0
    0.1347    0.4180   -2.4144 H   0  0  0  0  0  0  0  0  0  0  0  0
   -1.9645    0.8196   -2.0564 C   0  0  0  0  0  0  0  0  0  0  0  0
   -2.1336    0.0860   -2.8524 H   0  0  0  0  0  0  0  0  0  0  0  0
   -2.6938    0.5881   -1.2781 H   0  0  0  0  0  0  0  0  0  0  0  0
   -2.2440    2.2159   -2.6165 C   0  0  0  0  0  0  0  0  0  0  0  0
   -1.4678    2.4853   -3.3473 H   0  0  0  0  0  0  0  0  0  0  0  0
   -3.2008    2.1877   -3.1578 H   0  0  0  0  0  0  0  0  0  0  0  0
   -2.3102    3.1903   -1.5057 N   0  3  0  0  0  0  0  0  0  0  0  0
   -2.5618    2.7009   -0.6306 H   0  0  0  0  0  0  0  0  0  0  0  0
   -1.4050    3.6376   -1.3699 H   0  0  0  0  0  0  0  0  0  0  0  0
   -3.0140    3.9041   -1.6941 H   0  0  0  0  0  0  0  0  0  0  0  0
   -1.4423    1.1136    1.3011 C   0  0  0  0  0  0  0  0  0  0  0  0
   -2.3941    1.7624    0.8698 O   0  0  0  0  0  0  0  0  0  0  0  0
   -0.5744    1.7295    2.1830 N   0  0  0  0  0  0  0  0  0  0  0  0
    0.1480    1.1442    2.6006 H   0  0  0  0  0  0  0  0  0  0  0  0
   -0.8344    3.0291    2.7962 C   0  0  0  0  0  0  0  0  0  0  0  0
   -1.7781    3.0106    3.3526 H   0  0  0  0  0  0  0  0  0  0  0  0
   -0.0301    3.2859    3.4935 H   0  0  0  0  0  0  0  0  0  0  0  0
   -0.8884    3.8127    2.0339 H   0  0  0  0  0  0  0  0  0  0  0  0
  1  2  1  0  0  0  0
  2  3  1  0  0  0  0
  2  4  1  0  0  0  0
  2  5  1  0  0  0  0
  5  6  2  0  0  0  0
  5  7  1  0  0  0  0
  7  8  1  0  0  0  0
  7  9  1  0  0  0  0
  9 10  1  0  0  0  0
  9 11  1  0  0  0  0
  9 27  1  0  0  0  0
 11 12  1  0  0  0  0
 11 13  1  0  0  0  0
 11 14  1  0  0  0  0
 14 15  1  0  0  0  0
 14 16  1  0  0  0  0
 14 17  1  0  0  0  0
 17 18  1  0  0  0  0
 17 19  1  0  0  0  0
 17 20  1  0  0  0  0
 20 21  1  0  0  0  0
 20 22  1  0  0  0  0
 20 23  1  0  0  0  0
 23 24  1  0  0  0  0
 23 25  1  0  0  0  0
 23 26  1  0  0  0  0
 27 28  2  0  0  0  0
 27 29  1  0  0  0  0
 29 30  1  0  0  0  0
 29 31  1  0  0  0  0
 31 32  1  0  0  0  0
 31 33  1  0  0  0  0
 31 34  1  0  0  0  0
M  CHG  1  23   1
M  END
$$$$

  -OEChem-02102214153D

 34 33  0     1  0  0  0  0  0999 V2000
   -3.5195   -4.1374    1.9771 H   0  0  0  0  0  0  0  0  0  0  0  0
   -3.6840   -3.1401    1.5586 C   0  0  0  0  0  0  0  0  0  0  0  0
   -4.3183   -2.5734    2.2445 H   0  0  0  0  0  0  0  0  0  0  0  0
   -4.1955   -3.2430    0.5987 H   0  0  0  0  0  0  0  0  0  0  0  0
   -2.3571   -2.4307    1.3672 C   0  0  0  0  0  0  0  0  0  0  0  0
   -1.3136   -2.9967    1.6437 O   0  0  0  0  0  0  0  0  0  0  0  0
   -2.3251   -1.1401    0.8720 N   0  0  0  0  0  0  0  0  0  0  0  0
   -3.2231   -0.6724    0.7816 H   0  0  0  0  0  0  0  0  0  0  0  0
   -1.1077   -0.3096    0.8282 C   0  0  1  0  0  0  0  0  0  0  0  0
   -0.4454   -0.7202    1.5991 H   0  0  0  0  0  0  0  0  0  0  0  0
   -0.3293   -0.5252   -0.5017 C   0  0  0  0  0  0  0  0  0  0  0  0
    0.7263   -0.6675   -0.2460 H   0  0  0  0  0  0  0  0  0  0  0  0
   -0.6653   -1.4719   -0.9392 H   0  0  0  0  0  0  0  0  0  0  0  0
   -0.3802    0.5495   -1.6135 C   0  0  0  0  0  0  0  0  0  0  0  0
    0.2858    1.3637   -1.3089 H   0  0  0  0  0  0  0  0  0  0  0  0
    0.0467    0.1239   -2.5289 H   0  0  0  0  0  0  0  0  0  0  0  0
   -1.7775    1.1220   -1.9312 C   0  0  0  0  0  0  0  0  0  0  0  0
   -2.5179    0.7108   -1.2414 H   0  0  0  0  0  0  0  0  0  0  0  0
   -2.0796    0.7831   -2.9281 H   0  0  0  0  0  0  0  0  0  0  0  0
   -1.7867    2.6563   -1.9107 C   0  0  0  0  0  0  0  0  0  0  0  0
   -0.9248    3.0192   -1.3333 H   0  0  0  0  0  0  0  0  0  0  0  0
   -1.6761    3.0398   -2.9352 H   0  0  0  0  0  0  0  0  0  0  0  0
   -3.0397    3.1166   -1.2802 N   0  3  0  0  0  0  0  0  0  0  0  0
   -3.0693    2.7508   -0.3133 H   0  0  0  0  0  0  0  0  0  0  0  0
   -3.0744    4.1354   -1.2467 H   0  0  0  0  0  0  0  0  0  0  0  0
   -3.8480    2.7638   -1.7913 H   0  0  0  0  0  0  0  0  0  0  0  0
   -1.3092    1.1470    1.3061 C   0  0  0  0  0  0  0  0  0  0  0  0
   -2.3340    1.7701    1.0260 O   0  0  0  0  0  0  0  0  0  0  0  0
   -0.3951    1.7303    2.1624 N   0  0  0  0  0  0  0  0  0  0  0  0
    0.3742    1.1463    2.4869 H   0  0  0  0  0  0  0  0  0  0  0  0
   -0.6098    3.0112    2.8287 C   0  0  0  0  0  0  0  0  0  0  0  0
   -1.5235    2.9836    3.4324 H   0  0  0  0  0  0  0  0  0  0  0  0
    0.2320    3.2375    3.4912 H   0  0  0  0  0  0  0  0  0  0  0  0
   -0.6945    3.8190    2.0947 H   0  0  0  0  0  0  0  0  0  0  0  0
  1  2  1  0  0  0  0
  2  3  1  0  0  0  0
  2  4  1  0  0  0  0
  2  5  1  0  0  0  0
  5  6  2  0  0  0  0
  5  7  1  0  0  0  0
  7  8  1  0  0  0  0
  7  9  1  0  0  0  0
  9 10  1  0  0  0  0
  9 11  1  0  0  0  0
  9 27  1  0  0  0  0
 11 12  1  0  0  0  0
 11 13  1  0  0  0  0
 11 14  1  0  0  0  0
 14 15  1  0  0  0  0
 14 16  1  0  0  0  0
 14 17  1  0  0  0  0
 17 18  1  0  0  0  0
 17 19  1  0  0  0  0
 17 20  1  0  0  0  0
 20 21  1  0  0  0  0
 20 22  1  0  0  0  0
 20 23  1  0  0  0  0
 23 24  1  0  0  0  0
 23 25  1  0  0  0  0
 23 26  1  0  0  0  0
 27 28  2  0  0  0  0
 27 29  1  0  0  0  0
 29 30  1  0  0  0  0
 29 31  1  0  0  0  0
 31 32  1  0  0  0  0
 31 33  1  0  0  0  0
 31 34  1  0  0  0  0
M  CHG  1  23   1
M  END
$$$$

  -OEChem-02102214153D

 34 33  0     1  0  0  0  0  0999 V2000
   -3.4888   -4.2123    1.7929 H   0  0  0  0  0  0  0  0  0  0  0  0
   -3.6707   -3.2035    1.4107 C   0  0  0  0  0  0  0  0  0  0  0  0
   -4.3446   -2.6857    2.0973 H   0  0  0  0  0  0  0  0  0  0  0  0
   -4.1466   -3.2808    0.4303 H   0  0  0  0  0  0  0  0  0  0  0  0
   -2.3609   -2.4473    1.2951 C   0  0  0  0  0  0  0  0  0  0  0  0
   -1.3104   -2.9916    1.5894 O   0  0  0  0  0  0  0  0  0  0  0  0
   -2.3500   -1.1370    0.8528 N   0  0  0  0  0  0  0  0  0  0  0  0
   -3.2576   -0.6939    0.7317 H   0  0  0  0  0  0  0  0  0  0  0  0
   -1.1560   -0.2722    0.8682 C   0  0  1  0  0  0  0  0  0  0  0  0
   -0.5152   -0.6892    1.6538 H   0  0  0  0  0  0  0  0  0  0  0  0
   -0.3118   -0.4563   -0.4278 C   0  0  0  0  0  0  0  0  0  0  0  0
    0.7307   -0.5868   -0.1173 H   0  0  0  0  0  0  0  0  0  0  0  0
   -0.6111   -1.4122   -0.8727 H   0  0  0  0  0  0  0  0  0  0  0  0
   -0.2995    0.5883   -1.5757 C   0  0  0  0  0  0  0  0  0  0  0  0
    0.5399    1.2703   -1.4000 H   0  0  0  0  0  0  0  0  0  0  0  0
   -0.0689    0.0527   -2.5040 H   0  0  0  0  0  0  0  0  0  0  0  0
   -1.5750    1.4207   -1.8006 C   0  0  0  0  0  0  0  0  0  0  0  0
   -2.4097    0.9665   -1.2597 H   0  0  0  0  0  0  0  0  0  0  0  0
   -1.8404    1.3760   -2.8625 H   0  0  0  0  0  0  0  0  0  0  0  0
   -1.3785    2.8935   -1.4237 C   0  0  0  0  0  0  0  0  0  0  0  0
   -0.6596    2.9626   -0.5947 H   0  0  0  0  0  0  0  0  0  0  0  0
   -0.9484    3.4393   -2.2760 H   0  0  0  0  0  0  0  0  0  0  0  0
   -2.6810    3.4494   -1.0076 N   0  3  0  0  0  0  0  0  0  0  0  0
   -2.9727    2.9666   -0.1410 H   0  0  0  0  0  0  0  0  0  0  0  0
   -2.6035    4.4482   -0.8169 H   0  0  0  0  0  0  0  0  0  0  0  0
   -3.3851    3.2918   -1.7279 H   0  0  0  0  0  0  0  0  0  0  0  0
   -1.4097    1.1558    1.3977 C   0  0  0  0  0  0  0  0  0  0  0  0
   -2.4599    1.7472    1.1465 O   0  0  0  0  0  0  0  0  0  0  0  0
   -0.5303    1.7299    2.2962 N   0  0  0  0  0  0  0  0  0  0  0  0
    0.2435    1.1482    2.6151 H   0  0  0  0  0  0  0  0  0  0  0  0
   -0.8327    2.9349    3.0633 C   0  0  0  0  0  0  0  0  0  0  0  0
   -1.7330    2.7892    3.6704 H   0  0  0  0  0  0  0  0  0  0  0  0
   -0.0016    3.1736    3.7350 H   0  0  0  0  0  0  0  0  0  0  0  0
   -0.9901    3.7889    2.3969 H   0  0  0  0  0  0  0  0  0  0  0  0
  1  2  1  0  0  0  0
  2  3  1  0  0  0  0
  2  4  1  0  0  0  0
  2  5  1  0  0  0  0
  5  6  2  0  0  0  0
  5  7  1  0  0  0  0
  7  8  1  0  0  0  0
  7  9  1  0  0  0  0
  9 10  1  0  0  0  0
  9 11  1  0  0  0  0
  9 27  1  0  0  0  0
 11 12  1  0  0  0  0
 11 13  1  0  0  0  0
 11 14  1  0  0  0  0
 14 15  1  0  0  0  0
 14 16  1  0  0  0  0
 14 17  1  0  0  0  0
 17 18  1  0  0  0  0
 17 19  1  0  0  0  0
 17 20  1  0  0  0  0
 20 21  1  0  0  0  0
 20 22  1  0  0  0  0
 20 23  1  0  0  0  0
 23 24  1  0  0  0  0
 23 25  1  0  0  0  0
 23 26  1  0  0  0  0
 27 28  2  0  0  0  0
 27 29  1  0  0  0  0
 29 30  1  0  0  0  0
 29 31  1  0  0  0  0
 31 32  1  0  0  0  0
 31 33  1  0  0  0  0
 31 34  1  0  0  0  0
M  CHG  1  23   1
M  END
$$$$

  -OEChem-02102214153D

 34 33  0     1  0  0  0  0  0999 V2000
   -3.5798   -4.2300    1.5618 H   0  0  0  0  0  0  0  0  0  0  0  0
   -3.7152   -3.1575    1.3946 C   0  0  0  0  0  0  0  0  0  0  0  0
   -4.2161   -2.7275    2.2653 H   0  0  0  0  0  0  0  0  0  0  0  0
   -4.3439   -3.0164    0.5124 H   0  0  0  0  0  0  0  0  0  0  0  0
   -2.3700   -2.4892    1.1853 C   0  0  0  0  0  0  0  0  0  0  0  0
   -1.3501   -3.1574    1.1607 O   0  0  0  0  0  0  0  0  0  0  0  0
   -2.2950   -1.1206    1.0098 N   0  0  0  0  0  0  0  0  0  0  0  0
   -3.1519   -0.5969    1.1785 H   0  0  0  0  0  0  0  0  0  0  0  0
   -1.0342   -0.3591    1.0258 C   0  0  1  0  0  0  0  0  0  0  0  0
   -0.3302   -0.9632    1.6098 H   0  0  0  0  0  0  0  0  0  0  0  0
   -0.4078   -0.3192   -0.4035 C   0  0  0  0  0  0  0  0  0  0  0  0
    0.6502   -0.5785   -0.2859 H   0  0  0  0  0  0  0  0  0  0  0  0
   -0.8505   -1.1443   -0.9728 H   0  0  0  0  0  0  0  0  0  0  0  0
   -0.4444    0.9337   -1.3234 C   0  0  0  0  0  0  0  0  0  0  0  0
    0.5643    1.3610   -1.3544 H   0  0  0  0  0  0  0  0  0  0  0  0
   -0.6712    0.5821   -2.3364 H   0  0  0  0  0  0  0  0  0  0  0  0
   -1.4176    2.0613   -0.9661 C   0  0  0  0  0  0  0  0  0  0  0  0
   -2.3849    1.6253   -0.6939 H   0  0  0  0  0  0  0  0  0  0  0  0
   -1.0217    2.6278   -0.1185 H   0  0  0  0  0  0  0  0  0  0  0  0
   -1.6198    3.0239   -2.1298 C   0  0  0  0  0  0  0  0  0  0  0  0
   -0.6538    3.4662   -2.4142 H   0  0  0  0  0  0  0  0  0  0  0  0
   -1.9971    2.4714   -3.0026 H   0  0  0  0  0  0  0  0  0  0  0  0
   -2.5810    4.0584   -1.6896 N   0  3  0  0  0  0  0  0  0  0  0  0
   -2.2067    4.5577   -0.8800 H   0  0  0  0  0  0  0  0  0  0  0  0
   -2.7569    4.7258   -2.4429 H   0  0  0  0  0  0  0  0  0  0  0  0
   -3.4632    3.6183   -1.4193 H   0  0  0  0  0  0  0  0  0  0  0  0
   -1.1313    0.9338    1.8646 C   0  0  0  0  0  0  0  0  0  0  0  0
   -2.1718    1.5872    1.8677 O   0  0  0  0  0  0  0  0  0  0  0  0
   -0.1232    1.2763    2.7469 N   0  0  0  0  0  0  0  0  0  0  0  0
    0.6492    0.6209    2.8459 H   0  0  0  0  0  0  0  0  0  0  0  0
   -0.2607    2.3322    3.7456 C   0  0  0  0  0  0  0  0  0  0  0  0
   -1.0596    2.0883    4.4546 H   0  0  0  0  0  0  0  0  0  0  0  0
    0.6735    2.4495    4.3043 H   0  0  0  0  0  0  0  0  0  0  0  0
   -0.4955    3.2885    3.2666 H   0  0  0  0  0  0  0  0  0  0  0  0
  1  2  1  0  0  0  0
  2  3  1  0  0  0  0
  2  4  1  0  0  0  0
  2  5  1  0  0  0  0
  5  6  2  0  0  0  0
  5  7  1  0  0  0  0
  7  8  1  0  0  0  0
  7  9  1  0  0  0  0
  9 10  1  0  0  0  0
  9 11  1  0  0  0  0
  9 27  1  0  0  0  0
 11 12  1  0  0  0  0
 11 13  1  0  0  0  0
 11 14  1  0  0  0  0
 14 15  1  0  0  0  0
 14 16  1  0  0  0  0
 14 17  1  0  0  0  0
 17 18  1  0  0  0  0
 17 19  1  0  0  0  0
 17 20  1  0  0  0  0
 20 21  1  0  0  0  0
 20 22  1  0  0  0  0
 20 23  1  0  0  0  0
 23 24  1  0  0  0  0
 23 25  1  0  0  0  0
 23 26  1  0  0  0  0
 27 28  2  0  0  0  0
 27 29  1  0  0  0  0
 29 30  1  0  0  0  0
 29 31  1  0  0  0  0
 31 32  1  0  0  0  0
 31 33  1  0  0  0  0
 31 34  1  0  0  0  0
M  CHG  1  23   1
M  END
$$$$

  -OEChem-02102214153D

 34 33  0     1  0  0  0  0  0999 V2000
   -3.0979   -4.2257    2.1658 H   0  0  0  0  0  0  0  0  0  0  0  0
   -3.3843   -3.2234    1.8338 C   0  0  0  0  0  0  0  0  0  0  0  0
   -3.9679   -2.7461    2.6248 H   0  0  0  0  0  0  0  0  0  0  0  0
   -4.0022   -3.3144    0.9373 H   0  0  0  0  0  0  0  0  0  0  0  0
   -2.1458   -2.4022    1.5303 C   0  0  0  0  0  0  0  0  0  0  0  0
   -1.0375   -2.8995    1.6394 O   0  0  0  0  0  0  0  0  0  0  0  0
   -2.2642   -1.0849    1.1258 N   0  0  0  0  0  0  0  0  0  0  0  0
   -3.2035   -0.6929    1.1093 H   0  0  0  0  0  0  0  0  0  0  0  0
   -1.1268   -0.1781    0.8913 C   0  0  1  0  0  0  0  0  0  0  0  0
   -0.3319   -0.5785    1.5310 H   0  0  0  0  0  0  0  0  0  0  0  0
   -0.5504   -0.3909   -0.5449 C   0  0  0  0  0  0  0  0  0  0  0  0
    0.5366   -0.4388   -0.4161 H   0  0  0  0  0  0  0  0  0  0  0  0
   -0.8469   -1.3936   -0.8735 H   0  0  0  0  0  0  0  0  0  0  0  0
   -0.7729    0.5666   -1.7548 C   0  0  0  0  0  0  0  0  0  0  0  0
    0.2075    0.8456   -2.1574 H   0  0  0  0  0  0  0  0  0  0  0  0
   -1.2583   -0.0362   -2.5314 H   0  0  0  0  0  0  0  0  0  0  0  0
   -1.6160    1.8390   -1.6101 C   0  0  0  0  0  0  0  0  0  0  0  0
   -1.9683    2.1324   -2.6052 H   0  0  0  0  0  0  0  0  0  0  0  0
   -2.5104    1.6012   -1.0282 H   0  0  0  0  0  0  0  0  0  0  0  0
   -0.8396    3.0222   -1.0311 C   0  0  0  0  0  0  0  0  0  0  0  0
   -0.1038    2.6596   -0.3001 H   0  0  0  0  0  0  0  0  0  0  0  0
   -0.2800    3.5259   -1.8325 H   0  0  0  0  0  0  0  0  0  0  0  0
   -1.8167    3.9222   -0.3845 N   0  3  0  0  0  0  0  0  0  0  0  0
   -2.2747    3.4069    0.3866 H   0  0  0  0  0  0  0  0  0  0  0  0
   -1.3525    4.7459   -0.0027 H   0  0  0  0  0  0  0  0  0  0  0  0
   -2.5305    4.2124   -1.0530 H   0  0  0  0  0  0  0  0  0  0  0  0
   -1.2803    1.2360    1.4879 C   0  0  0  0  0  0  0  0  0  0  0  0
   -2.3330    1.8673    1.4201 O   0  0  0  0  0  0  0  0  0  0  0  0
   -0.2206    1.8078    2.1696 N   0  0  0  0  0  0  0  0  0  0  0  0
    0.5716    1.1913    2.3497 H   0  0  0  0  0  0  0  0  0  0  0  0
   -0.3759    2.9573    3.0578 C   0  0  0  0  0  0  0  0  0  0  0  0
   -1.1077    2.7395    3.8439 H   0  0  0  0  0  0  0  0  0  0  0  0
    0.5796    3.1959    3.5366 H   0  0  0  0  0  0  0  0  0  0  0  0
   -0.7086    3.8392    2.5025 H   0  0  0  0  0  0  0  0  0  0  0  0
  1  2  1  0  0  0  0
  2  3  1  0  0  0  0
  2  4  1  0  0  0  0
  2  5  1  0  0  0  0
  5  6  2  0  0  0  0
  5  7  1  0  0  0  0
  7  8  1  0  0  0  0
  7  9  1  0  0  0  0
  9 10  1  0  0  0  0
  9 11  1  0  0  0  0
  9 27  1  0  0  0  0
 11 12  1  0  0  0  0
 11 13  1  0  0  0  0
 11 14  1  0  0  0  0
 14 15  1  0  0  0  0
 14 16  1  0  0  0  0
 14 17  1  0  0  0  0
 17 18  1  0  0  0  0
 17 19  1  0  0  0  0
 17 20  1  0  0  0  0
 20 21  1  0  0  0  0
 20 22  1  0  0  0  0
 20 23  1  0  0  0  0
 23 24  1  0  0  0  0
 23 25  1  0  0  0  0
 23 26  1  0  0  0  0
 27 28  2  0  0  0  0
 27 29  1  0  0  0  0
 29 30  1  0  0  0  0
 29 31  1  0  0  0  0
 31 32  1  0  0  0  0
 31 33  1  0  0  0  0
 31 34  1  0  0  0  0
M  CHG  1  23   1
M  END
$$$$

  -OEChem-02102214153D

 34 33  0     1  0  0  0  0  0999 V2000
   -4.0744   -3.6232    1.4783 H   0  0  0  0  0  0  0  0  0  0  0  0
   -4.0470   -2.5575    1.2323 C   0  0  0  0  0  0  0  0  0  0  0  0
   -4.5861   -2.0060    2.0063 H   0  0  0  0  0  0  0  0  0  0  0  0
   -4.5446   -2.4072    0.2713 H   0  0  0  0  0  0  0  0  0  0  0  0
   -2.6102   -2.0781    1.1543 C   0  0  0  0  0  0  0  0  0  0  0  0
   -1.6923   -2.8625    1.3214 O   0  0  0  0  0  0  0  0  0  0  0  0
   -2.3335   -0.7486    0.8900 N   0  0  0  0  0  0  0  0  0  0  0  0
   -3.1312   -0.1173    0.9020 H   0  0  0  0  0  0  0  0  0  0  0  0
   -0.9877   -0.1548    0.9956 C   0  0  1  0  0  0  0  0  0  0  0  0
   -0.4634   -0.7867    1.7220 H   0  0  0  0  0  0  0  0  0  0  0  0
   -0.1846   -0.3900   -0.3238 C   0  0  0  0  0  0  0  0  0  0  0  0
    0.8072   -0.7116    0.0134 H   0  0  0  0  0  0  0  0  0  0  0  0
   -0.6145   -1.2611   -0.8312 H   0  0  0  0  0  0  0  0  0  0  0  0
    0.1016    0.6831   -1.4174 C   0  0  0  0  0  0  0  0  0  0  0  0
    1.1484    0.5514   -1.7154 H   0  0  0  0  0  0  0  0  0  0  0  0
   -0.4961    0.4213   -2.2982 H   0  0  0  0  0  0  0  0  0  0  0  0
   -0.1005    2.1796   -1.1423 C   0  0  0  0  0  0  0  0  0  0  0  0
    0.5078    2.7545   -1.8492 H   0  0  0  0  0  0  0  0  0  0  0  0
    0.2594    2.4399   -0.1448 H   0  0  0  0  0  0  0  0  0  0  0  0
   -1.5686    2.5548   -1.3660 C   0  0  0  0  0  0  0  0  0  0  0  0
   -1.7506    2.6941   -2.4414 H   0  0  0  0  0  0  0  0  0  0  0  0
   -2.2021    1.7195   -1.0335 H   0  0  0  0  0  0  0  0  0  0  0  0
   -1.8935    3.7679   -0.5917 N   0  3  0  0  0  0  0  0  0  0  0  0
   -1.1799    4.4832   -0.7256 H   0  0  0  0  0  0  0  0  0  0  0  0
   -2.8045    4.1358   -0.8656 H   0  0  0  0  0  0  0  0  0  0  0  0
   -1.9304    3.5057    0.4072 H   0  0  0  0  0  0  0  0  0  0  0  0
   -0.9552    1.2084    1.7171 C   0  0  0  0  0  0  0  0  0  0  0  0
   -1.8448    2.0381    1.5344 O   0  0  0  0  0  0  0  0  0  0  0  0
    0.0115    1.4720    2.6691 N   0  0  0  0  0  0  0  0  0  0  0  0
    0.6521    0.7135    2.8989 H   0  0  0  0  0  0  0  0  0  0  0  0
   -0.0223    2.6278    3.5608 C   0  0  0  0  0  0  0  0  0  0  0  0
   -0.9262    2.6109    4.1796 H   0  0  0  0  0  0  0  0  0  0  0  0
    0.8483    2.6175    4.2247 H   0  0  0  0  0  0  0  0  0  0  0  0
   -0.0033    3.5607    2.9884 H   0  0  0  0  0  0  0  0  0  0  0  0
  1  2  1  0  0  0  0
  2  3  1  0  0  0  0
  2  4  1  0  0  0  0
  2  5  1  0  0  0  0
  5  6  2  0  0  0  0
  5  7  1  0  0  0  0
  7  8  1  0  0  0  0
  7  9  1  0  0  0  0
  9 10  1  0  0  0  0
  9 11  1  0  0  0  0
  9 27  1  0  0  0  0
 11 12  1  0  0  0  0
 11 13  1  0  0  0  0
 11 14  1  0  0  0  0
 14 15  1  0  0  0  0
 14 16  1  0  0  0  0
 14 17  1  0  0  0  0
 17 18  1  0  0  0  0
 17 19  1  0  0  0  0
 17 20  1  0  0  0  0
 20 21  1  0  0  0  0
 20 22  1  0  0  0  0
 20 23  1  0  0  0  0
 23 24  1  0  0  0  0
 23 25  1  0  0  0  0
 23 26  1  0  0  0  0
 27 28  2  0  0  0  0
 27 29  1  0  0  0  0
 29 30  1  0  0  0  0
 29 31  1  0  0  0  0
 31 32  1  0  0  0  0
 31 33  1  0  0  0  0
 31 34  1  0  0  0  0
M  CHG  1  23   1
M  END
$$$$

  -OEChem-02102214153D

 34 33  0     1  0  0  0  0  0999 V2000
   -4.0934   -3.6787    1.2469 H   0  0  0  0  0  0  0  0  0  0  0  0
   -4.0359   -2.6282    0.9469 C   0  0  0  0  0  0  0  0  0  0  0  0
   -4.6849   -2.0415    1.6014 H   0  0  0  0  0  0  0  0  0  0  0  0
   -4.3886   -2.5376   -0.0834 H   0  0  0  0  0  0  0  0  0  0  0  0
   -2.6056   -2.1344    1.0521 C   0  0  0  0  0  0  0  0  0  0  0  0
   -1.7134   -2.9010    1.3725 O   0  0  0  0  0  0  0  0  0  0  0  0
   -2.3049   -0.8115    0.7833 N   0  0  0  0  0  0  0  0  0  0  0  0
   -3.0949   -0.1898    0.6255 H   0  0  0  0  0  0  0  0  0  0  0  0
   -0.9789   -0.2047    0.9972 C   0  0  1  0  0  0  0  0  0  0  0  0
   -0.5012   -0.8183    1.7695 H   0  0  0  0  0  0  0  0  0  0  0  0
   -0.0904   -0.4388   -0.2658 C   0  0  0  0  0  0  0  0  0  0  0  0
    0.8806   -0.7459    0.1379 H   0  0  0  0  0  0  0  0  0  0  0  0
   -0.4756   -1.3142   -0.8009 H   0  0  0  0  0  0  0  0  0  0  0  0
    0.2560    0.6393   -1.3333 C   0  0  0  0  0  0  0  0  0  0  0  0
    1.2230    0.3490   -1.7608 H   0  0  0  0  0  0  0  0  0  0  0  0
   -0.4723    0.5373   -2.1455 H   0  0  0  0  0  0  0  0  0  0  0  0
    0.3541    2.1285   -0.9596 C   0  0  0  0  0  0  0  0  0  0  0  0
    1.1636    2.5861   -1.5391 H   0  0  0  0  0  0  0  0  0  0  0  0
    0.6267    2.2473    0.0908 H   0  0  0  0  0  0  0  0  0  0  0  0
   -0.9499    2.8479   -1.3258 C   0  0  0  0  0  0  0  0  0  0  0  0
   -0.9037    3.1732   -2.3749 H   0  0  0  0  0  0  0  0  0  0  0  0
   -1.7834    2.1348   -1.2432 H   0  0  0  0  0  0  0  0  0  0  0  0
   -1.1792    3.9809   -0.4097 N   0  3  0  0  0  0  0  0  0  0  0  0
   -0.3257    4.5233   -0.2853 H   0  0  0  0  0  0  0  0  0  0  0  0
   -1.9217    4.5838   -0.7647 H   0  0  0  0  0  0  0  0  0  0  0  0
   -1.4763    3.5950    0.5013 H   0  0  0  0  0  0  0  0  0  0  0  0
   -1.0357    1.1741    1.6839 C   0  0  0  0  0  0  0  0  0  0  0  0
   -1.8800    2.0097    1.3679 O   0  0  0  0  0  0  0  0  0  0  0  0
   -0.1679    1.4720    2.7184 N   0  0  0  0  0  0  0  0  0  0  0  0
    0.4259    0.7115    3.0476 H   0  0  0  0  0  0  0  0  0  0  0  0
   -0.3126    2.6388    3.5843 C   0  0  0  0  0  0  0  0  0  0  0  0
   -1.2889    2.6307    4.0814 H   0  0  0  0  0  0  0  0  0  0  0  0
    0.4645    2.6341    4.3558 H   0  0  0  0  0  0  0  0  0  0  0  0
   -0.2164    3.5647    3.0086 H   0  0  0  0  0  0  0  0  0  0  0  0
  1  2  1  0  0  0  0
  2  3  1  0  0  0  0
  2  4  1  0  0  0  0
  2  5  1  0  0  0  0
  5  6  2  0  0  0  0
  5  7  1  0  0  0  0
  7  8  1  0  0  0  0
  7  9  1  0  0  0  0
  9 10  1  0  0  0  0
  9 11  1  0  0  0  0
  9 27  1  0  0  0  0
 11 12  1  0  0  0  0
 11 13  1  0  0  0  0
 11 14  1  0  0  0  0
 14 15  1  0  0  0  0
 14 16  1  0  0  0  0
 14 17  1  0  0  0  0
 17 18  1  0  0  0  0
 17 19  1  0  0  0  0
 17 20  1  0  0  0  0
 20 21  1  0  0  0  0
 20 22  1  0  0  0  0
 20 23  1  0  0  0  0
 23 24  1  0  0  0  0
 23 25  1  0  0  0  0
 23 26  1  0  0  0  0
 27 28  2  0  0  0  0
 27 29  1  0  0  0  0
 29 30  1  0  0  0  0
 29 31  1  0  0  0  0
 31 32  1  0  0  0  0
 31 33  1  0  0  0  0
 31 34  1  0  0  0  0
M  CHG  1  23   1
M  END
$$$$

  -OEChem-02102214153D

 34 33  0     1  0  0  0  0  0999 V2000
   -3.5632   -4.2551    1.5398 H   0  0  0  0  0  0  0  0  0  0  0  0
   -3.6895   -3.1916    1.3174 C   0  0  0  0  0  0  0  0  0  0  0  0
   -4.2760   -2.7332    2.1173 H   0  0  0  0  0  0  0  0  0  0  0  0
   -4.2309   -3.0919    0.3735 H   0  0  0  0  0  0  0  0  0  0  0  0
   -2.3357   -2.5163    1.2126 C   0  0  0  0  0  0  0  0  0  0  0  0
   -1.3113   -3.1716    1.3121 O   0  0  0  0  0  0  0  0  0  0  0  0
   -2.2540   -1.1546    0.9973 N   0  0  0  0  0  0  0  0  0  0  0  0
   -3.1265   -0.6282    1.0250 H   0  0  0  0  0  0  0  0  0  0  0  0
   -0.9995   -0.3853    1.0242 C   0  0  1  0  0  0  0  0  0  0  0  0
   -0.2732   -0.9635    1.6061 H   0  0  0  0  0  0  0  0  0  0  0  0
   -0.4340   -0.3283   -0.4269 C   0  0  0  0  0  0  0  0  0  0  0  0
    0.6343   -0.5492   -0.3300 H   0  0  0  0  0  0  0  0  0  0  0  0
   -0.8597   -1.1592   -1.0008 H   0  0  0  0  0  0  0  0  0  0  0  0
   -0.5150    0.9412   -1.3133 C   0  0  0  0  0  0  0  0  0  0  0  0
    0.1348    0.7633   -2.1776 H   0  0  0  0  0  0  0  0  0  0  0  0
   -1.5408    1.0140   -1.6923 H   0  0  0  0  0  0  0  0  0  0  0  0
   -0.1508    2.2996   -0.6934 C   0  0  0  0  0  0  0  0  0  0  0  0
   -0.9819    2.6701   -0.0922 H   0  0  0  0  0  0  0  0  0  0  0  0
    0.7325    2.1931   -0.0545 H   0  0  0  0  0  0  0  0  0  0  0  0
    0.1192    3.3240   -1.7917 C   0  0  0  0  0  0  0  0  0  0  0  0
    1.0146    3.0288   -2.3582 H   0  0  0  0  0  0  0  0  0  0  0  0
   -0.7257    3.3275   -2.4961 H   0  0  0  0  0  0  0  0  0  0  0  0
    0.2869    4.6522   -1.1637 N   0  3  0  0  0  0  0  0  0  0  0  0
    1.0870    4.6405   -0.5289 H   0  0  0  0  0  0  0  0  0  0  0  0
    0.4394    5.3651   -1.8800 H   0  0  0  0  0  0  0  0  0  0  0  0
   -0.5534    4.8905   -0.6312 H   0  0  0  0  0  0  0  0  0  0  0  0
   -1.1702    0.9187    1.8255 C   0  0  0  0  0  0  0  0  0  0  0  0
   -2.1937    1.5839    1.7101 O   0  0  0  0  0  0  0  0  0  0  0  0
   -0.2094    1.3081    2.7417 N   0  0  0  0  0  0  0  0  0  0  0  0
    0.5171    0.6258    2.9489 H   0  0  0  0  0  0  0  0  0  0  0  0
   -0.4455    2.3652    3.7208 C   0  0  0  0  0  0  0  0  0  0  0  0
   -1.2651    2.0885    4.3932 H   0  0  0  0  0  0  0  0  0  0  0  0
    0.4534    2.5324    4.3229 H   0  0  0  0  0  0  0  0  0  0  0  0
   -0.7040    3.3048    3.2217 H   0  0  0  0  0  0  0  0  0  0  0  0
  1  2  1  0  0  0  0
  2  3  1  0  0  0  0
  2  4  1  0  0  0  0
  2  5  1  0  0  0  0
  5  6  2  0  0  0  0
  5  7  1  0  0  0  0
  7  8  1  0  0  0  0
  7  9  1  0  0  0  0
  9 10  1  0  0  0  0
  9 11  1  0  0  0  0
  9 27  1  0  0  0  0
 11 12  1  0  0  0  0
 11 13  1  0  0  0  0
 11 14  1  0  0  0  0
 14 15  1  0  0  0  0
 14 16  1  0  0  0  0
 14 17  1  0  0  0  0
 17 18  1  0  0  0  0
 17 19  1  0  0  0  0
 17 20  1  0  0  0  0
 20 21  1  0  0  0  0
 20 22  1  0  0  0  0
 20 23  1  0  0  0  0
 23 24  1  0  0  0  0
 23 25  1  0  0  0  0
 23 26  1  0  0  0  0
 27 28  2  0  0  0  0
 27 29  1  0  0  0  0
 29 30  1  0  0  0  0
 29 31  1  0  0  0  0
 31 32  1  0  0  0  0
 31 33  1  0  0  0  0
 31 34  1  0  0  0  0
M  CHG  1  23   1
M  END
$$$$

  -OEChem-02102214153D

 34 33  0     1  0  0  0  0  0999 V2000
   -4.0189   -3.6709    1.4658 H   0  0  0  0  0  0  0  0  0  0  0  0
   -3.9494   -2.5967    1.2707 C   0  0  0  0  0  0  0  0  0  0  0  0
   -4.4883   -2.0618    2.0565 H   0  0  0  0  0  0  0  0  0  0  0  0
   -4.4176   -2.3855    0.3064 H   0  0  0  0  0  0  0  0  0  0  0  0
   -2.4957   -2.1649    1.2514 C   0  0  0  0  0  0  0  0  0  0  0  0
   -1.6157   -2.9562    1.5434 O   0  0  0  0  0  0  0  0  0  0  0  0
   -2.1574   -0.8693    0.9088 N   0  0  0  0  0  0  0  0  0  0  0  0
   -2.9241   -0.2182    0.7548 H   0  0  0  0  0  0  0  0  0  0  0  0
   -0.7866   -0.3324    0.9790 C   0  0  1  0  0  0  0  0  0  0  0  0
   -0.1887   -0.9632    1.6467 H   0  0  0  0  0  0  0  0  0  0  0  0
   -0.1835   -0.4810   -0.4546 C   0  0  0  0  0  0  0  0  0  0  0  0
    0.8209   -0.8977   -0.3222 H   0  0  0  0  0  0  0  0  0  0  0  0
   -0.7523   -1.2420   -1.0009 H   0  0  0  0  0  0  0  0  0  0  0  0
   -0.0213    0.7425   -1.3902 C   0  0  0  0  0  0  0  0  0  0  0  0
    0.3637    0.3867   -2.3525 H   0  0  0  0  0  0  0  0  0  0  0  0
   -1.0323    1.1161   -1.5777 H   0  0  0  0  0  0  0  0  0  0  0  0
    0.8796    1.9095   -0.9206 C   0  0  0  0  0  0  0  0  0  0  0  0
    0.9577    1.9835    0.1609 H   0  0  0  0  0  0  0  0  0  0  0  0
    1.8968    1.7038   -1.2723 H   0  0  0  0  0  0  0  0  0  0  0  0
    0.4346    3.2612   -1.4897 C   0  0  0  0  0  0  0  0  0  0  0  0
    1.2008    4.0108   -1.2444 H   0  0  0  0  0  0  0  0  0  0  0  0
    0.3875    3.1970   -2.5865 H   0  0  0  0  0  0  0  0  0  0  0  0
   -0.8751    3.6528   -0.9193 N   0  3  0  0  0  0  0  0  0  0  0  0
   -0.8914    4.6496   -0.7038 H   0  0  0  0  0  0  0  0  0  0  0  0
   -1.6263    3.4401   -1.5747 H   0  0  0  0  0  0  0  0  0  0  0  0
   -1.0532    3.1240   -0.0499 H   0  0  0  0  0  0  0  0  0  0  0  0
   -0.8086    1.0629    1.6316 C   0  0  0  0  0  0  0  0  0  0  0  0
   -1.5369    1.9482    1.1814 O   0  0  0  0  0  0  0  0  0  0  0  0
    0.1172    1.3933    2.6033 N   0  0  0  0  0  0  0  0  0  0  0  0
    0.6514    0.6233    3.0045 H   0  0  0  0  0  0  0  0  0  0  0  0
    0.1102    2.6630    3.3236 C   0  0  0  0  0  0  0  0  0  0  0  0
   -0.8639    2.8339    3.7950 H   0  0  0  0  0  0  0  0  0  0  0  0
    0.8734    2.6550    4.1086 H   0  0  0  0  0  0  0  0  0  0  0  0
    0.3256    3.4942    2.6448 H   0  0  0  0  0  0  0  0  0  0  0  0
  1  2  1  0  0  0  0
  2  3  1  0  0  0  0
  2  4  1  0  0  0  0
  2  5  1  0  0  0  0
  5  6  2  0  0  0  0
  5  7  1  0  0  0  0
  7  8  1  0  0  0  0
  7  9  1  0  0  0  0
  9 10  1  0  0  0  0
  9 11  1  0  0  0  0
  9 27  1  0  0  0  0
 11 12  1  0  0  0  0
 11 13  1  0  0  0  0
 11 14  1  0  0  0  0
 14 15  1  0  0  0  0
 14 16  1  0  0  0  0
 14 17  1  0  0  0  0
 17 18  1  0  0  0  0
 17 19  1  0  0  0  0
 17 20  1  0  0  0  0
 20 21  1  0  0  0  0
 20 22  1  0  0  0  0
 20 23  1  0  0  0  0
 23 24  1  0  0  0  0
 23 25  1  0  0  0  0
 23 26  1  0  0  0  0
 27 28  2  0  0  0  0
 27 29  1  0  0  0  0
 29 30  1  0  0  0  0
 29 31  1  0  0  0  0
 31 32  1  0  0  0  0
 31 33  1  0  0  0  0
 31 34  1  0  0  0  0
M  CHG  1  23   1
M  END
$$$$

  -OEChem-02102214153D

 34 33  0     1  0  0  0  0  0999 V2000
   -3.7983   -3.9567    1.6447 H   0  0  0  0  0  0  0  0  0  0  0  0
   -3.8143   -2.9279    1.2735 C   0  0  0  0  0  0  0  0  0  0  0  0
   -4.4821   -2.3374    1.9053 H   0  0  0  0  0  0  0  0  0  0  0  0
   -4.1980   -2.9306    0.2505 H   0  0  0  0  0  0  0  0  0  0  0  0
   -2.4160   -2.3409    1.3037 C   0  0  0  0  0  0  0  0  0  0  0  0
   -1.4868   -2.9880    1.7574 O   0  0  0  0  0  0  0  0  0  0  0  0
   -2.1864   -1.0652    0.8255 N   0  0  0  0  0  0  0  0  0  0  0  0
   -2.9978   -0.5295    0.5220 H   0  0  0  0  0  0  0  0  0  0  0  0
   -0.8884   -0.3741    0.8954 C   0  0  1  0  0  0  0  0  0  0  0  0
   -0.2821   -0.8619    1.6664 H   0  0  0  0  0  0  0  0  0  0  0  0
   -0.1616   -0.6164   -0.4612 C   0  0  0  0  0  0  0  0  0  0  0  0
    0.8712   -0.9095   -0.2457 H   0  0  0  0  0  0  0  0  0  0  0  0
   -0.6220   -1.4735   -0.9659 H   0  0  0  0  0  0  0  0  0  0  0  0
   -0.1223    0.5616   -1.4541 C   0  0  0  0  0  0  0  0  0  0  0  0
    0.1536    0.1723   -2.4406 H   0  0  0  0  0  0  0  0  0  0  0  0
   -1.1391    0.9585   -1.5511 H   0  0  0  0  0  0  0  0  0  0  0  0
    0.8704    1.6807   -1.0893 C   0  0  0  0  0  0  0  0  0  0  0  0
    1.1606    1.6163   -0.0376 H   0  0  0  0  0  0  0  0  0  0  0  0
    1.7833    1.5599   -1.6826 H   0  0  0  0  0  0  0  0  0  0  0  0
    0.2275    3.0385   -1.3718 C   0  0  0  0  0  0  0  0  0  0  0  0
   -0.0134    3.1102   -2.4422 H   0  0  0  0  0  0  0  0  0  0  0  0
   -0.7248    3.1035   -0.8225 H   0  0  0  0  0  0  0  0  0  0  0  0
    1.1477    4.1156   -0.9538 N   0  3  0  0  0  0  0  0  0  0  0  0
    2.0186    4.0583   -1.4840 H   0  0  0  0  0  0  0  0  0  0  0  0
    0.7142    5.0263   -1.1194 H   0  0  0  0  0  0  0  0  0  0  0  0
    1.3544    4.0230    0.0418 H   0  0  0  0  0  0  0  0  0  0  0  0
   -1.0383    1.0891    1.3684 C   0  0  0  0  0  0  0  0  0  0  0  0
   -1.8317    1.8513    0.8266 O   0  0  0  0  0  0  0  0  0  0  0  0
   -0.1785    1.6003    2.3257 N   0  0  0  0  0  0  0  0  0  0  0  0
    0.3595    0.9070    2.8437 H   0  0  0  0  0  0  0  0  0  0  0  0
   -0.4314    2.8769    2.9882 C   0  0  0  0  0  0  0  0  0  0  0  0
   -1.3810    2.8424    3.5339 H   0  0  0  0  0  0  0  0  0  0  0  0
    0.3683    3.0980    3.7024 H   0  0  0  0  0  0  0  0  0  0  0  0
   -0.4768    3.6926    2.2597 H   0  0  0  0  0  0  0  0  0  0  0  0
  1  2  1  0  0  0  0
  2  3  1  0  0  0  0
  2  4  1  0  0  0  0
  2  5  1  0  0  0  0
  5  6  2  0  0  0  0
  5  7  1  0  0  0  0
  7  8  1  0  0  0  0
  7  9  1  0  0  0  0
  9 10  1  0  0  0  0
  9 11  1  0  0  0  0
  9 27  1  0  0  0  0
 11 12  1  0  0  0  0
 11 13  1  0  0  0  0
 11 14  1  0  0  0  0
 14 15  1  0  0  0  0
 14 16  1  0  0  0  0
 14 17  1  0  0  0  0
 17 18  1  0  0  0  0
 17 19  1  0  0  0  0
 17 20  1  0  0  0  0
 20 21  1  0  0  0  0
 20 22  1  0  0  0  0
 20 23  1  0  0  0  0
 23 24  1  0  0  0  0
 23 25  1  0  0  0  0
 23 26  1  0  0  0  0
 27 28  2  0  0  0  0
 27 29  1  0  0  0  0
 29 30  1  0  0  0  0
 29 31  1  0  0  0  0
 31 32  1  0  0  0  0
 31 33  1  0  0  0  0
 31 34  1  0  0  0  0
M  CHG  1  23   1
M  END
$$$$

  -OEChem-02102214153D

 34 33  0     1  0  0  0  0  0999 V2000
   -3.7108   -4.0746    1.6797 H   0  0  0  0  0  0  0  0  0  0  0  0
   -3.7684   -3.0468    1.3102 C   0  0  0  0  0  0  0  0  0  0  0  0
   -4.4224   -2.4724    1.9708 H   0  0  0  0  0  0  0  0  0  0  0  0
   -4.1958   -3.0591    0.3047 H   0  0  0  0  0  0  0  0  0  0  0  0
   -2.3852   -2.4255    1.2786 C   0  0  0  0  0  0  0  0  0  0  0  0
   -1.4109   -3.0757    1.6199 O   0  0  0  0  0  0  0  0  0  0  0  0
   -2.2198   -1.1198    0.8591 N   0  0  0  0  0  0  0  0  0  0  0  0
   -3.0644   -0.5864    0.6580 H   0  0  0  0  0  0  0  0  0  0  0  0
   -0.9433   -0.3887    0.9043 C   0  0  1  0  0  0  0  0  0  0  0  0
   -0.2990   -0.8968    1.6300 H   0  0  0  0  0  0  0  0  0  0  0  0
   -0.2408   -0.5346   -0.4749 C   0  0  0  0  0  0  0  0  0  0  0  0
    0.8057   -0.8086   -0.3050 H   0  0  0  0  0  0  0  0  0  0  0  0
   -0.6929   -1.3767   -1.0112 H   0  0  0  0  0  0  0  0  0  0  0  0
   -0.2857    0.7029   -1.3928 C   0  0  0  0  0  0  0  0  0  0  0  0
   -0.2528    0.3517   -2.4303 H   0  0  0  0  0  0  0  0  0  0  0  0
   -1.2405    1.2250   -1.2782 H   0  0  0  0  0  0  0  0  0  0  0  0
    0.9008    1.6529   -1.1835 C   0  0  0  0  0  0  0  0  0  0  0  0
    1.0285    1.8647   -0.1179 H   0  0  0  0  0  0  0  0  0  0  0  0
    1.8202    1.1804   -1.5464 H   0  0  0  0  0  0  0  0  0  0  0  0
    0.6318    2.9547   -1.9339 C   0  0  0  0  0  0  0  0  0  0  0  0
    0.5275    2.7400   -3.0075 H   0  0  0  0  0  0  0  0  0  0  0  0
   -0.3285    3.3702   -1.5920 H   0  0  0  0  0  0  0  0  0  0  0  0
    1.7377    3.9026   -1.6815 N   0  3  0  0  0  0  0  0  0  0  0  0
    2.6195    3.5083   -2.0139 H   0  0  0  0  0  0  0  0  0  0  0  0
    1.5621    4.7835   -2.1694 H   0  0  0  0  0  0  0  0  0  0  0  0
    1.8123    4.0884   -0.6797 H   0  0  0  0  0  0  0  0  0  0  0  0
   -1.0888    1.0463    1.4577 C   0  0  0  0  0  0  0  0  0  0  0  0
   -1.9650    1.7948    1.0419 O   0  0  0  0  0  0  0  0  0  0  0  0
   -0.1856    1.5254    2.3906 N   0  0  0  0  0  0  0  0  0  0  0  0
    0.4113    0.8289    2.8326 H   0  0  0  0  0  0  0  0  0  0  0  0
   -0.3959    2.7838    3.1006 C   0  0  0  0  0  0  0  0  0  0  0  0
   -1.3092    2.7349    3.7036 H   0  0  0  0  0  0  0  0  0  0  0  0
    0.4478    2.9890    3.7669 H   0  0  0  0  0  0  0  0  0  0  0  0
   -0.4865    3.6166    2.3955 H   0  0  0  0  0  0  0  0  0  0  0  0
  1  2  1  0  0  0  0
  2  3  1  0  0  0  0
  2  4  1  0  0  0  0
  2  5  1  0  0  0  0
  5  6  2  0  0  0  0
  5  7  1  0  0  0  0
  7  8  1  0  0  0  0
  7  9  1  0  0  0  0
  9 10  1  0  0  0  0
  9 11  1  0  0  0  0
  9 27  1  0  0  0  0
 11 12  1  0  0  0  0
 11 13  1  0  0  0  0
 11 14  1  0  0  0  0
 14 15  1  0  0  0  0
 14 16  1  0  0  0  0
 14 17  1  0  0  0  0
 17 18  1  0  0  0  0
 17 19  1  0  0  0  0
 17 20  1  0  0  0  0
 20 21  1  0  0  0  0
 20 22  1  0  0  0  0
 20 23  1  0  0  0  0
 23 24  1  0  0  0  0
 23 25  1  0  0  0  0
 23 26  1  0  0  0  0
 27 28  2  0  0  0  0
 27 29  1  0  0  0  0
 29 30  1  0  0  0  0
 29 31  1  0  0  0  0
 31 32  1  0  0  0  0
 31 33  1  0  0  0  0
 31 34  1  0  0  0  0
M  CHG  1  23   1
M  END
$$$$

  -OEChem-02102214153D

 34 33  0     1  0  0  0  0  0999 V2000
   -3.6572   -4.1033    1.7184 H   0  0  0  0  0  0  0  0  0  0  0  0
   -3.7399   -3.0778    1.3469 C   0  0  0  0  0  0  0  0  0  0  0  0
   -4.3702   -2.5062    2.0325 H   0  0  0  0  0  0  0  0  0  0  0  0
   -4.2100   -3.0982    0.3609 H   0  0  0  0  0  0  0  0  0  0  0  0
   -2.3654   -2.4437    1.2539 C   0  0  0  0  0  0  0  0  0  0  0  0
   -1.3689   -3.0922    1.5292 O   0  0  0  0  0  0  0  0  0  0  0  0
   -2.2336   -1.1284    0.8538 N   0  0  0  0  0  0  0  0  0  0  0  0
   -3.0930   -0.5969    0.7210 H   0  0  0  0  0  0  0  0  0  0  0  0
   -0.9691   -0.3764    0.8834 C   0  0  1  0  0  0  0  0  0  0  0  0
   -0.3110   -0.8855    1.5960 H   0  0  0  0  0  0  0  0  0  0  0  0
   -0.2677   -0.4905   -0.4975 C   0  0  0  0  0  0  0  0  0  0  0  0
    0.7823   -0.7511   -0.3276 H   0  0  0  0  0  0  0  0  0  0  0  0
   -0.7040   -1.3368   -1.0401 H   0  0  0  0  0  0  0  0  0  0  0  0
   -0.3369    0.7554   -1.4083 C   0  0  0  0  0  0  0  0  0  0  0  0
   -0.5566    0.4086   -2.4243 H   0  0  0  0  0  0  0  0  0  0  0  0
   -1.1638    1.4148   -1.1343 H   0  0  0  0  0  0  0  0  0  0  0  0
    0.9903    1.5200   -1.4518 C   0  0  0  0  0  0  0  0  0  0  0  0
    1.2841    1.7922   -0.4322 H   0  0  0  0  0  0  0  0  0  0  0  0
    1.7726    0.8804   -1.8755 H   0  0  0  0  0  0  0  0  0  0  0  0
    0.8186    2.7813   -2.2950 C   0  0  0  0  0  0  0  0  0  0  0  0
    0.5205    2.4974   -3.3151 H   0  0  0  0  0  0  0  0  0  0  0  0
   -0.0009    3.3839   -1.8747 H   0  0  0  0  0  0  0  0  0  0  0  0
    2.0873    3.5409   -2.3008 N   0  3  0  0  0  0  0  0  0  0  0  0
    2.8351    2.9697   -2.6989 H   0  0  0  0  0  0  0  0  0  0  0  0
    1.9845    4.3905   -2.8602 H   0  0  0  0  0  0  0  0  0  0  0  0
    2.3406    3.8018   -1.3460 H   0  0  0  0  0  0  0  0  0  0  0  0
   -1.1189    1.0470    1.4641 C   0  0  0  0  0  0  0  0  0  0  0  0
   -2.0587    1.7583    1.1316 O   0  0  0  0  0  0  0  0  0  0  0  0
   -0.2014    1.5274    2.3819 N   0  0  0  0  0  0  0  0  0  0  0  0
    0.4414    0.8447    2.7772 H   0  0  0  0  0  0  0  0  0  0  0  0
   -0.4189    2.7662    3.1240 C   0  0  0  0  0  0  0  0  0  0  0  0
   -1.3163    2.6867    3.7473 H   0  0  0  0  0  0  0  0  0  0  0  0
    0.4361    2.9749    3.7747 H   0  0  0  0  0  0  0  0  0  0  0  0
   -0.5427    3.6110    2.4384 H   0  0  0  0  0  0  0  0  0  0  0  0
  1  2  1  0  0  0  0
  2  3  1  0  0  0  0
  2  4  1  0  0  0  0
  2  5  1  0  0  0  0
  5  6  2  0  0  0  0
  5  7  1  0  0  0  0
  7  8  1  0  0  0  0
  7  9  1  0  0  0  0
  9 10  1  0  0  0  0
  9 11  1  0  0  0  0
  9 27  1  0  0  0  0
 11 12  1  0  0  0  0
 11 13  1  0  0  0  0
 11 14  1  0  0  0  0
 14 15  1  0  0  0  0
 14 16  1  0  0  0  0
 14 17  1  0  0  0  0
 17 18  1  0  0  0  0
 17 19  1  0  0  0  0
 17 20  1  0  0  0  0
 20 21  1  0  0  0  0
 20 22  1  0  0  0  0
 20 23  1  0  0  0  0
 23 24  1  0  0  0  0
 23 25  1  0  0  0  0
 23 26  1  0  0  0  0
 27 28  2  0  0  0  0
 27 29  1  0  0  0  0
 29 30  1  0  0  0  0
 29 31  1  0  0  0  0
 31 32  1  0  0  0  0
 31 33  1  0  0  0  0
 31 34  1  0  0  0  0
M  CHG  1  23   1
M  END
$$$$

  -OEChem-02102214153D

 34 33  0     1  0  0  0  0  0999 V2000
   -3.6121   -4.1201    1.6960 H   0  0  0  0  0  0  0  0  0  0  0  0
   -3.7111   -3.0876    1.3486 C   0  0  0  0  0  0  0  0  0  0  0  0
   -4.3228   -2.5342    2.0653 H   0  0  0  0  0  0  0  0  0  0  0  0
   -4.2113   -3.0893    0.3772 H   0  0  0  0  0  0  0  0  0  0  0  0
   -2.3427   -2.4452    1.2266 C   0  0  0  0  0  0  0  0  0  0  0  0
   -1.3351   -3.0959    1.4521 O   0  0  0  0  0  0  0  0  0  0  0  0
   -2.2281   -1.1207    0.8533 N   0  0  0  0  0  0  0  0  0  0  0  0
   -3.0932   -0.5879    0.7687 H   0  0  0  0  0  0  0  0  0  0  0  0
   -0.9701   -0.3586    0.8853 C   0  0  1  0  0  0  0  0  0  0  0  0
   -0.2981   -0.8732    1.5808 H   0  0  0  0  0  0  0  0  0  0  0  0
   -0.2897   -0.4417   -0.5092 C   0  0  0  0  0  0  0  0  0  0  0  0
    0.7636   -0.6856   -0.3358 H   0  0  0  0  0  0  0  0  0  0  0  0
   -0.7062   -1.2935   -1.0587 H   0  0  0  0  0  0  0  0  0  0  0  0
   -0.3654    0.8099   -1.4178 C   0  0  0  0  0  0  0  0  0  0  0  0
   -0.8774    0.5212   -2.3428 H   0  0  0  0  0  0  0  0  0  0  0  0
   -0.9660    1.6075   -0.9777 H   0  0  0  0  0  0  0  0  0  0  0  0
    1.0249    1.3521   -1.7687 C   0  0  0  0  0  0  0  0  0  0  0  0
    1.5531    1.6190   -0.8467 H   0  0  0  0  0  0  0  0  0  0  0  0
    1.6022    0.5755   -2.2829 H   0  0  0  0  0  0  0  0  0  0  0  0
    0.8828    2.5827   -2.6625 C   0  0  0  0  0  0  0  0  0  0  0  0
    0.3287    2.3061   -3.5717 H   0  0  0  0  0  0  0  0  0  0  0  0
    0.2834    3.3416   -2.1377 H   0  0  0  0  0  0  0  0  0  0  0  0
    2.2267    3.1027   -2.9954 N   0  3  0  0  0  0  0  0  0  0  0  0
    2.7687    2.3849   -3.4800 H   0  0  0  0  0  0  0  0  0  0  0  0
    2.1456    3.9224   -3.6011 H   0  0  0  0  0  0  0  0  0  0  0  0
    2.7189    3.3700   -2.1409 H   0  0  0  0  0  0  0  0  0  0  0  0
   -1.1473    1.0461    1.5011 C   0  0  0  0  0  0  0  0  0  0  0  0
   -2.1221    1.7271    1.2068 O   0  0  0  0  0  0  0  0  0  0  0  0
   -0.2374    1.5277    2.4248 N   0  0  0  0  0  0  0  0  0  0  0  0
    0.4471    0.8647    2.7806 H   0  0  0  0  0  0  0  0  0  0  0  0
   -0.4690    2.7499    3.1893 C   0  0  0  0  0  0  0  0  0  0  0  0
   -1.3611    2.6465    3.8166 H   0  0  0  0  0  0  0  0  0  0  0  0
    0.3874    2.9600    3.8378 H   0  0  0  0  0  0  0  0  0  0  0  0
   -0.6097    3.6045    2.5191 H   0  0  0  0  0  0  0  0  0  0  0  0
  1  2  1  0  0  0  0
  2  3  1  0  0  0  0
  2  4  1  0  0  0  0
  2  5  1  0  0  0  0
  5  6  2  0  0  0  0
  5  7  1  0  0  0  0
  7  8  1  0  0  0  0
  7  9  1  0  0  0  0
  9 10  1  0  0  0  0
  9 11  1  0  0  0  0
  9 27  1  0  0  0  0
 11 12  1  0  0  0  0
 11 13  1  0  0  0  0
 11 14  1  0  0  0  0
 14 15  1  0  0  0  0
 14 16  1  0  0  0  0
 14 17  1  0  0  0  0
 17 18  1  0  0  0  0
 17 19  1  0  0  0  0
 17 20  1  0  0  0  0
 20 21  1  0  0  0  0
 20 22  1  0  0  0  0
 20 23  1  0  0  0  0
 23 24  1  0  0  0  0
 23 25  1  0  0  0  0
 23 26  1  0  0  0  0
 27 28  2  0  0  0  0
 27 29  1  0  0  0  0
 29 30  1  0  0  0  0
 29 31  1  0  0  0  0
 31 32  1  0  0  0  0
 31 33  1  0  0  0  0
 31 34  1  0  0  0  0
M  CHG  1  23   1
M  END
$$$$

  -OEChem-02102214153D

 34 33  0     1  0  0  0  0  0999 V2000
   -3.6000   -4.1080    1.6986 H   0  0  0  0  0  0  0  0  0  0  0  0
   -3.6975   -3.0763    1.3485 C   0  0  0  0  0  0  0  0  0  0  0  0
   -4.2971   -2.5167    2.0705 H   0  0  0  0  0  0  0  0  0  0  0  0
   -4.2099   -3.0785    0.3835 H   0  0  0  0  0  0  0  0  0  0  0  0
   -2.3271   -2.4420    1.2073 C   0  0  0  0  0  0  0  0  0  0  0  0
   -1.3197   -3.1006    1.4099 O   0  0  0  0  0  0  0  0  0  0  0  0
   -2.2101   -1.1145    0.8461 N   0  0  0  0  0  0  0  0  0  0  0  0
   -3.0731   -0.5748    0.7853 H   0  0  0  0  0  0  0  0  0  0  0  0
   -0.9490   -0.3578    0.8840 C   0  0  1  0  0  0  0  0  0  0  0  0
   -0.2672   -0.8794    1.5646 H   0  0  0  0  0  0  0  0  0  0  0  0
   -0.2981   -0.4164   -0.5265 C   0  0  0  0  0  0  0  0  0  0  0  0
    0.7591   -0.6462   -0.3574 H   0  0  0  0  0  0  0  0  0  0  0  0
   -0.7042   -1.2659   -1.0867 H   0  0  0  0  0  0  0  0  0  0  0  0
   -0.3771    0.8496   -1.4153 C   0  0  0  0  0  0  0  0  0  0  0  0
   -1.1523    0.6920   -2.1737 H   0  0  0  0  0  0  0  0  0  0  0  0
   -0.6686    1.7340   -0.8465 H   0  0  0  0  0  0  0  0  0  0  0  0
    0.9680    1.1581   -2.0838 C   0  0  0  0  0  0  0  0  0  0  0  0
    1.7241    1.3481   -1.3139 H   0  0  0  0  0  0  0  0  0  0  0  0
    1.2886    0.2915   -2.6730 H   0  0  0  0  0  0  0  0  0  0  0  0
    0.8221    2.3815   -2.9870 C   0  0  0  0  0  0  0  0  0  0  0  0
    0.0375    2.1864   -3.7330 H   0  0  0  0  0  0  0  0  0  0  0  0
    0.4870    3.2378   -2.3829 H   0  0  0  0  0  0  0  0  0  0  0  0
    2.1186    2.6642   -3.6404 N   0  3  0  0  0  0  0  0  0  0  0  0
    2.4105    1.8598   -4.1991 H   0  0  0  0  0  0  0  0  0  0  0  0
    2.0329    3.4791   -4.2520 H   0  0  0  0  0  0  0  0  0  0  0  0
    2.8320    2.8537   -2.9339 H   0  0  0  0  0  0  0  0  0  0  0  0
   -1.1457    1.0361    1.5166 C   0  0  0  0  0  0  0  0  0  0  0  0
   -2.1205    1.7116    1.2085 O   0  0  0  0  0  0  0  0  0  0  0  0
   -0.2497    1.5208    2.4520 N   0  0  0  0  0  0  0  0  0  0  0  0
    0.4418    0.8661    2.8094 H   0  0  0  0  0  0  0  0  0  0  0  0
   -0.4965    2.7422    3.2126 C   0  0  0  0  0  0  0  0  0  0  0  0
   -1.4047    2.6401    3.8166 H   0  0  0  0  0  0  0  0  0  0  0  0
    0.3433    2.9486    3.8835 H   0  0  0  0  0  0  0  0  0  0  0  0
   -0.6172    3.5981    2.5400 H   0  0  0  0  0  0  0  0  0  0  0  0
  1  2  1  0  0  0  0
  2  3  1  0  0  0  0
  2  4  1  0  0  0  0
  2  5  1  0  0  0  0
  5  6  2  0  0  0  0
  5  7  1  0  0  0  0
  7  8  1  0  0  0  0
  7  9  1  0  0  0  0
  9 10  1  0  0  0  0
  9 11  1  0  0  0  0
  9 27  1  0  0  0  0
 11 12  1  0  0  0  0
 11 13  1  0  0  0  0
 11 14  1  0  0  0  0
 14 15  1  0  0  0  0
 14 16  1  0  0  0  0
 14 17  1  0  0  0  0
 17 18  1  0  0  0  0
 17 19  1  0  0  0  0
 17 20  1  0  0  0  0
 20 21  1  0  0  0  0
 20 22  1  0  0  0  0
 20 23  1  0  0  0  0
 23 24  1  0  0  0  0
 23 25  1  0  0  0  0
 23 26  1  0  0  0  0
 27 28  2  0  0  0  0
 27 29  1  0  0  0  0
 29 30  1  0  0  0  0
 29 31  1  0  0  0  0
 31 32  1  0  0  0  0
 31 33  1  0  0  0  0
 31 34  1  0  0  0  0
M  CHG  1  23   1
M  END
$$$$

  -OEChem-02102214153D

 34 33  0     1  0  0  0  0  0999 V2000
   -3.6190   -4.1013    1.6763 H   0  0  0  0  0  0  0  0  0  0  0  0
   -3.7044   -3.0634    1.3420 C   0  0  0  0  0  0  0  0  0  0  0  0
   -4.2950   -2.5074    2.0740 H   0  0  0  0  0  0  0  0  0  0  0  0
   -4.2194   -3.0450    0.3787 H   0  0  0  0  0  0  0  0  0  0  0  0
   -2.3266   -2.4435    1.2064 C   0  0  0  0  0  0  0  0  0  0  0  0
   -1.3271   -3.1124    1.4129 O   0  0  0  0  0  0  0  0  0  0  0  0
   -2.1945   -1.1197    0.8371 N   0  0  0  0  0  0  0  0  0  0  0  0
   -3.0516   -0.5710    0.7718 H   0  0  0  0  0  0  0  0  0  0  0  0
   -0.9260   -0.3752    0.8787 C   0  0  1  0  0  0  0  0  0  0  0  0
   -0.2416   -0.8990    1.5554 H   0  0  0  0  0  0  0  0  0  0  0  0
   -0.2933   -0.4248   -0.5396 C   0  0  0  0  0  0  0  0  0  0  0  0
    0.7659   -0.6555   -0.3851 H   0  0  0  0  0  0  0  0  0  0  0  0
   -0.7105   -1.2631   -1.1086 H   0  0  0  0  0  0  0  0  0  0  0  0
   -0.3766    0.8586   -1.3970 C   0  0  0  0  0  0  0  0  0  0  0  0
   -1.3249    0.8582   -1.9460 H   0  0  0  0  0  0  0  0  0  0  0  0
   -0.3581    1.7568   -0.7746 H   0  0  0  0  0  0  0  0  0  0  0  0
    0.8149    0.9632   -2.3559 C   0  0  0  0  0  0  0  0  0  0  0  0
    1.7459    1.0276   -1.7816 H   0  0  0  0  0  0  0  0  0  0  0  0
    0.8584    0.0621   -2.9781 H   0  0  0  0  0  0  0  0  0  0  0  0
    0.6545    2.2006   -3.2366 C   0  0  0  0  0  0  0  0  0  0  0  0
   -0.3037    2.1383   -3.7734 H   0  0  0  0  0  0  0  0  0  0  0  0
    0.6088    3.0953   -2.5980 H   0  0  0  0  0  0  0  0  0  0  0  0
    1.7891    2.2764   -4.1821 N   0  3  0  0  0  0  0  0  0  0  0  0
    1.8129    1.4381   -4.7660 H   0  0  0  0  0  0  0  0  0  0  0  0
    1.6900    3.0969   -4.7839 H   0  0  0  0  0  0  0  0  0  0  0  0
    2.6689    2.3470   -3.6674 H   0  0  0  0  0  0  0  0  0  0  0  0
   -1.1294    1.0217    1.5026 C   0  0  0  0  0  0  0  0  0  0  0  0
   -2.0866    1.7044    1.1566 O   0  0  0  0  0  0  0  0  0  0  0  0
   -0.2459    1.5134    2.4460 N   0  0  0  0  0  0  0  0  0  0  0  0
    0.4469    0.8658    2.8135 H   0  0  0  0  0  0  0  0  0  0  0  0
   -0.4827    2.7569    3.1731 C   0  0  0  0  0  0  0  0  0  0  0  0
   -1.3999    2.6848    3.7677 H   0  0  0  0  0  0  0  0  0  0  0  0
    0.3521    2.9666    3.8493 H   0  0  0  0  0  0  0  0  0  0  0  0
   -0.5808    3.5976    2.4781 H   0  0  0  0  0  0  0  0  0  0  0  0
  1  2  1  0  0  0  0
  2  3  1  0  0  0  0
  2  4  1  0  0  0  0
  2  5  1  0  0  0  0
  5  6  2  0  0  0  0
  5  7  1  0  0  0  0
  7  8  1  0  0  0  0
  7  9  1  0  0  0  0
  9 10  1  0  0  0  0
  9 11  1  0  0  0  0
  9 27  1  0  0  0  0
 11 12  1  0  0  0  0
 11 13  1  0  0  0  0
 11 14  1  0  0  0  0
 14 15  1  0  0  0  0
 14 16  1  0  0  0  0
 14 17  1  0  0  0  0
 17 18  1  0  0  0  0
 17 19  1  0  0  0  0
 17 20  1  0  0  0  0
 20 21  1  0  0  0  0
 20 22  1  0  0  0  0
 20 23  1  0  0  0  0
 23 24  1  0  0  0  0
 23 25  1  0  0  0  0
 23 26  1  0  0  0  0
 27 28  2  0  0  0  0
 27 29  1  0  0  0  0
 29 30  1  0  0  0  0
 29 31  1  0  0  0  0
 31 32  1  0  0  0  0
 31 33  1  0  0  0  0
 31 34  1  0  0  0  0
M  CHG  1  23   1
M  END
$$$$

  -OEChem-02102214153D

 34 33  0     1  0  0  0  0  0999 V2000
   -3.6385   -4.0773    1.7566 H   0  0  0  0  0  0  0  0  0  0  0  0
   -3.7161   -3.0557    1.3735 C   0  0  0  0  0  0  0  0  0  0  0  0
   -4.3073   -2.4624    2.0754 H   0  0  0  0  0  0  0  0  0  0  0  0
   -4.2249   -3.0793    0.4069 H   0  0  0  0  0  0  0  0  0  0  0  0
   -2.3343   -2.4508    1.2175 C   0  0  0  0  0  0  0  0  0  0  0  0
   -1.3393   -3.1253    1.4276 O   0  0  0  0  0  0  0  0  0  0  0  0
   -2.1941   -1.1341    0.8273 N   0  0  0  0  0  0  0  0  0  0  0  0
   -3.0472   -0.5799    0.7592 H   0  0  0  0  0  0  0  0  0  0  0  0
   -0.9201   -0.3989    0.8603 C   0  0  1  0  0  0  0  0  0  0  0  0
   -0.2358   -0.9191    1.5396 H   0  0  0  0  0  0  0  0  0  0  0  0
   -0.2934   -0.4562   -0.5587 C   0  0  0  0  0  0  0  0  0  0  0  0
    0.7670   -0.6934   -0.4227 H   0  0  0  0  0  0  0  0  0  0  0  0
   -0.7293   -1.2853   -1.1272 H   0  0  0  0  0  0  0  0  0  0  0  0
   -0.3858    0.8374   -1.3922 C   0  0  0  0  0  0  0  0  0  0  0  0
   -1.4219    0.9805   -1.7204 H   0  0  0  0  0  0  0  0  0  0  0  0
   -0.1015    1.7050   -0.7882 H   0  0  0  0  0  0  0  0  0  0  0  0
    0.5642    0.7824   -2.5935 C   0  0  0  0  0  0  0  0  0  0  0  0
    1.5971    0.6824   -2.2418 H   0  0  0  0  0  0  0  0  0  0  0  0
    0.3254   -0.0959   -3.2036 H   0  0  0  0  0  0  0  0  0  0  0  0
    0.4127    2.0536   -3.4257 C   0  0  0  0  0  0  0  0  0  0  0  0
   -0.6356    2.1524   -3.7442 H   0  0  0  0  0  0  0  0  0  0  0  0
    0.6419    2.9266   -2.7970 H   0  0  0  0  0  0  0  0  0  0  0  0
    1.3191    1.9822   -4.5923 N   0  3  0  0  0  0  0  0  0  0  0  0
    1.0816    1.1730   -5.1694 H   0  0  0  0  0  0  0  0  0  0  0  0
    1.2308    2.8296   -5.1573 H   0  0  0  0  0  0  0  0  0  0  0  0
    2.2872    1.8923   -4.2782 H   0  0  0  0  0  0  0  0  0  0  0  0
   -1.1142    1.0093    1.4621 C   0  0  0  0  0  0  0  0  0  0  0  0
   -2.0597    1.6976    1.0953 O   0  0  0  0  0  0  0  0  0  0  0  0
   -0.2295    1.5090    2.3998 N   0  0  0  0  0  0  0  0  0  0  0  0
    0.4599    0.8638    2.7780 H   0  0  0  0  0  0  0  0  0  0  0  0
   -0.4504    2.7718    3.0983 C   0  0  0  0  0  0  0  0  0  0  0  0
   -1.3895    2.7400    3.6613 H   0  0  0  0  0  0  0  0  0  0  0  0
    0.3664    2.9650    3.8009 H   0  0  0  0  0  0  0  0  0  0  0  0
   -0.4960    3.6033    2.3871 H   0  0  0  0  0  0  0  0  0  0  0  0
  1  2  1  0  0  0  0
  2  3  1  0  0  0  0
  2  4  1  0  0  0  0
  2  5  1  0  0  0  0
  5  6  2  0  0  0  0
  5  7  1  0  0  0  0
  7  8  1  0  0  0  0
  7  9  1  0  0  0  0
  9 10  1  0  0  0  0
  9 11  1  0  0  0  0
  9 27  1  0  0  0  0
 11 12  1  0  0  0  0
 11 13  1  0  0  0  0
 11 14  1  0  0  0  0
 14 15  1  0  0  0  0
 14 16  1  0  0  0  0
 14 17  1  0  0  0  0
 17 18  1  0  0  0  0
 17 19  1  0  0  0  0
 17 20  1  0  0  0  0
 20 21  1  0  0  0  0
 20 22  1  0  0  0  0
 20 23  1  0  0  0  0
 23 24  1  0  0  0  0
 23 25  1  0  0  0  0
 23 26  1  0  0  0  0
 27 28  2  0  0  0  0
 27 29  1  0  0  0  0
 29 30  1  0  0  0  0
 29 31  1  0  0  0  0
 31 32  1  0  0  0  0
 31 33  1  0  0  0  0
 31 34  1  0  0  0  0
M  CHG  1  23   1
M  END
$$$$

  -OEChem-02102214153D

 34 33  0     1  0  0  0  0  0999 V2000
   -3.6605   -4.0703    1.7634 H   0  0  0  0  0  0  0  0  0  0  0  0
   -3.7287   -3.0510    1.3725 C   0  0  0  0  0  0  0  0  0  0  0  0
   -4.3272   -2.4505    2.0617 H   0  0  0  0  0  0  0  0  0  0  0  0
   -4.2243   -3.0790    0.3992 H   0  0  0  0  0  0  0  0  0  0  0  0
   -2.3424   -2.4528    1.2316 C   0  0  0  0  0  0  0  0  0  0  0  0
   -1.3534   -3.1278    1.4670 O   0  0  0  0  0  0  0  0  0  0  0  0
   -2.1905   -1.1431    0.8235 N   0  0  0  0  0  0  0  0  0  0  0  0
   -3.0389   -0.5840    0.7385 H   0  0  0  0  0  0  0  0  0  0  0  0
   -0.9111   -0.4178    0.8574 C   0  0  1  0  0  0  0  0  0  0  0  0
   -0.2295   -0.9274    1.5474 H   0  0  0  0  0  0  0  0  0  0  0  0
   -0.2750   -0.4807   -0.5585 C   0  0  0  0  0  0  0  0  0  0  0  0
    0.6828   -1.0046   -0.4712 H   0  0  0  0  0  0  0  0  0  0  0  0
   -0.9076   -1.0890   -1.2145 H   0  0  0  0  0  0  0  0  0  0  0  0
   -0.0317    0.8799   -1.2357 C   0  0  0  0  0  0  0  0  0  0  0  0
   -0.9867    1.4074   -1.3420 H   0  0  0  0  0  0  0  0  0  0  0  0
    0.6303    1.4921   -0.6130 H   0  0  0  0  0  0  0  0  0  0  0  0
    0.5957    0.6948   -2.6212 C   0  0  0  0  0  0  0  0  0  0  0  0
    1.5648    0.1932   -2.5216 H   0  0  0  0  0  0  0  0  0  0  0  0
   -0.0556    0.0591   -3.2314 H   0  0  0  0  0  0  0  0  0  0  0  0
    0.7712    2.0550   -3.2925 C   0  0  0  0  0  0  0  0  0  0  0  0
   -0.2058    2.5577   -3.3481 H   0  0  0  0  0  0  0  0  0  0  0  0
    1.4232    2.6855   -2.6701 H   0  0  0  0  0  0  0  0  0  0  0  0
    1.3456    1.8581   -4.6410 N   0  3  0  0  0  0  0  0  0  0  0  0
    0.7197    1.2797   -5.2050 H   0  0  0  0  0  0  0  0  0  0  0  0
    1.4708    2.7604   -5.1051 H   0  0  0  0  0  0  0  0  0  0  0  0
    2.2523    1.3926   -4.5700 H   0  0  0  0  0  0  0  0  0  0  0  0
   -1.1104    0.9993    1.4391 C   0  0  0  0  0  0  0  0  0  0  0  0
   -2.0455    1.6890    1.0496 O   0  0  0  0  0  0  0  0  0  0  0  0
   -0.2347    1.5083    2.3805 N   0  0  0  0  0  0  0  0  0  0  0  0
    0.4432    0.8641    2.7806 H   0  0  0  0  0  0  0  0  0  0  0  0
   -0.4479    2.7897    3.0466 C   0  0  0  0  0  0  0  0  0  0  0  0
   -1.3871    2.7783    3.6102 H   0  0  0  0  0  0  0  0  0  0  0  0
    0.3704    2.9962    3.7436 H   0  0  0  0  0  0  0  0  0  0  0  0
   -0.4881    3.6031    2.3145 H   0  0  0  0  0  0  0  0  0  0  0  0
  1  2  1  0  0  0  0
  2  3  1  0  0  0  0
  2  4  1  0  0  0  0
  2  5  1  0  0  0  0
  5  6  2  0  0  0  0
  5  7  1  0  0  0  0
  7  8  1  0  0  0  0
  7  9  1  0  0  0  0
  9 10  1  0  0  0  0
  9 11  1  0  0  0  0
  9 27  1  0  0  0  0
 11 12  1  0  0  0  0
 11 13  1  0  0  0  0
 11 14  1  0  0  0  0
 14 15  1  0  0  0  0
 14 16  1  0  0  0  0
 14 17  1  0  0  0  0
 17 18  1  0  0  0  0
 17 19  1  0  0  0  0
 17 20  1  0  0  0  0
 20 21  1  0  0  0  0
 20 22  1  0  0  0  0
 20 23  1  0  0  0  0
 23 24  1  0  0  0  0
 23 25  1  0  0  0  0
 23 26  1  0  0  0  0
 27 28  2  0  0  0  0
 27 29  1  0  0  0  0
 29 30  1  0  0  0  0
 29 31  1  0  0  0  0
 31 32  1  0  0  0  0
 31 33  1  0  0  0  0
 31 34  1  0  0  0  0
M  CHG  1  23   1
M  END
$$$$

  -OEChem-02102214153D

 34 33  0     1  0  0  0  0  0999 V2000
   -3.6470   -4.0616    1.8027 H   0  0  0  0  0  0  0  0  0  0  0  0
   -3.7270   -3.0494    1.3962 C   0  0  0  0  0  0  0  0  0  0  0  0
   -4.3157   -2.4405    2.0865 H   0  0  0  0  0  0  0  0  0  0  0  0
   -4.2406   -3.0962    0.4331 H   0  0  0  0  0  0  0  0  0  0  0  0
   -2.3460   -2.4478    1.2197 C   0  0  0  0  0  0  0  0  0  0  0  0
   -1.3501   -3.1259    1.4126 O   0  0  0  0  0  0  0  0  0  0  0  0
   -2.2064   -1.1326    0.8242 N   0  0  0  0  0  0  0  0  0  0  0  0
   -3.0571   -0.5717    0.7830 H   0  0  0  0  0  0  0  0  0  0  0  0
   -0.9281   -0.4035    0.8476 C   0  0  1  0  0  0  0  0  0  0  0  0
   -0.2451   -0.9179    1.5327 H   0  0  0  0  0  0  0  0  0  0  0  0
   -0.2868   -0.4657   -0.5662 C   0  0  0  0  0  0  0  0  0  0  0  0
    0.6698   -0.9931   -0.4869 H   0  0  0  0  0  0  0  0  0  0  0  0
   -0.9277   -1.0760   -1.2120 H   0  0  0  0  0  0  0  0  0  0  0  0
   -0.0436    0.8906   -1.2557 C   0  0  0  0  0  0  0  0  0  0  0  0
   -0.9377    1.5163   -1.1670 H   0  0  0  0  0  0  0  0  0  0  0  0
    0.7881    1.4110   -0.7678 H   0  0  0  0  0  0  0  0  0  0  0  0
    0.2374    0.6976   -2.7502 C   0  0  0  0  0  0  0  0  0  0  0  0
    1.1386    0.0873   -2.8762 H   0  0  0  0  0  0  0  0  0  0  0  0
   -0.6016    0.1659   -3.2128 H   0  0  0  0  0  0  0  0  0  0  0  0
    0.4223    2.0551   -3.4240 C   0  0  0  0  0  0  0  0  0  0  0  0
   -0.4751    2.6682   -3.2525 H   0  0  0  0  0  0  0  0  0  0  0  0
    1.2672    2.5807   -2.9551 H   0  0  0  0  0  0  0  0  0  0  0  0
    0.6559    1.8478   -4.8697 N   0  3  0  0  0  0  0  0  0  0  0  0
   -0.1437    1.3661   -5.2859 H   0  0  0  0  0  0  0  0  0  0  0  0
    0.7810    2.7479   -5.3384 H   0  0  0  0  0  0  0  0  0  0  0  0
    1.4942    1.2807   -5.0106 H   0  0  0  0  0  0  0  0  0  0  0  0
   -1.1139    1.0079    1.4471 C   0  0  0  0  0  0  0  0  0  0  0  0
   -2.0759    1.6876    1.1083 O   0  0  0  0  0  0  0  0  0  0  0  0
   -0.2218    1.5067    2.3786 N   0  0  0  0  0  0  0  0  0  0  0  0
    0.4802    0.8662    2.7414 H   0  0  0  0  0  0  0  0  0  0  0  0
   -0.4352    2.7689    3.0803 C   0  0  0  0  0  0  0  0  0  0  0  0
   -1.3743    2.7416    3.6437 H   0  0  0  0  0  0  0  0  0  0  0  0
    0.3831    2.9557    3.7829 H   0  0  0  0  0  0  0  0  0  0  0  0
   -0.4761    3.6019    2.3707 H   0  0  0  0  0  0  0  0  0  0  0  0
  1  2  1  0  0  0  0
  2  3  1  0  0  0  0
  2  4  1  0  0  0  0
  2  5  1  0  0  0  0
  5  6  2  0  0  0  0
  5  7  1  0  0  0  0
  7  8  1  0  0  0  0
  7  9  1  0  0  0  0
  9 10  1  0  0  0  0
  9 11  1  0  0  0  0
  9 27  1  0  0  0  0
 11 12  1  0  0  0  0
 11 13  1  0  0  0  0
 11 14  1  0  0  0  0
 14 15  1  0  0  0  0
 14 16  1  0  0  0  0
 14 17  1  0  0  0  0
 17 18  1  0  0  0  0
 17 19  1  0  0  0  0
 17 20  1  0  0  0  0
 20 21  1  0  0  0  0
 20 22  1  0  0  0  0
 20 23  1  0  0  0  0
 23 24  1  0  0  0  0
 23 25  1  0  0  0  0
 23 26  1  0  0  0  0
 27 28  2  0  0  0  0
 27 29  1  0  0  0  0
 29 30  1  0  0  0  0
 29 31  1  0  0  0  0
 31 32  1  0  0  0  0
 31 33  1  0  0  0  0
 31 34  1  0  0  0  0
M  CHG  1  23   1
M  END
$$$$

  -OEChem-02102214153D

 34 33  0     1  0  0  0  0  0999 V2000
   -3.6343   -4.0772    1.7630 H   0  0  0  0  0  0  0  0  0  0  0  0
   -3.7243   -3.0451    1.4123 C   0  0  0  0  0  0  0  0  0  0  0  0
   -4.2849   -2.4711    2.1543 H   0  0  0  0  0  0  0  0  0  0  0  0
   -4.2727   -3.0413    0.4674 H   0  0  0  0  0  0  0  0  0  0  0  0
   -2.3473   -2.4397    1.2166 C   0  0  0  0  0  0  0  0  0  0  0  0
   -1.3479   -3.1202    1.3799 O   0  0  0  0  0  0  0  0  0  0  0  0
   -2.2152   -1.1192    0.8359 N   0  0  0  0  0  0  0  0  0  0  0  0
   -3.0664   -0.5579    0.8236 H   0  0  0  0  0  0  0  0  0  0  0  0
   -0.9377   -0.3874    0.8506 C   0  0  1  0  0  0  0  0  0  0  0  0
   -0.2496   -0.9069    1.5267 H   0  0  0  0  0  0  0  0  0  0  0  0
   -0.2997   -0.4455   -0.5667 C   0  0  0  0  0  0  0  0  0  0  0  0
    0.6559   -0.9758   -0.4938 H   0  0  0  0  0  0  0  0  0  0  0  0
   -0.9447   -1.0638   -1.2007 H   0  0  0  0  0  0  0  0  0  0  0  0
   -0.0512    0.9028   -1.2798 C   0  0  0  0  0  0  0  0  0  0  0  0
   -0.8140    1.6339   -1.0001 H   0  0  0  0  0  0  0  0  0  0  0  0
    0.9241    1.3028   -0.9813 H   0  0  0  0  0  0  0  0  0  0  0  0
   -0.1414    0.7399   -2.8021 C   0  0  0  0  0  0  0  0  0  0  0  0
    0.6165    0.0232   -3.1371 H   0  0  0  0  0  0  0  0  0  0  0  0
   -1.1275    0.3427   -3.0677 H   0  0  0  0  0  0  0  0  0  0  0  0
    0.0712    2.0893   -3.4844 C   0  0  0  0  0  0  0  0  0  0  0  0
   -0.6682    2.8078   -3.1001 H   0  0  0  0  0  0  0  0  0  0  0  0
    1.0662    2.4767   -3.2204 H   0  0  0  0  0  0  0  0  0  0  0  0
   -0.0661    1.9175   -4.9471 N   0  3  0  0  0  0  0  0  0  0  0  0
   -0.9996    1.5658   -5.1697 H   0  0  0  0  0  0  0  0  0  0  0  0
    0.0722    2.8129   -5.4209 H   0  0  0  0  0  0  0  0  0  0  0  0
    0.6290    1.2505   -5.2877 H   0  0  0  0  0  0  0  0  0  0  0  0
   -1.1197    1.0150    1.4707 C   0  0  0  0  0  0  0  0  0  0  0  0
   -2.0984    1.6876    1.1665 O   0  0  0  0  0  0  0  0  0  0  0  0
   -0.2169    1.5051    2.3961 N   0  0  0  0  0  0  0  0  0  0  0  0
    0.5026    0.8676    2.7288 H   0  0  0  0  0  0  0  0  0  0  0  0
   -0.4342    2.7475    3.1310 C   0  0  0  0  0  0  0  0  0  0  0  0
   -1.3474    2.6828    3.7326 H   0  0  0  0  0  0  0  0  0  0  0  0
    0.4079    2.9442    3.8020 H   0  0  0  0  0  0  0  0  0  0  0  0
   -0.5277    3.5926    2.4407 H   0  0  0  0  0  0  0  0  0  0  0  0
  1  2  1  0  0  0  0
  2  3  1  0  0  0  0
  2  4  1  0  0  0  0
  2  5  1  0  0  0  0
  5  6  2  0  0  0  0
  5  7  1  0  0  0  0
  7  8  1  0  0  0  0
  7  9  1  0  0  0  0
  9 10  1  0  0  0  0
  9 11  1  0  0  0  0
  9 27  1  0  0  0  0
 11 12  1  0  0  0  0
 11 13  1  0  0  0  0
 11 14  1  0  0  0  0
 14 15  1  0  0  0  0
 14 16  1  0  0  0  0
 14 17  1  0  0  0  0
 17 18  1  0  0  0  0
 17 19  1  0  0  0  0
 17 20  1  0  0  0  0
 20 21  1  0  0  0  0
 20 22  1  0  0  0  0
 20 23  1  0  0  0  0
 23 24  1  0  0  0  0
 23 25  1  0  0  0  0
 23 26  1  0  0  0  0
 27 28  2  0  0  0  0
 27 29  1  0  0  0  0
 29 30  1  0  0  0  0
 29 31  1  0  0  0  0
 31 32  1  0  0  0  0
 31 33  1  0  0  0  0
 31 34  1  0  0  0  0
M  CHG  1  23   1
M  END
$$$$

  -OEChem-02102214153D

 34 33  0     1  0  0  0  0  0999 V2000
   -3.6381   -4.0817    1.7390 H   0  0  0  0  0  0  0  0  0  0  0  0
   -3.7247   -3.0383    1.4224 C   0  0  0  0  0  0  0  0  0  0  0  0
   -4.2671   -2.4827    2.1911 H   0  0  0  0  0  0  0  0  0  0  0  0
   -4.2892   -3.0004    0.4879 H   0  0  0  0  0  0  0  0  0  0  0  0
   -2.3462   -2.4378    1.2221 C   0  0  0  0  0  0  0  0  0  0  0  0
   -1.3486   -3.1228    1.3765 O   0  0  0  0  0  0  0  0  0  0  0  0
   -2.2117   -1.1155    0.8484 N   0  0  0  0  0  0  0  0  0  0  0  0
   -3.0607   -0.5508    0.8455 H   0  0  0  0  0  0  0  0  0  0  0  0
   -0.9309   -0.3887    0.8618 C   0  0  1  0  0  0  0  0  0  0  0  0
   -0.2387   -0.9122    1.5308 H   0  0  0  0  0  0  0  0  0  0  0  0
   -0.3088   -0.4412   -0.5644 C   0  0  0  0  0  0  0  0  0  0  0  0
    0.6453   -0.9743   -0.4927 H   0  0  0  0  0  0  0  0  0  0  0  0
   -0.9535   -1.0676   -1.1905 H   0  0  0  0  0  0  0  0  0  0  0  0
   -0.0479    0.8987   -1.2980 C   0  0  0  0  0  0  0  0  0  0  0  0
   -0.5800    1.7313   -0.8346 H   0  0  0  0  0  0  0  0  0  0  0  0
    1.0219    1.1300   -1.2490 H   0  0  0  0  0  0  0  0  0  0  0  0
   -0.5135    0.8240   -2.7572 C   0  0  0  0  0  0  0  0  0  0  0  0
    0.0344    0.0298   -3.2763 H   0  0  0  0  0  0  0  0  0  0  0  0
   -1.5806    0.5761   -2.7825 H   0  0  0  0  0  0  0  0  0  0  0  0
   -0.2799    2.1655   -3.4477 C   0  0  0  0  0  0  0  0  0  0  0  0
   -0.7968    2.9557   -2.8826 H   0  0  0  0  0  0  0  0  0  0  0  0
    0.7941    2.4019   -3.4272 H   0  0  0  0  0  0  0  0  0  0  0  0
   -0.7844    2.0889   -4.8356 N   0  3  0  0  0  0  0  0  0  0  0  0
   -1.7863    1.8870   -4.8305 H   0  0  0  0  0  0  0  0  0  0  0  0
   -0.6280    2.9774   -5.3163 H   0  0  0  0  0  0  0  0  0  0  0  0
   -0.2994    1.3465   -5.3432 H   0  0  0  0  0  0  0  0  0  0  0  0
   -1.1204    1.0074    1.4931 C   0  0  0  0  0  0  0  0  0  0  0  0
   -2.0984    1.6797    1.1831 O   0  0  0  0  0  0  0  0  0  0  0  0
   -0.2210    1.4968    2.4221 N   0  0  0  0  0  0  0  0  0  0  0  0
    0.5048    0.8632    2.7485 H   0  0  0  0  0  0  0  0  0  0  0  0
   -0.4361    2.7407    3.1549 C   0  0  0  0  0  0  0  0  0  0  0  0
   -1.3414    2.6733    3.7680 H   0  0  0  0  0  0  0  0  0  0  0  0
    0.4135    2.9445    3.8143 H   0  0  0  0  0  0  0  0  0  0  0  0
   -0.5428    3.5829    2.4632 H   0  0  0  0  0  0  0  0  0  0  0  0
  1  2  1  0  0  0  0
  2  3  1  0  0  0  0
  2  4  1  0  0  0  0
  2  5  1  0  0  0  0
  5  6  2  0  0  0  0
  5  7  1  0  0  0  0
  7  8  1  0  0  0  0
  7  9  1  0  0  0  0
  9 10  1  0  0  0  0
  9 11  1  0  0  0  0
  9 27  1  0  0  0  0
 11 12  1  0  0  0  0
 11 13  1  0  0  0  0
 11 14  1  0  0  0  0
 14 15  1  0  0  0  0
 14 16  1  0  0  0  0
 14 17  1  0  0  0  0
 17 18  1  0  0  0  0
 17 19  1  0  0  0  0
 17 20  1  0  0  0  0
 20 21  1  0  0  0  0
 20 22  1  0  0  0  0
 20 23  1  0  0  0  0
 23 24  1  0  0  0  0
 23 25  1  0  0  0  0
 23 26  1  0  0  0  0
 27 28  2  0  0  0  0
 27 29  1  0  0  0  0
 29 30  1  0  0  0  0
 29 31  1  0  0  0  0
 31 32  1  0  0  0  0
 31 33  1  0  0  0  0
 31 34  1  0  0  0  0
M  CHG  1  23   1
M  END
$$$$

  -OEChem-02102214153D

 34 33  0     1  0  0  0  0  0999 V2000
   -3.6629   -4.0653    1.7674 H   0  0  0  0  0  0  0  0  0  0  0  0
   -3.7374   -3.0263    1.4333 C   0  0  0  0  0  0  0  0  0  0  0  0
   -4.2842   -2.4548    2.1871 H   0  0  0  0  0  0  0  0  0  0  0  0
   -4.2907   -2.9986    0.4918 H   0  0  0  0  0  0  0  0  0  0  0  0
   -2.3516   -2.4406    1.2399 C   0  0  0  0  0  0  0  0  0  0  0  0
   -1.3624   -3.1305    1.4219 O   0  0  0  0  0  0  0  0  0  0  0  0
   -2.2004   -1.1260    0.8455 N   0  0  0  0  0  0  0  0  0  0  0  0
   -3.0434   -0.5532    0.8250 H   0  0  0  0  0  0  0  0  0  0  0  0
   -0.9116   -0.4136    0.8653 C   0  0  1  0  0  0  0  0  0  0  0  0
   -0.2222   -0.9326    1.5410 H   0  0  0  0  0  0  0  0  0  0  0  0
   -0.2996   -0.4771   -0.5657 C   0  0  0  0  0  0  0  0  0  0  0  0
    0.6572   -1.0030   -0.4752 H   0  0  0  0  0  0  0  0  0  0  0  0
   -0.9281   -1.1185   -1.1935 H   0  0  0  0  0  0  0  0  0  0  0  0
   -0.0207    0.8554   -1.3094 C   0  0  0  0  0  0  0  0  0  0  0  0
   -0.2427    1.7376   -0.7071 H   0  0  0  0  0  0  0  0  0  0  0  0
    1.0493    0.9026   -1.5402 H   0  0  0  0  0  0  0  0  0  0  0  0
   -0.8155    0.9268   -2.6178 C   0  0  0  0  0  0  0  0  0  0  0  0
   -0.4971    0.1218   -3.2895 H   0  0  0  0  0  0  0  0  0  0  0  0
   -1.8794    0.7865   -2.3951 H   0  0  0  0  0  0  0  0  0  0  0  0
   -0.6046    2.2857   -3.2794 C   0  0  0  0  0  0  0  0  0  0  0  0
   -0.8527    3.0784   -2.5578 H   0  0  0  0  0  0  0  0  0  0  0  0
    0.4577    2.4034   -3.5387 H   0  0  0  0  0  0  0  0  0  0  0  0
   -1.4646    2.3750   -4.4785 N   0  3  0  0  0  0  0  0  0  0  0  0
   -2.4460    2.2846   -4.2078 H   0  0  0  0  0  0  0  0  0  0  0  0
   -1.3306    3.2762   -4.9418 H   0  0  0  0  0  0  0  0  0  0  0  0
   -1.2309    1.6262   -5.1328 H   0  0  0  0  0  0  0  0  0  0  0  0
   -1.1165    0.9902    1.4737 C   0  0  0  0  0  0  0  0  0  0  0  0
   -2.0660    1.6731    1.1011 O   0  0  0  0  0  0  0  0  0  0  0  0
   -0.2372    1.4940    2.4138 N   0  0  0  0  0  0  0  0  0  0  0  0
    0.4737    0.8618    2.7745 H   0  0  0  0  0  0  0  0  0  0  0  0
   -0.4516    2.7620    3.1038 C   0  0  0  0  0  0  0  0  0  0  0  0
   -1.3786    2.7300    3.6864 H   0  0  0  0  0  0  0  0  0  0  0  0
    0.3786    2.9665    3.7871 H   0  0  0  0  0  0  0  0  0  0  0  0
   -0.5160    3.5865    2.3860 H   0  0  0  0  0  0  0  0  0  0  0  0
  1  2  1  0  0  0  0
  2  3  1  0  0  0  0
  2  4  1  0  0  0  0
  2  5  1  0  0  0  0
  5  6  2  0  0  0  0
  5  7  1  0  0  0  0
  7  8  1  0  0  0  0
  7  9  1  0  0  0  0
  9 10  1  0  0  0  0
  9 11  1  0  0  0  0
  9 27  1  0  0  0  0
 11 12  1  0  0  0  0
 11 13  1  0  0  0  0
 11 14  1  0  0  0  0
 14 15  1  0  0  0  0
 14 16  1  0  0  0  0
 14 17  1  0  0  0  0
 17 18  1  0  0  0  0
 17 19  1  0  0  0  0
 17 20  1  0  0  0  0
 20 21  1  0  0  0  0
 20 22  1  0  0  0  0
 20 23  1  0  0  0  0
 23 24  1  0  0  0  0
 23 25  1  0  0  0  0
 23 26  1  0  0  0  0
 27 28  2  0  0  0  0
 27 29  1  0  0  0  0
 29 30  1  0  0  0  0
 29 31  1  0  0  0  0
 31 32  1  0  0  0  0
 31 33  1  0  0  0  0
 31 34  1  0  0  0  0
M  CHG  1  23   1
M  END
$$$$

  -OEChem-02102214153D

 34 33  0     1  0  0  0  0  0999 V2000
   -3.7045   -4.0277    1.8411 H   0  0  0  0  0  0  0  0  0  0  0  0
   -3.7569   -3.0162    1.4281 C   0  0  0  0  0  0  0  0  0  0  0  0
   -4.3442   -2.3915    2.1053 H   0  0  0  0  0  0  0  0  0  0  0  0
   -4.2550   -3.0584    0.4567 H   0  0  0  0  0  0  0  0  0  0  0  0
   -2.3606   -2.4451    1.2713 C   0  0  0  0  0  0  0  0  0  0  0  0
   -1.3844   -3.1302    1.5253 O   0  0  0  0  0  0  0  0  0  0  0  0
   -2.1864   -1.1474    0.8324 N   0  0  0  0  0  0  0  0  0  0  0  0
   -3.0238   -0.5717    0.7604 H   0  0  0  0  0  0  0  0  0  0  0  0
   -0.8906   -0.4481    0.8567 C   0  0  1  0  0  0  0  0  0  0  0  0
   -0.2082   -0.9505    1.5517 H   0  0  0  0  0  0  0  0  0  0  0  0
   -0.2794   -0.5396   -0.5727 C   0  0  0  0  0  0  0  0  0  0  0  0
    0.6787   -1.0586   -0.4616 H   0  0  0  0  0  0  0  0  0  0  0  0
   -0.8960   -1.1892   -1.2041 H   0  0  0  0  0  0  0  0  0  0  0  0
    0.0093    0.7877   -1.3156 C   0  0  0  0  0  0  0  0  0  0  0  0
    0.0934    1.6449   -0.6436 H   0  0  0  0  0  0  0  0  0  0  0  0
    0.9850    0.6956   -1.8058 H   0  0  0  0  0  0  0  0  0  0  0  0
   -1.0421    1.0352   -2.4024 C   0  0  0  0  0  0  0  0  0  0  0  0
   -0.9415    0.2890   -3.1984 H   0  0  0  0  0  0  0  0  0  0  0  0
   -2.0379    0.9284   -1.9570 H   0  0  0  0  0  0  0  0  0  0  0  0
   -0.8886    2.4446   -2.9653 C   0  0  0  0  0  0  0  0  0  0  0  0
   -0.8777    3.1629   -2.1318 H   0  0  0  0  0  0  0  0  0  0  0  0
    0.0787    2.5295   -3.4818 H   0  0  0  0  0  0  0  0  0  0  0  0
   -2.0182    2.7186   -3.8784 N   0  3  0  0  0  0  0  0  0  0  0  0
   -2.8990    2.6564   -3.3630 H   0  0  0  0  0  0  0  0  0  0  0  0
   -1.9317    3.6569   -4.2743 H   0  0  0  0  0  0  0  0  0  0  0  0
   -2.0285    2.0353   -4.6376 H   0  0  0  0  0  0  0  0  0  0  0  0
   -1.1109    0.9764    1.4103 C   0  0  0  0  0  0  0  0  0  0  0  0
   -2.0182    1.6668    0.9513 O   0  0  0  0  0  0  0  0  0  0  0  0
   -0.2567    1.5099    2.3566 N   0  0  0  0  0  0  0  0  0  0  0  0
    0.4264    0.8821    2.7751 H   0  0  0  0  0  0  0  0  0  0  0  0
   -0.4659    2.8162    2.9724 C   0  0  0  0  0  0  0  0  0  0  0  0
   -1.4258    2.8436    3.4994 H   0  0  0  0  0  0  0  0  0  0  0  0
    0.3298    3.0264    3.6943 H   0  0  0  0  0  0  0  0  0  0  0  0
   -0.4582    3.6058    2.2136 H   0  0  0  0  0  0  0  0  0  0  0  0
  1  2  1  0  0  0  0
  2  3  1  0  0  0  0
  2  4  1  0  0  0  0
  2  5  1  0  0  0  0
  5  6  2  0  0  0  0
  5  7  1  0  0  0  0
  7  8  1  0  0  0  0
  7  9  1  0  0  0  0
  9 10  1  0  0  0  0
  9 11  1  0  0  0  0
  9 27  1  0  0  0  0
 11 12  1  0  0  0  0
 11 13  1  0  0  0  0
 11 14  1  0  0  0  0
 14 15  1  0  0  0  0
 14 16  1  0  0  0  0
 14 17  1  0  0  0  0
 17 18  1  0  0  0  0
 17 19  1  0  0  0  0
 17 20  1  0  0  0  0
 20 21  1  0  0  0  0
 20 22  1  0  0  0  0
 20 23  1  0  0  0  0
 23 24  1  0  0  0  0
 23 25  1  0  0  0  0
 23 26  1  0  0  0  0
 27 28  2  0  0  0  0
 27 29  1  0  0  0  0
 29 30  1  0  0  0  0
 29 31  1  0  0  0  0
 31 32  1  0  0  0  0
 31 33  1  0  0  0  0
 31 34  1  0  0  0  0
M  CHG  1  23   1
M  END
$$$$

  -OEChem-02102214153D

 34 33  0     1  0  0  0  0  0999 V2000
   -3.6773   -4.1004    1.6555 H   0  0  0  0  0  0  0  0  0  0  0  0
   -3.7663   -3.0934    1.2373 C   0  0  0  0  0  0  0  0  0  0  0  0
   -4.4809   -2.5264    1.8387 H   0  0  0  0  0  0  0  0  0  0  0  0
   -4.1403   -3.1720    0.2138 H   0  0  0  0  0  0  0  0  0  0  0  0
   -2.4146   -2.4051    1.2472 C   0  0  0  0  0  0  0  0  0  0  0  0
   -1.4458   -2.9643    1.7316 O   0  0  0  0  0  0  0  0  0  0  0  0
   -2.2701   -1.1420    0.7039 N   0  0  0  0  0  0  0  0  0  0  0  0
   -3.1191   -0.6757    0.3932 H   0  0  0  0  0  0  0  0  0  0  0  0
   -1.0252   -0.3568    0.7773 C   0  0  1  0  0  0  0  0  0  0  0  0
   -0.4078   -0.7551    1.5907 H   0  0  0  0  0  0  0  0  0  0  0  0
   -0.2333   -0.5860   -0.5441 C   0  0  0  0  0  0  0  0  0  0  0  0
    0.7338   -1.0125   -0.2560 H   0  0  0  0  0  0  0  0  0  0  0  0
   -0.7263   -1.3492   -1.1573 H   0  0  0  0  0  0  0  0  0  0  0  0
    0.0618    0.6565   -1.4118 C   0  0  0  0  0  0  0  0  0  0  0  0
    0.2562    1.5396   -0.7970 H   0  0  0  0  0  0  0  0  0  0  0  0
    0.9823    0.4740   -1.9780 H   0  0  0  0  0  0  0  0  0  0  0  0
   -1.0763    0.8936   -2.4222 C   0  0  0  0  0  0  0  0  0  0  0  0
   -0.9101    0.2454   -3.2899 H   0  0  0  0  0  0  0  0  0  0  0  0
   -2.0432    0.6100   -1.9916 H   0  0  0  0  0  0  0  0  0  0  0  0
   -1.1259    2.3502   -2.8836 C   0  0  0  0  0  0  0  0  0  0  0  0
   -0.1002    2.7318   -2.9903 H   0  0  0  0  0  0  0  0  0  0  0  0
   -1.5933    2.3997   -3.8779 H   0  0  0  0  0  0  0  0  0  0  0  0
   -1.9065    3.1385   -1.9037 N   0  3  0  0  0  0  0  0  0  0  0  0
   -1.8741    2.6816   -0.9779 H   0  0  0  0  0  0  0  0  0  0  0  0
   -1.5317    4.0828   -1.8181 H   0  0  0  0  0  0  0  0  0  0  0  0
   -2.8840    3.1906   -2.1906 H   0  0  0  0  0  0  0  0  0  0  0  0
   -1.2967    1.1135    1.1657 C   0  0  0  0  0  0  0  0  0  0  0  0
   -2.1084    1.7868    0.5294 O   0  0  0  0  0  0  0  0  0  0  0  0
   -0.5149    1.7393    2.1175 N   0  0  0  0  0  0  0  0  0  0  0  0
    0.1047    1.1448    2.6667 H   0  0  0  0  0  0  0  0  0  0  0  0
   -0.7473    3.1013    2.5885 C   0  0  0  0  0  0  0  0  0  0  0  0
   -1.7608    3.2020    2.9918 H   0  0  0  0  0  0  0  0  0  0  0  0
   -0.0364    3.3519    3.3826 H   0  0  0  0  0  0  0  0  0  0  0  0
   -0.6171    3.8206    1.7737 H   0  0  0  0  0  0  0  0  0  0  0  0
  1  2  1  0  0  0  0
  2  3  1  0  0  0  0
  2  4  1  0  0  0  0
  2  5  1  0  0  0  0
  5  6  2  0  0  0  0
  5  7  1  0  0  0  0
  7  8  1  0  0  0  0
  7  9  1  0  0  0  0
  9 10  1  0  0  0  0
  9 11  1  0  0  0  0
  9 27  1  0  0  0  0
 11 12  1  0  0  0  0
 11 13  1  0  0  0  0
 11 14  1  0  0  0  0
 14 15  1  0  0  0  0
 14 16  1  0  0  0  0
 14 17  1  0  0  0  0
 17 18  1  0  0  0  0
 17 19  1  0  0  0  0
 17 20  1  0  0  0  0
 20 21  1  0  0  0  0
 20 22  1  0  0  0  0
 20 23  1  0  0  0  0
 23 24  1  0  0  0  0
 23 25  1  0  0  0  0
 23 26  1  0  0  0  0
 27 28  2  0  0  0  0
 27 29  1  0  0  0  0
 29 30  1  0  0  0  0
 29 31  1  0  0  0  0
 31 32  1  0  0  0  0
 31 33  1  0  0  0  0
 31 34  1  0  0  0  0
M  CHG  1  23   1
M  END
$$$$

  -OEChem-02102214153D

 34 33  0     1  0  0  0  0  0999 V2000
   -3.6073   -4.1392    1.7342 H   0  0  0  0  0  0  0  0  0  0  0  0
   -3.7327   -3.1391    1.3086 C   0  0  0  0  0  0  0  0  0  0  0  0
   -4.4359   -2.5797    1.9303 H   0  0  0  0  0  0  0  0  0  0  0  0
   -4.1429   -3.2364    0.3006 H   0  0  0  0  0  0  0  0  0  0  0  0
   -2.3967   -2.4230    1.2604 C   0  0  0  0  0  0  0  0  0  0  0  0
   -1.3892   -2.9772    1.6655 O   0  0  0  0  0  0  0  0  0  0  0  0
   -2.3137   -1.1375    0.7580 N   0  0  0  0  0  0  0  0  0  0  0  0
   -3.1915   -0.6859    0.5123 H   0  0  0  0  0  0  0  0  0  0  0  0
   -1.0918   -0.3152    0.7992 C   0  0  1  0  0  0  0  0  0  0  0  0
   -0.4663   -0.7237    1.6014 H   0  0  0  0  0  0  0  0  0  0  0  0
   -0.2755   -0.5337   -0.5081 C   0  0  0  0  0  0  0  0  0  0  0  0
    0.7035   -0.9270   -0.2130 H   0  0  0  0  0  0  0  0  0  0  0  0
   -0.7472   -1.3156   -1.1140 H   0  0  0  0  0  0  0  0  0  0  0  0
   -0.0200    0.6986   -1.3995 C   0  0  0  0  0  0  0  0  0  0  0  0
    0.3438    1.5294   -0.7864 H   0  0  0  0  0  0  0  0  0  0  0  0
    0.7750    0.4625   -2.1160 H   0  0  0  0  0  0  0  0  0  0  0  0
   -1.2869    1.1035   -2.1824 C   0  0  0  0  0  0  0  0  0  0  0  0
   -1.3294    0.4866   -3.0871 H   0  0  0  0  0  0  0  0  0  0  0  0
   -2.1975    0.8806   -1.6182 H   0  0  0  0  0  0  0  0  0  0  0  0
   -1.2625    2.5764   -2.5962 C   0  0  0  0  0  0  0  0  0  0  0  0
   -0.2194    2.9003   -2.7227 H   0  0  0  0  0  0  0  0  0  0  0  0
   -1.7530    2.6825   -3.5747 H   0  0  0  0  0  0  0  0  0  0  0  0
   -1.9681    3.3830   -1.5766 N   0  3  0  0  0  0  0  0  0  0  0  0
   -1.9579    2.8880   -0.6706 H   0  0  0  0  0  0  0  0  0  0  0  0
   -1.5224    4.2925   -1.4618 H   0  0  0  0  0  0  0  0  0  0  0  0
   -2.9427    3.5180   -1.8458 H   0  0  0  0  0  0  0  0  0  0  0  0
   -1.3196    1.1462    1.2462 C   0  0  0  0  0  0  0  0  0  0  0  0
   -2.1892    1.8446    0.7286 O   0  0  0  0  0  0  0  0  0  0  0  0
   -0.4686    1.7280    2.1667 N   0  0  0  0  0  0  0  0  0  0  0  0
    0.1868    1.1074    2.6404 H   0  0  0  0  0  0  0  0  0  0  0  0
   -0.6745    3.0576    2.7330 C   0  0  0  0  0  0  0  0  0  0  0  0
   -1.6501    3.1190    3.2274 H   0  0  0  0  0  0  0  0  0  0  0  0
    0.1003    3.2747    3.4756 H   0  0  0  0  0  0  0  0  0  0  0  0
   -0.6238    3.8237    1.9530 H   0  0  0  0  0  0  0  0  0  0  0  0
  1  2  1  0  0  0  0
  2  3  1  0  0  0  0
  2  4  1  0  0  0  0
  2  5  1  0  0  0  0
  5  6  2  0  0  0  0
  5  7  1  0  0  0  0
  7  8  1  0  0  0  0
  7  9  1  0  0  0  0
  9 10  1  0  0  0  0
  9 11  1  0  0  0  0
  9 27  1  0  0  0  0
 11 12  1  0  0  0  0
 11 13  1  0  0  0  0
 11 14  1  0  0  0  0
 14 15  1  0  0  0  0
 14 16  1  0  0  0  0
 14 17  1  0  0  0  0
 17 18  1  0  0  0  0
 17 19  1  0  0  0  0
 17 20  1  0  0  0  0
 20 21  1  0  0  0  0
 20 22  1  0  0  0  0
 20 23  1  0  0  0  0
 23 24  1  0  0  0  0
 23 25  1  0  0  0  0
 23 26  1  0  0  0  0
 27 28  2  0  0  0  0
 27 29  1  0  0  0  0
 29 30  1  0  0  0  0
 29 31  1  0  0  0  0
 31 32  1  0  0  0  0
 31 33  1  0  0  0  0
 31 34  1  0  0  0  0
M  CHG  1  23   1
M  END
$$$$

  -OEChem-02102214153D

 34 33  0     1  0  0  0  0  0999 V2000
   -3.6624   -4.0345    1.8066 H   0  0  0  0  0  0  0  0  0  0  0  0
   -3.7696   -3.0196    1.4126 C   0  0  0  0  0  0  0  0  0  0  0  0
   -4.3987   -2.4437    2.0955 H   0  0  0  0  0  0  0  0  0  0  0  0
   -4.2556   -3.0730    0.4356 H   0  0  0  0  0  0  0  0  0  0  0  0
   -2.4078   -2.3646    1.2817 C   0  0  0  0  0  0  0  0  0  0  0  0
   -1.4014   -2.9685    1.6109 O   0  0  0  0  0  0  0  0  0  0  0  0
   -2.3007   -1.0774    0.7890 N   0  0  0  0  0  0  0  0  0  0  0  0
   -3.1729   -0.5771    0.6358 H   0  0  0  0  0  0  0  0  0  0  0  0
   -1.0472   -0.3024    0.7831 C   0  0  1  0  0  0  0  0  0  0  0  0
   -0.4131   -0.7354    1.5655 H   0  0  0  0  0  0  0  0  0  0  0  0
   -0.2654   -0.5464   -0.5426 C   0  0  0  0  0  0  0  0  0  0  0  0
    0.6975   -0.9966   -0.2768 H   0  0  0  0  0  0  0  0  0  0  0  0
   -0.7994   -1.2986   -1.1339 H   0  0  0  0  0  0  0  0  0  0  0  0
    0.0310    0.6564   -1.4641 C   0  0  0  0  0  0  0  0  0  0  0  0
    0.6702    1.3555   -0.9145 H   0  0  0  0  0  0  0  0  0  0  0  0
    0.6121    0.3074   -2.3251 H   0  0  0  0  0  0  0  0  0  0  0  0
   -1.2347    1.3752   -1.9760 C   0  0  0  0  0  0  0  0  0  0  0  0
   -2.1158    0.9959   -1.4507 H   0  0  0  0  0  0  0  0  0  0  0  0
   -1.3840    1.1217   -3.0314 H   0  0  0  0  0  0  0  0  0  0  0  0
   -1.1246    2.8995   -1.8456 C   0  0  0  0  0  0  0  0  0  0  0  0
   -0.3104    3.1498   -1.1511 H   0  0  0  0  0  0  0  0  0  0  0  0
   -0.8637    3.3349   -2.8211 H   0  0  0  0  0  0  0  0  0  0  0  0
   -2.4054    3.4250   -1.3309 N   0  3  0  0  0  0  0  0  0  0  0  0
   -2.5973    2.9815   -0.4164 H   0  0  0  0  0  0  0  0  0  0  0  0
   -2.3559    4.4354   -1.2021 H   0  0  0  0  0  0  0  0  0  0  0  0
   -3.1668    3.1995   -1.9703 H   0  0  0  0  0  0  0  0  0  0  0  0
   -1.2231    1.1584    1.2591 C   0  0  0  0  0  0  0  0  0  0  0  0
   -2.2008    1.8253    0.9182 O   0  0  0  0  0  0  0  0  0  0  0  0
   -0.3236    1.7129    2.1500 N   0  0  0  0  0  0  0  0  0  0  0  0
    0.3928    1.0924    2.5247 H   0  0  0  0  0  0  0  0  0  0  0  0
   -0.5393    2.9885    2.8268 C   0  0  0  0  0  0  0  0  0  0  0  0
   -1.4504    2.9525    3.4340 H   0  0  0  0  0  0  0  0  0  0  0  0
    0.3046    3.2127    3.4875 H   0  0  0  0  0  0  0  0  0  0  0  0
   -0.6302    3.8028    2.1009 H   0  0  0  0  0  0  0  0  0  0  0  0
  1  2  1  0  0  0  0
  2  3  1  0  0  0  0
  2  4  1  0  0  0  0
  2  5  1  0  0  0  0
  5  6  2  0  0  0  0
  5  7  1  0  0  0  0
  7  8  1  0  0  0  0
  7  9  1  0  0  0  0
  9 10  1  0  0  0  0
  9 11  1  0  0  0  0
  9 27  1  0  0  0  0
 11 12  1  0  0  0  0
 11 13  1  0  0  0  0
 11 14  1  0  0  0  0
 14 15  1  0  0  0  0
 14 16  1  0  0  0  0
 14 17  1  0  0  0  0
 17 18  1  0  0  0  0
 17 19  1  0  0  0  0
 17 20  1  0  0  0  0
 20 21  1  0  0  0  0
 20 22  1  0  0  0  0
 20 23  1  0  0  0  0
 23 24  1  0  0  0  0
 23 25  1  0  0  0  0
 23 26  1  0  0  0  0
 27 28  2  0  0  0  0
 27 29  1  0  0  0  0
 29 30  1  0  0  0  0
 29 31  1  0  0  0  0
 31 32  1  0  0  0  0
 31 33  1  0  0  0  0
 31 34  1  0  0  0  0
M  CHG  1  23   1
M  END
$$$$

  -OEChem-02102214153D

 34 33  0     1  0  0  0  0  0999 V2000
   -3.6127   -4.1083    1.6853 H   0  0  0  0  0  0  0  0  0  0  0  0
   -3.7406   -3.0938    1.2962 C   0  0  0  0  0  0  0  0  0  0  0  0
   -4.4272   -2.5512    1.9504 H   0  0  0  0  0  0  0  0  0  0  0  0
   -4.1725   -3.1548    0.2945 H   0  0  0  0  0  0  0  0  0  0  0  0
   -2.4014   -2.3836    1.2428 C   0  0  0  0  0  0  0  0  0  0  0  0
   -1.3869   -2.9573    1.6010 O   0  0  0  0  0  0  0  0  0  0  0  0
   -2.3224   -1.0809    0.7866 N   0  0  0  0  0  0  0  0  0  0  0  0
   -3.2047   -0.6097    0.6002 H   0  0  0  0  0  0  0  0  0  0  0  0
   -1.0972   -0.2636    0.8364 C   0  0  1  0  0  0  0  0  0  0  0  0
   -0.4879   -0.6893    1.6420 H   0  0  0  0  0  0  0  0  0  0  0  0
   -0.2374   -0.4846   -0.4467 C   0  0  0  0  0  0  0  0  0  0  0  0
    0.7131   -0.9282   -0.1298 H   0  0  0  0  0  0  0  0  0  0  0  0
   -0.7382   -1.2501   -1.0500 H   0  0  0  0  0  0  0  0  0  0  0  0
    0.1066    0.6788   -1.4102 C   0  0  0  0  0  0  0  0  0  0  0  0
    0.9149    1.2640   -0.9583 H   0  0  0  0  0  0  0  0  0  0  0  0
    0.5143    0.2434   -2.3297 H   0  0  0  0  0  0  0  0  0  0  0  0
   -1.0551    1.6186   -1.7852 C   0  0  0  0  0  0  0  0  0  0  0  0
   -1.9938    1.2085   -1.4012 H   0  0  0  0  0  0  0  0  0  0  0  0
   -1.1566    1.6339   -2.8760 H   0  0  0  0  0  0  0  0  0  0  0  0
   -0.8240    3.0563   -1.3067 C   0  0  0  0  0  0  0  0  0  0  0  0
   -0.2059    3.0423   -0.3976 H   0  0  0  0  0  0  0  0  0  0  0  0
   -0.2675    3.6165   -2.0721 H   0  0  0  0  0  0  0  0  0  0  0  0
   -2.1363    3.6666   -1.0142 N   0  3  0  0  0  0  0  0  0  0  0  0
   -2.5633    3.1508   -0.2260 H   0  0  0  0  0  0  0  0  0  0  0  0
   -2.0290    4.6451   -0.7478 H   0  0  0  0  0  0  0  0  0  0  0  0
   -2.7512    3.5984   -1.8247 H   0  0  0  0  0  0  0  0  0  0  0  0
   -1.3356    1.1755    1.3427 C   0  0  0  0  0  0  0  0  0  0  0  0
   -2.3416    1.8075    1.0190 O   0  0  0  0  0  0  0  0  0  0  0  0
   -0.4790    1.7351    2.2722 N   0  0  0  0  0  0  0  0  0  0  0  0
    0.2475    1.1251    2.6454 H   0  0  0  0  0  0  0  0  0  0  0  0
   -0.7819    2.9563    3.0132 C   0  0  0  0  0  0  0  0  0  0  0  0
   -1.7148    2.8431    3.5764 H   0  0  0  0  0  0  0  0  0  0  0  0
    0.0221    3.1762    3.7233 H   0  0  0  0  0  0  0  0  0  0  0  0
   -0.8807    3.8086    2.3335 H   0  0  0  0  0  0  0  0  0  0  0  0
  1  2  1  0  0  0  0
  2  3  1  0  0  0  0
  2  4  1  0  0  0  0
  2  5  1  0  0  0  0
  5  6  2  0  0  0  0
  5  7  1  0  0  0  0
  7  8  1  0  0  0  0
  7  9  1  0  0  0  0
  9 10  1  0  0  0  0
  9 11  1  0  0  0  0
  9 27  1  0  0  0  0
 11 12  1  0  0  0  0
 11 13  1  0  0  0  0
 11 14  1  0  0  0  0
 14 15  1  0  0  0  0
 14 16  1  0  0  0  0
 14 17  1  0  0  0  0
 17 18  1  0  0  0  0
 17 19  1  0  0  0  0
 17 20  1  0  0  0  0
 20 21  1  0  0  0  0
 20 22  1  0  0  0  0
 20 23  1  0  0  0  0
 23 24  1  0  0  0  0
 23 25  1  0  0  0  0
 23 26  1  0  0  0  0
 27 28  2  0  0  0  0
 27 29  1  0  0  0  0
 29 30  1  0  0  0  0
 29 31  1  0  0  0  0
 31 32  1  0  0  0  0
 31 33  1  0  0  0  0
 31 34  1  0  0  0  0
M  CHG  1  23   1
M  END
$$$$

  -OEChem-02102214153D

 34 33  0     1  0  0  0  0  0999 V2000
   -3.4886   -4.1499    1.7648 H   0  0  0  0  0  0  0  0  0  0  0  0
   -3.6598   -3.1350    1.3939 C   0  0  0  0  0  0  0  0  0  0  0  0
   -4.3370   -2.6211    2.0804 H   0  0  0  0  0  0  0  0  0  0  0  0
   -4.1268   -3.1966    0.4081 H   0  0  0  0  0  0  0  0  0  0  0  0
   -2.3444   -2.3855    1.3010 C   0  0  0  0  0  0  0  0  0  0  0  0
   -1.3000   -2.9374    1.6035 O   0  0  0  0  0  0  0  0  0  0  0  0
   -2.3203   -1.0704    0.8752 N   0  0  0  0  0  0  0  0  0  0  0  0
   -3.2207   -0.6252    0.7101 H   0  0  0  0  0  0  0  0  0  0  0  0
   -1.1135   -0.2249    0.8652 C   0  0  1  0  0  0  0  0  0  0  0  0
   -0.4579   -0.6510    1.6331 H   0  0  0  0  0  0  0  0  0  0  0  0
   -0.3097   -0.4385   -0.4582 C   0  0  0  0  0  0  0  0  0  0  0  0
    0.6553   -0.8767   -0.1797 H   0  0  0  0  0  0  0  0  0  0  0  0
   -0.8342   -1.2198   -1.0198 H   0  0  0  0  0  0  0  0  0  0  0  0
   -0.0045    0.6836   -1.4903 C   0  0  0  0  0  0  0  0  0  0  0  0
    0.9745    1.1111   -1.2471 H   0  0  0  0  0  0  0  0  0  0  0  0
    0.1071    0.1997   -2.4677 H   0  0  0  0  0  0  0  0  0  0  0  0
   -1.0125    1.8351   -1.6412 C   0  0  0  0  0  0  0  0  0  0  0  0
   -1.9934    1.4969   -1.2945 H   0  0  0  0  0  0  0  0  0  0  0  0
   -1.1277    2.0550   -2.7082 H   0  0  0  0  0  0  0  0  0  0  0  0
   -0.5666    3.1276   -0.9512 C   0  0  0  0  0  0  0  0  0  0  0  0
    0.0108    2.8827   -0.0488 H   0  0  0  0  0  0  0  0  0  0  0  0
    0.0985    3.6938   -1.6193 H   0  0  0  0  0  0  0  0  0  0  0  0
   -1.7784    3.8926   -0.5941 N   0  3  0  0  0  0  0  0  0  0  0  0
   -2.3144    3.3450    0.1006 H   0  0  0  0  0  0  0  0  0  0  0  0
   -1.5310    4.7933   -0.1852 H   0  0  0  0  0  0  0  0  0  0  0  0
   -2.3630    4.0402   -1.4166 H   0  0  0  0  0  0  0  0  0  0  0  0
   -1.3430    1.1951    1.4212 C   0  0  0  0  0  0  0  0  0  0  0  0
   -2.3614    1.8349    1.1614 O   0  0  0  0  0  0  0  0  0  0  0  0
   -0.4314    1.7434    2.3052 N   0  0  0  0  0  0  0  0  0  0  0  0
    0.3043    1.1171    2.6315 H   0  0  0  0  0  0  0  0  0  0  0  0
   -0.7231    2.9132    3.1296 C   0  0  0  0  0  0  0  0  0  0  0  0
   -1.6100    2.7363    3.7482 H   0  0  0  0  0  0  0  0  0  0  0  0
    0.1206    3.1256    3.7944 H   0  0  0  0  0  0  0  0  0  0  0  0
   -0.8974    3.7956    2.5067 H   0  0  0  0  0  0  0  0  0  0  0  0
  1  2  1  0  0  0  0
  2  3  1  0  0  0  0
  2  4  1  0  0  0  0
  2  5  1  0  0  0  0
  5  6  2  0  0  0  0
  5  7  1  0  0  0  0
  7  8  1  0  0  0  0
  7  9  1  0  0  0  0
  9 10  1  0  0  0  0
  9 11  1  0  0  0  0
  9 27  1  0  0  0  0
 11 12  1  0  0  0  0
 11 13  1  0  0  0  0
 11 14  1  0  0  0  0
 14 15  1  0  0  0  0
 14 16  1  0  0  0  0
 14 17  1  0  0  0  0
 17 18  1  0  0  0  0
 17 19  1  0  0  0  0
 17 20  1  0  0  0  0
 20 21  1  0  0  0  0
 20 22  1  0  0  0  0
 20 23  1  0  0  0  0
 23 24  1  0  0  0  0
 23 25  1  0  0  0  0
 23 26  1  0  0  0  0
 27 28  2  0  0  0  0
 27 29  1  0  0  0  0
 29 30  1  0  0  0  0
 29 31  1  0  0  0  0
 31 32  1  0  0  0  0
 31 33  1  0  0  0  0
 31 34  1  0  0  0  0
M  CHG  1  23   1
M  END
$$$$

  -OEChem-02102214153D

 34 33  0     1  0  0  0  0  0999 V2000
   -3.5293   -4.2657    1.5698 H   0  0  0  0  0  0  0  0  0  0  0  0
   -3.6730   -3.2005    1.3665 C   0  0  0  0  0  0  0  0  0  0  0  0
   -4.2191   -2.7556    2.2018 H   0  0  0  0  0  0  0  0  0  0  0  0
   -4.2642   -3.0930    0.4540 H   0  0  0  0  0  0  0  0  0  0  0  0
   -2.3300   -2.5160    1.1986 C   0  0  0  0  0  0  0  0  0  0  0  0
   -1.3002   -3.1696    1.2134 O   0  0  0  0  0  0  0  0  0  0  0  0
   -2.2649   -1.1465    1.0301 N   0  0  0  0  0  0  0  0  0  0  0  0
   -3.1368   -0.6298    1.1332 H   0  0  0  0  0  0  0  0  0  0  0  0
   -1.0124   -0.3715    1.0548 C   0  0  1  0  0  0  0  0  0  0  0  0
   -0.2929   -0.9617    1.6337 H   0  0  0  0  0  0  0  0  0  0  0  0
   -0.4065   -0.3167   -0.3887 C   0  0  0  0  0  0  0  0  0  0  0  0
    0.5513   -0.8469   -0.3423 H   0  0  0  0  0  0  0  0  0  0  0  0
   -1.0494   -0.9357   -1.0246 H   0  0  0  0  0  0  0  0  0  0  0  0
   -0.1467    0.9882   -1.1984 C   0  0  0  0  0  0  0  0  0  0  0  0
    0.9358    1.1587   -1.2121 H   0  0  0  0  0  0  0  0  0  0  0  0
   -0.4478    0.7912   -2.2338 H   0  0  0  0  0  0  0  0  0  0  0  0
   -0.8077    2.2901   -0.7366 C   0  0  0  0  0  0  0  0  0  0  0  0
   -1.8712    2.0971   -0.5630 H   0  0  0  0  0  0  0  0  0  0  0  0
   -0.3409    2.6383    0.1894 H   0  0  0  0  0  0  0  0  0  0  0  0
   -0.6844    3.3875   -1.7866 C   0  0  0  0  0  0  0  0  0  0  0  0
    0.3767    3.6214   -1.9571 H   0  0  0  0  0  0  0  0  0  0  0  0
   -1.0983    3.0289   -2.7404 H   0  0  0  0  0  0  0  0  0  0  0  0
   -1.4290    4.5639   -1.2876 N   0  3  0  0  0  0  0  0  0  0  0  0
   -0.9981    4.9098   -0.4281 H   0  0  0  0  0  0  0  0  0  0  0  0
   -1.4285    5.3094   -1.9863 H   0  0  0  0  0  0  0  0  0  0  0  0
   -2.3951    4.2985   -1.0823 H   0  0  0  0  0  0  0  0  0  0  0  0
   -1.1545    0.9084    1.9047 C   0  0  0  0  0  0  0  0  0  0  0  0
   -2.1804    1.5807    1.8527 O   0  0  0  0  0  0  0  0  0  0  0  0
   -0.1648    1.2624    2.8041 N   0  0  0  0  0  0  0  0  0  0  0  0
    0.5917    0.5943    2.9373 H   0  0  0  0  0  0  0  0  0  0  0  0
   -0.3490    2.2946    3.8199 C   0  0  0  0  0  0  0  0  0  0  0  0
   -1.1609    2.0211    4.5028 H   0  0  0  0  0  0  0  0  0  0  0  0
    0.5674    2.4168    4.4061 H   0  0  0  0  0  0  0  0  0  0  0  0
   -0.5890    3.2565    3.3554 H   0  0  0  0  0  0  0  0  0  0  0  0
  1  2  1  0  0  0  0
  2  3  1  0  0  0  0
  2  4  1  0  0  0  0
  2  5  1  0  0  0  0
  5  6  2  0  0  0  0
  5  7  1  0  0  0  0
  7  8  1  0  0  0  0
  7  9  1  0  0  0  0
  9 10  1  0  0  0  0
  9 11  1  0  0  0  0
  9 27  1  0  0  0  0
 11 12  1  0  0  0  0
 11 13  1  0  0  0  0
 11 14  1  0  0  0  0
 14 15  1  0  0  0  0
 14 16  1  0  0  0  0
 14 17  1  0  0  0  0
 17 18  1  0  0  0  0
 17 19  1  0  0  0  0
 17 20  1  0  0  0  0
 20 21  1  0  0  0  0
 20 22  1  0  0  0  0
 20 23  1  0  0  0  0
 23 24  1  0  0  0  0
 23 25  1  0  0  0  0
 23 26  1  0  0  0  0
 27 28  2  0  0  0  0
 27 29  1  0  0  0  0
 29 30  1  0  0  0  0
 29 31  1  0  0  0  0
 31 32  1  0  0  0  0
 31 33  1  0  0  0  0
 31 34  1  0  0  0  0
M  CHG  1  23   1
M  END
$$$$

  -OEChem-02102214153D

 34 33  0     1  0  0  0  0  0999 V2000
   -4.0654   -3.6330    1.3667 H   0  0  0  0  0  0  0  0  0  0  0  0
   -4.0236   -2.5637    1.1385 C   0  0  0  0  0  0  0  0  0  0  0  0
   -4.5799   -2.0203    1.9060 H   0  0  0  0  0  0  0  0  0  0  0  0
   -4.4934   -2.3939    0.1668 H   0  0  0  0  0  0  0  0  0  0  0  0
   -2.5820   -2.0934    1.1075 C   0  0  0  0  0  0  0  0  0  0  0  0
   -1.6732   -2.8882    1.2766 O   0  0  0  0  0  0  0  0  0  0  0  0
   -2.2884   -0.7606    0.8843 N   0  0  0  0  0  0  0  0  0  0  0  0
   -3.0785   -0.1191    0.8778 H   0  0  0  0  0  0  0  0  0  0  0  0
   -0.9355   -0.1883    1.0126 C   0  0  1  0  0  0  0  0  0  0  0  0
   -0.3995   -0.8436    1.7094 H   0  0  0  0  0  0  0  0  0  0  0  0
   -0.1614   -0.3640   -0.3382 C   0  0  0  0  0  0  0  0  0  0  0  0
    0.6908   -1.0110   -0.1004 H   0  0  0  0  0  0  0  0  0  0  0  0
   -0.7975   -0.9649   -0.9977 H   0  0  0  0  0  0  0  0  0  0  0  0
    0.4193    0.7760   -1.2336 C   0  0  0  0  0  0  0  0  0  0  0  0
    1.4962    0.5847   -1.3074 H   0  0  0  0  0  0  0  0  0  0  0  0
    0.0207    0.6400   -2.2458 H   0  0  0  0  0  0  0  0  0  0  0  0
    0.2766    2.2584   -0.8617 C   0  0  0  0  0  0  0  0  0  0  0  0
    0.9942    2.8404   -1.4505 H   0  0  0  0  0  0  0  0  0  0  0  0
    0.5368    2.4247    0.1846 H   0  0  0  0  0  0  0  0  0  0  0  0
   -1.1327    2.7437   -1.2154 C   0  0  0  0  0  0  0  0  0  0  0  0
   -1.1743    2.9927   -2.2854 H   0  0  0  0  0  0  0  0  0  0  0  0
   -1.8447    1.9228   -1.0444 H   0  0  0  0  0  0  0  0  0  0  0  0
   -1.4897    3.8980   -0.3687 N   0  3  0  0  0  0  0  0  0  0  0  0
   -0.7247    4.5705   -0.3335 H   0  0  0  0  0  0  0  0  0  0  0  0
   -2.3321    4.3536   -0.7200 H   0  0  0  0  0  0  0  0  0  0  0  0
   -1.6784    3.5457    0.5843 H   0  0  0  0  0  0  0  0  0  0  0  0
   -0.9295    1.1485    1.7798 C   0  0  0  0  0  0  0  0  0  0  0  0
   -1.8004    1.9947    1.5827 O   0  0  0  0  0  0  0  0  0  0  0  0
    0.0190    1.3865    2.7566 N   0  0  0  0  0  0  0  0  0  0  0  0
    0.6408    0.6134    2.9901 H   0  0  0  0  0  0  0  0  0  0  0  0
   -0.0388    2.5140    3.6819 C   0  0  0  0  0  0  0  0  0  0  0  0
   -0.9660    2.4860    4.2648 H   0  0  0  0  0  0  0  0  0  0  0  0
    0.8054    2.4740    4.3781 H   0  0  0  0  0  0  0  0  0  0  0  0
    0.0103    3.4640    3.1403 H   0  0  0  0  0  0  0  0  0  0  0  0
  1  2  1  0  0  0  0
  2  3  1  0  0  0  0
  2  4  1  0  0  0  0
  2  5  1  0  0  0  0
  5  6  2  0  0  0  0
  5  7  1  0  0  0  0
  7  8  1  0  0  0  0
  7  9  1  0  0  0  0
  9 10  1  0  0  0  0
  9 11  1  0  0  0  0
  9 27  1  0  0  0  0
 11 12  1  0  0  0  0
 11 13  1  0  0  0  0
 11 14  1  0  0  0  0
 14 15  1  0  0  0  0
 14 16  1  0  0  0  0
 14 17  1  0  0  0  0
 17 18  1  0  0  0  0
 17 19  1  0  0  0  0
 17 20  1  0  0  0  0
 20 21  1  0  0  0  0
 20 22  1  0  0  0  0
 20 23  1  0  0  0  0
 23 24  1  0  0  0  0
 23 25  1  0  0  0  0
 23 26  1  0  0  0  0
 27 28  2  0  0  0  0
 27 29  1  0  0  0  0
 29 30  1  0  0  0  0
 29 31  1  0  0  0  0
 31 32  1  0  0  0  0
 31 33  1  0  0  0  0
 31 34  1  0  0  0  0
M  CHG  1  23   1
M  END
$$$$

  -OEChem-02102214153D

 34 33  0     1  0  0  0  0  0999 V2000
   -4.0878   -3.6648    1.2122 H   0  0  0  0  0  0  0  0  0  0  0  0
   -4.0169   -2.6130    0.9196 C   0  0  0  0  0  0  0  0  0  0  0  0
   -4.6706   -2.0249    1.5683 H   0  0  0  0  0  0  0  0  0  0  0  0
   -4.3542   -2.5134   -0.1150 H   0  0  0  0  0  0  0  0  0  0  0  0
   -2.5836   -2.1326    1.0477 C   0  0  0  0  0  0  0  0  0  0  0  0
   -1.7005   -2.9120    1.3630 O   0  0  0  0  0  0  0  0  0  0  0  0
   -2.2669   -0.8084    0.8065 N   0  0  0  0  0  0  0  0  0  0  0  0
   -3.0462   -0.1746    0.6410 H   0  0  0  0  0  0  0  0  0  0  0  0
   -0.9322   -0.2251    1.0348 C   0  0  1  0  0  0  0  0  0  0  0  0
   -0.4480   -0.8553    1.7900 H   0  0  0  0  0  0  0  0  0  0  0  0
   -0.0669   -0.4303   -0.2549 C   0  0  0  0  0  0  0  0  0  0  0  0
    0.7784   -1.0427    0.0793 H   0  0  0  0  0  0  0  0  0  0  0  0
   -0.6309   -1.0731   -0.9403 H   0  0  0  0  0  0  0  0  0  0  0  0
    0.5739    0.6874   -1.1350 C   0  0  0  0  0  0  0  0  0  0  0  0
    1.5875    0.3426   -1.3712 H   0  0  0  0  0  0  0  0  0  0  0  0
    0.0358    0.7005   -2.0898 H   0  0  0  0  0  0  0  0  0  0  0  0
    0.7061    2.1390   -0.6465 C   0  0  0  0  0  0  0  0  0  0  0  0
    1.5839    2.5923   -1.1203 H   0  0  0  0  0  0  0  0  0  0  0  0
    0.8898    2.1747    0.4279 H   0  0  0  0  0  0  0  0  0  0  0  0
   -0.5267    2.9420   -1.0798 C   0  0  0  0  0  0  0  0  0  0  0  0
   -0.3641    3.3347   -2.0939 H   0  0  0  0  0  0  0  0  0  0  0  0
   -1.3916    2.2639   -1.1297 H   0  0  0  0  0  0  0  0  0  0  0  0
   -0.8024    4.0214   -0.1135 N   0  3  0  0  0  0  0  0  0  0  0  0
    0.0581    4.4993    0.1495 H   0  0  0  0  0  0  0  0  0  0  0  0
   -1.4627    4.6926   -0.5064 H   0  0  0  0  0  0  0  0  0  0  0  0
   -1.2286    3.5943    0.7248 H   0  0  0  0  0  0  0  0  0  0  0  0
   -1.0042    1.1368    1.7515 C   0  0  0  0  0  0  0  0  0  0  0  0
   -1.8273    1.9895    1.4259 O   0  0  0  0  0  0  0  0  0  0  0  0
   -0.1492    1.4135    2.8030 N   0  0  0  0  0  0  0  0  0  0  0  0
    0.4258    0.6385    3.1320 H   0  0  0  0  0  0  0  0  0  0  0  0
   -0.3214    2.5505    3.7029 C   0  0  0  0  0  0  0  0  0  0  0  0
   -1.3029    2.5123    4.1882 H   0  0  0  0  0  0  0  0  0  0  0  0
    0.4469    2.5332    4.4829 H   0  0  0  0  0  0  0  0  0  0  0  0
   -0.2331    3.4953    3.1580 H   0  0  0  0  0  0  0  0  0  0  0  0
  1  2  1  0  0  0  0
  2  3  1  0  0  0  0
  2  4  1  0  0  0  0
  2  5  1  0  0  0  0
  5  6  2  0  0  0  0
  5  7  1  0  0  0  0
  7  8  1  0  0  0  0
  7  9  1  0  0  0  0
  9 10  1  0  0  0  0
  9 11  1  0  0  0  0
  9 27  1  0  0  0  0
 11 12  1  0  0  0  0
 11 13  1  0  0  0  0
 11 14  1  0  0  0  0
 14 15  1  0  0  0  0
 14 16  1  0  0  0  0
 14 17  1  0  0  0  0
 17 18  1  0  0  0  0
 17 19  1  0  0  0  0
 17 20  1  0  0  0  0
 20 21  1  0  0  0  0
 20 22  1  0  0  0  0
 20 23  1  0  0  0  0
 23 24  1  0  0  0  0
 23 25  1  0  0  0  0
 23 26  1  0  0  0  0
 27 28  2  0  0  0  0
 27 29  1  0  0  0  0
 29 30  1  0  0  0  0
 29 31  1  0  0  0  0
 31 32  1  0  0  0  0
 31 33  1  0  0  0  0
 31 34  1  0  0  0  0
M  CHG  1  23   1
M  END
$$$$

  -OEChem-02102214153D

 34 33  0     1  0  0  0  0  0999 V2000
   -3.5475   -4.3012    1.4466 H   0  0  0  0  0  0  0  0  0  0  0  0
   -3.6691   -3.2426    1.1997 C   0  0  0  0  0  0  0  0  0  0  0  0
   -4.3187   -2.7809    1.9471 H   0  0  0  0  0  0  0  0  0  0  0  0
   -4.1399   -3.1624    0.2170 H   0  0  0  0  0  0  0  0  0  0  0  0
   -2.3190   -2.5518    1.1851 C   0  0  0  0  0  0  0  0  0  0  0  0
   -1.2962   -3.1930    1.3626 O   0  0  0  0  0  0  0  0  0  0  0  0
   -2.2369   -1.1901    0.9717 N   0  0  0  0  0  0  0  0  0  0  0  0
   -3.1134   -0.6719    0.9194 H   0  0  0  0  0  0  0  0  0  0  0  0
   -0.9906   -0.4121    1.0673 C   0  0  1  0  0  0  0  0  0  0  0  0
   -0.2722   -0.9728    1.6756 H   0  0  0  0  0  0  0  0  0  0  0  0
   -0.3900   -0.3243   -0.3731 C   0  0  0  0  0  0  0  0  0  0  0  0
    0.5876   -0.8124   -0.2968 H   0  0  0  0  0  0  0  0  0  0  0  0
   -0.9824   -0.9604   -1.0408 H   0  0  0  0  0  0  0  0  0  0  0  0
   -0.1308    1.0028   -1.1398 C   0  0  0  0  0  0  0  0  0  0  0  0
    0.6726    0.8016   -1.8577 H   0  0  0  0  0  0  0  0  0  0  0  0
   -1.0332    1.2161   -1.7243 H   0  0  0  0  0  0  0  0  0  0  0  0
    0.2102    2.2839   -0.3639 C   0  0  0  0  0  0  0  0  0  0  0  0
   -0.6891    2.6836    0.1080 H   0  0  0  0  0  0  0  0  0  0  0  0
    0.9556    2.0652    0.4079 H   0  0  0  0  0  0  0  0  0  0  0  0
    0.7463    3.3463   -1.3199 C   0  0  0  0  0  0  0  0  0  0  0  0
    1.7007    3.0071   -1.7488 H   0  0  0  0  0  0  0  0  0  0  0  0
    0.0400    3.4686   -2.1544 H   0  0  0  0  0  0  0  0  0  0  0  0
    0.9058    4.6140   -0.5758 N   0  3  0  0  0  0  0  0  0  0  0  0
    1.5846    4.4944    0.1780 H   0  0  0  0  0  0  0  0  0  0  0  0
    1.2300    5.3533   -1.2029 H   0  0  0  0  0  0  0  0  0  0  0  0
    0.0082    4.8915   -0.1714 H   0  0  0  0  0  0  0  0  0  0  0  0
   -1.2591    0.8800    1.8611 C   0  0  0  0  0  0  0  0  0  0  0  0
   -2.2606    1.5498    1.6337 O   0  0  0  0  0  0  0  0  0  0  0  0
   -0.3779    1.2919    2.8461 N   0  0  0  0  0  0  0  0  0  0  0  0
    0.3163    0.6054    3.1349 H   0  0  0  0  0  0  0  0  0  0  0  0
   -0.7173    2.3471    3.7968 C   0  0  0  0  0  0  0  0  0  0  0  0
   -1.5816    2.0534    4.4027 H   0  0  0  0  0  0  0  0  0  0  0  0
    0.1258    2.5385    4.4683 H   0  0  0  0  0  0  0  0  0  0  0  0
   -0.9582    3.2781    3.2735 H   0  0  0  0  0  0  0  0  0  0  0  0
  1  2  1  0  0  0  0
  2  3  1  0  0  0  0
  2  4  1  0  0  0  0
  2  5  1  0  0  0  0
  5  6  2  0  0  0  0
  5  7  1  0  0  0  0
  7  8  1  0  0  0  0
  7  9  1  0  0  0  0
  9 10  1  0  0  0  0
  9 11  1  0  0  0  0
  9 27  1  0  0  0  0
 11 12  1  0  0  0  0
 11 13  1  0  0  0  0
 11 14  1  0  0  0  0
 14 15  1  0  0  0  0
 14 16  1  0  0  0  0
 14 17  1  0  0  0  0
 17 18  1  0  0  0  0
 17 19  1  0  0  0  0
 17 20  1  0  0  0  0
 20 21  1  0  0  0  0
 20 22  1  0  0  0  0
 20 23  1  0  0  0  0
 23 24  1  0  0  0  0
 23 25  1  0  0  0  0
 23 26  1  0  0  0  0
 27 28  2  0  0  0  0
 27 29  1  0  0  0  0
 29 30  1  0  0  0  0
 29 31  1  0  0  0  0
 31 32  1  0  0  0  0
 31 33  1  0  0  0  0
 31 34  1  0  0  0  0
M  CHG  1  23   1
M  END
$$$$

  -OEChem-02102214153D

 34 33  0     1  0  0  0  0  0999 V2000
   -3.5934   -4.2585    1.4572 H   0  0  0  0  0  0  0  0  0  0  0  0
   -3.6958   -3.2000    1.2009 C   0  0  0  0  0  0  0  0  0  0  0  0
   -4.3671   -2.7279    1.9223 H   0  0  0  0  0  0  0  0  0  0  0  0
   -4.1309   -3.1212    0.2017 H   0  0  0  0  0  0  0  0  0  0  0  0
   -2.3391   -2.5230    1.2301 C   0  0  0  0  0  0  0  0  0  0  0  0
   -1.3332   -3.1694    1.4735 O   0  0  0  0  0  0  0  0  0  0  0  0
   -2.2299   -1.1708    0.9728 N   0  0  0  0  0  0  0  0  0  0  0  0
   -3.0945   -0.6444    0.8516 H   0  0  0  0  0  0  0  0  0  0  0  0
   -0.9718   -0.4115    1.0597 C   0  0  1  0  0  0  0  0  0  0  0  0
   -0.2542   -0.9648    1.6751 H   0  0  0  0  0  0  0  0  0  0  0  0
   -0.3927   -0.3409   -0.3879 C   0  0  0  0  0  0  0  0  0  0  0  0
    0.5755   -0.8508   -0.3416 H   0  0  0  0  0  0  0  0  0  0  0  0
   -1.0172   -0.9501   -1.0513 H   0  0  0  0  0  0  0  0  0  0  0  0
   -0.1403    0.9997   -1.1241 C   0  0  0  0  0  0  0  0  0  0  0  0
    0.4511    0.7623   -2.0155 H   0  0  0  0  0  0  0  0  0  0  0  0
   -1.1104    1.3736   -1.4716 H   0  0  0  0  0  0  0  0  0  0  0  0
    0.5503    2.1411   -0.3574 C   0  0  0  0  0  0  0  0  0  0  0  0
   -0.1631    2.6493    0.2938 H   0  0  0  0  0  0  0  0  0  0  0  0
    1.3639    1.7385    0.2553 H   0  0  0  0  0  0  0  0  0  0  0  0
    1.0973    3.1657   -1.3487 C   0  0  0  0  0  0  0  0  0  0  0  0
    1.8859    2.7000   -1.9579 H   0  0  0  0  0  0  0  0  0  0  0  0
    0.2917    3.4665   -2.0348 H   0  0  0  0  0  0  0  0  0  0  0  0
    1.6120    4.3313   -0.5987 N   0  3  0  0  0  0  0  0  0  0  0  0
    2.3586    4.0385    0.0338 H   0  0  0  0  0  0  0  0  0  0  0  0
    1.9791    5.0325   -1.2456 H   0  0  0  0  0  0  0  0  0  0  0  0
    0.8570    4.7493   -0.0501 H   0  0  0  0  0  0  0  0  0  0  0  0
   -1.2321    0.9090    1.8065 C   0  0  0  0  0  0  0  0  0  0  0  0
   -2.1740    1.6245    1.4858 O   0  0  0  0  0  0  0  0  0  0  0  0
   -0.3591    1.3386    2.7914 N   0  0  0  0  0  0  0  0  0  0  0  0
    0.2897    0.6377    3.1437 H   0  0  0  0  0  0  0  0  0  0  0  0
   -0.6750    2.4643    3.6660 C   0  0  0  0  0  0  0  0  0  0  0  0
   -1.5828    2.2576    4.2432 H   0  0  0  0  0  0  0  0  0  0  0  0
    0.1464    2.6427    4.3671 H   0  0  0  0  0  0  0  0  0  0  0  0
   -0.8327    3.3769    3.0821 H   0  0  0  0  0  0  0  0  0  0  0  0
  1  2  1  0  0  0  0
  2  3  1  0  0  0  0
  2  4  1  0  0  0  0
  2  5  1  0  0  0  0
  5  6  2  0  0  0  0
  5  7  1  0  0  0  0
  7  8  1  0  0  0  0
  7  9  1  0  0  0  0
  9 10  1  0  0  0  0
  9 11  1  0  0  0  0
  9 27  1  0  0  0  0
 11 12  1  0  0  0  0
 11 13  1  0  0  0  0
 11 14  1  0  0  0  0
 14 15  1  0  0  0  0
 14 16  1  0  0  0  0
 14 17  1  0  0  0  0
 17 18  1  0  0  0  0
 17 19  1  0  0  0  0
 17 20  1  0  0  0  0
 20 21  1  0  0  0  0
 20 22  1  0  0  0  0
 20 23  1  0  0  0  0
 23 24  1  0  0  0  0
 23 25  1  0  0  0  0
 23 26  1  0  0  0  0
 27 28  2  0  0  0  0
 27 29  1  0  0  0  0
 29 30  1  0  0  0  0
 29 31  1  0  0  0  0
 31 32  1  0  0  0  0
 31 33  1  0  0  0  0
 31 34  1  0  0  0  0
M  CHG  1  23   1
M  END
$$$$

  -OEChem-02102214153D

 34 33  0     1  0  0  0  0  0999 V2000
   -3.8434   -3.9104    1.6337 H   0  0  0  0  0  0  0  0  0  0  0  0
   -3.8274   -2.8885    1.2440 C   0  0  0  0  0  0  0  0  0  0  0  0
   -4.5185   -2.2783    1.8304 H   0  0  0  0  0  0  0  0  0  0  0  0
   -4.1594   -2.9053    0.2032 H   0  0  0  0  0  0  0  0  0  0  0  0
   -2.4246   -2.3187    1.3345 C   0  0  0  0  0  0  0  0  0  0  0  0
   -1.5257   -2.9711    1.8391 O   0  0  0  0  0  0  0  0  0  0  0  0
   -2.1541   -1.0526    0.8538 N   0  0  0  0  0  0  0  0  0  0  0  0
   -2.9377   -0.5113    0.4918 H   0  0  0  0  0  0  0  0  0  0  0  0
   -0.8404   -0.3946    0.9472 C   0  0  1  0  0  0  0  0  0  0  0  0
   -0.2348   -0.8852    1.7171 H   0  0  0  0  0  0  0  0  0  0  0  0
   -0.1406   -0.6318   -0.4285 C   0  0  0  0  0  0  0  0  0  0  0  0
    0.7649   -1.2152   -0.2309 H   0  0  0  0  0  0  0  0  0  0  0  0
   -0.7773   -1.2682   -1.0540 H   0  0  0  0  0  0  0  0  0  0  0  0
    0.2708    0.5793   -1.2929 C   0  0  0  0  0  0  0  0  0  0  0  0
    0.7068    0.1999   -2.2240 H   0  0  0  0  0  0  0  0  0  0  0  0
   -0.6466    1.1100   -1.5726 H   0  0  0  0  0  0  0  0  0  0  0  0
    1.2726    1.5610   -0.6560 C   0  0  0  0  0  0  0  0  0  0  0  0
    1.4619    1.3010    0.3880 H   0  0  0  0  0  0  0  0  0  0  0  0
    2.2300    1.4728   -1.1810 H   0  0  0  0  0  0  0  0  0  0  0  0
    0.7535    2.9961   -0.7729 C   0  0  0  0  0  0  0  0  0  0  0  0
    0.6067    3.2421   -1.8347 H   0  0  0  0  0  0  0  0  0  0  0  0
   -0.2327    3.0664   -0.2904 H   0  0  0  0  0  0  0  0  0  0  0  0
    1.7161    3.9190   -0.1374 N   0  3  0  0  0  0  0  0  0  0  0  0
    2.6237    3.8521   -0.6010 H   0  0  0  0  0  0  0  0  0  0  0  0
    1.3747    4.8797   -0.2087 H   0  0  0  0  0  0  0  0  0  0  0  0
    1.8246    3.6769    0.8484 H   0  0  0  0  0  0  0  0  0  0  0  0
   -1.0238    1.0664    1.4118 C   0  0  0  0  0  0  0  0  0  0  0  0
   -1.7911    1.8187    0.8230 O   0  0  0  0  0  0  0  0  0  0  0  0
   -0.2069    1.5982    2.3969 N   0  0  0  0  0  0  0  0  0  0  0  0
    0.2926    0.9076    2.9558 H   0  0  0  0  0  0  0  0  0  0  0  0
   -0.5307    2.8648    3.0499 C   0  0  0  0  0  0  0  0  0  0  0  0
   -1.5062    2.8005    3.5452 H   0  0  0  0  0  0  0  0  0  0  0  0
    0.2234    3.1055    3.8061 H   0  0  0  0  0  0  0  0  0  0  0  0
   -0.5634    3.6831    2.3235 H   0  0  0  0  0  0  0  0  0  0  0  0
  1  2  1  0  0  0  0
  2  3  1  0  0  0  0
  2  4  1  0  0  0  0
  2  5  1  0  0  0  0
  5  6  2  0  0  0  0
  5  7  1  0  0  0  0
  7  8  1  0  0  0  0
  7  9  1  0  0  0  0
  9 10  1  0  0  0  0
  9 11  1  0  0  0  0
  9 27  1  0  0  0  0
 11 12  1  0  0  0  0
 11 13  1  0  0  0  0
 11 14  1  0  0  0  0
 14 15  1  0  0  0  0
 14 16  1  0  0  0  0
 14 17  1  0  0  0  0
 17 18  1  0  0  0  0
 17 19  1  0  0  0  0
 17 20  1  0  0  0  0
 20 21  1  0  0  0  0
 20 22  1  0  0  0  0
 20 23  1  0  0  0  0
 23 24  1  0  0  0  0
 23 25  1  0  0  0  0
 23 26  1  0  0  0  0
 27 28  2  0  0  0  0
 27 29  1  0  0  0  0
 29 30  1  0  0  0  0
 29 31  1  0  0  0  0
 31 32  1  0  0  0  0
 31 33  1  0  0  0  0
 31 34  1  0  0  0  0
M  CHG  1  23   1
M  END
$$$$

  -OEChem-02102214153D

 34 33  0     1  0  0  0  0  0999 V2000
   -3.7550   -4.0401    1.6654 H   0  0  0  0  0  0  0  0  0  0  0  0
   -3.7786   -3.0189    1.2746 C   0  0  0  0  0  0  0  0  0  0  0  0
   -4.4548   -2.4222    1.8918 H   0  0  0  0  0  0  0  0  0  0  0  0
   -4.1566   -3.0433    0.2498 H   0  0  0  0  0  0  0  0  0  0  0  0
   -2.3862   -2.4190    1.2988 C   0  0  0  0  0  0  0  0  0  0  0  0
   -1.4368   -3.0758    1.6943 O   0  0  0  0  0  0  0  0  0  0  0  0
   -2.1849   -1.1195    0.8785 N   0  0  0  0  0  0  0  0  0  0  0  0
   -3.0095   -0.5765    0.6255 H   0  0  0  0  0  0  0  0  0  0  0  0
   -0.8952   -0.4154    0.9529 C   0  0  1  0  0  0  0  0  0  0  0  0
   -0.2461   -0.9235    1.6742 H   0  0  0  0  0  0  0  0  0  0  0  0
   -0.2285   -0.5503   -0.4519 C   0  0  0  0  0  0  0  0  0  0  0  0
    0.7005   -1.1175   -0.3317 H   0  0  0  0  0  0  0  0  0  0  0  0
   -0.8738   -1.1603   -1.0944 H   0  0  0  0  0  0  0  0  0  0  0  0
    0.0876    0.7431   -1.2288 C   0  0  0  0  0  0  0  0  0  0  0  0
    0.2842    0.4733   -2.2726 H   0  0  0  0  0  0  0  0  0  0  0  0
   -0.8025    1.3809   -1.2363 H   0  0  0  0  0  0  0  0  0  0  0  0
    1.3041    1.5177   -0.7010 C   0  0  0  0  0  0  0  0  0  0  0  0
    1.2845    1.5802    0.3879 H   0  0  0  0  0  0  0  0  0  0  0  0
    2.2209    0.9894   -0.9846 H   0  0  0  0  0  0  0  0  0  0  0  0
    1.2888    2.9246   -1.2942 C   0  0  0  0  0  0  0  0  0  0  0  0
    1.3308    2.8567   -2.3912 H   0  0  0  0  0  0  0  0  0  0  0  0
    0.3346    3.4095   -1.0369 H   0  0  0  0  0  0  0  0  0  0  0  0
    2.4335    3.6927   -0.7609 N   0  3  0  0  0  0  0  0  0  0  0  0
    3.3106    3.2359   -1.0172 H   0  0  0  0  0  0  0  0  0  0  0  0
    2.4280    4.6408   -1.1435 H   0  0  0  0  0  0  0  0  0  0  0  0
    2.3704    3.7460    0.2572 H   0  0  0  0  0  0  0  0  0  0  0  0
   -1.0968    1.0142    1.5040 C   0  0  0  0  0  0  0  0  0  0  0  0
   -1.9382    1.7580    1.0156 O   0  0  0  0  0  0  0  0  0  0  0  0
   -0.2477    1.5148    2.4771 N   0  0  0  0  0  0  0  0  0  0  0  0
    0.3006    0.8198    2.9801 H   0  0  0  0  0  0  0  0  0  0  0  0
   -0.5196    2.7772    3.1595 C   0  0  0  0  0  0  0  0  0  0  0  0
   -1.4737    2.7244    3.6954 H   0  0  0  0  0  0  0  0  0  0  0  0
    0.2711    2.9953    3.8842 H   0  0  0  0  0  0  0  0  0  0  0  0
   -0.5674    3.6040    2.4431 H   0  0  0  0  0  0  0  0  0  0  0  0
  1  2  1  0  0  0  0
  2  3  1  0  0  0  0
  2  4  1  0  0  0  0
  2  5  1  0  0  0  0
  5  6  2  0  0  0  0
  5  7  1  0  0  0  0
  7  8  1  0  0  0  0
  7  9  1  0  0  0  0
  9 10  1  0  0  0  0
  9 11  1  0  0  0  0
  9 27  1  0  0  0  0
 11 12  1  0  0  0  0
 11 13  1  0  0  0  0
 11 14  1  0  0  0  0
 14 15  1  0  0  0  0
 14 16  1  0  0  0  0
 14 17  1  0  0  0  0
 17 18  1  0  0  0  0
 17 19  1  0  0  0  0
 17 20  1  0  0  0  0
 20 21  1  0  0  0  0
 20 22  1  0  0  0  0
 20 23  1  0  0  0  0
 23 24  1  0  0  0  0
 23 25  1  0  0  0  0
 23 26  1  0  0  0  0
 27 28  2  0  0  0  0
 27 29  1  0  0  0  0
 29 30  1  0  0  0  0
 29 31  1  0  0  0  0
 31 32  1  0  0  0  0
 31 33  1  0  0  0  0
 31 34  1  0  0  0  0
M  CHG  1  23   1
M  END
$$$$

  -OEChem-02102214153D

 34 33  0     1  0  0  0  0  0999 V2000
   -3.6764   -4.0940    1.6973 H   0  0  0  0  0  0  0  0  0  0  0  0
   -3.7420   -3.0685    1.3227 C   0  0  0  0  0  0  0  0  0  0  0  0
   -4.3907   -2.4931    1.9877 H   0  0  0  0  0  0  0  0  0  0  0  0
   -4.1810   -3.0870    0.3223 H   0  0  0  0  0  0  0  0  0  0  0  0
   -2.3617   -2.4420    1.2726 C   0  0  0  0  0  0  0  0  0  0  0  0
   -1.3787   -3.0892    1.5960 O   0  0  0  0  0  0  0  0  0  0  0  0
   -2.2075   -1.1329    0.8618 N   0  0  0  0  0  0  0  0  0  0  0  0
   -3.0562   -0.5982    0.6793 H   0  0  0  0  0  0  0  0  0  0  0  0
   -0.9345   -0.3962    0.9092 C   0  0  1  0  0  0  0  0  0  0  0  0
   -0.2727   -0.8970    1.6241 H   0  0  0  0  0  0  0  0  0  0  0  0
   -0.2493   -0.5037   -0.4843 C   0  0  0  0  0  0  0  0  0  0  0  0
    0.6887   -1.0571   -0.3697 H   0  0  0  0  0  0  0  0  0  0  0  0
   -0.8848   -1.1178   -1.1325 H   0  0  0  0  0  0  0  0  0  0  0  0
    0.0236    0.8139   -1.2394 C   0  0  0  0  0  0  0  0  0  0  0  0
    0.0112    0.5878   -2.3115 H   0  0  0  0  0  0  0  0  0  0  0  0
   -0.7767    1.5408   -1.0744 H   0  0  0  0  0  0  0  0  0  0  0  0
    1.3964    1.4080   -0.9041 C   0  0  0  0  0  0  0  0  0  0  0  0
    1.4833    1.5505    0.1777 H   0  0  0  0  0  0  0  0  0  0  0  0
    2.1839    0.7152   -1.2207 H   0  0  0  0  0  0  0  0  0  0  0  0
    1.5498    2.7501   -1.6162 C   0  0  0  0  0  0  0  0  0  0  0  0
    1.4405    2.5988   -2.7002 H   0  0  0  0  0  0  0  0  0  0  0  0
    0.7350    3.4187   -1.2998 H   0  0  0  0  0  0  0  0  0  0  0  0
    2.8700    3.3308   -1.2902 N   0  3  0  0  0  0  0  0  0  0  0  0
    3.6141    2.7055   -1.6049 H   0  0  0  0  0  0  0  0  0  0  0  0
    2.9789    4.2357   -1.7537 H   0  0  0  0  0  0  0  0  0  0  0  0
    2.9523    3.4640   -0.2808 H   0  0  0  0  0  0  0  0  0  0  0  0
   -1.1263    1.0265    1.4782 C   0  0  0  0  0  0  0  0  0  0  0  0
   -2.0434    1.7340    1.0816 O   0  0  0  0  0  0  0  0  0  0  0  0
   -0.2470    1.5269    2.4230 N   0  0  0  0  0  0  0  0  0  0  0  0
    0.3578    0.8432    2.8729 H   0  0  0  0  0  0  0  0  0  0  0  0
   -0.5121    2.7713    3.1407 C   0  0  0  0  0  0  0  0  0  0  0  0
   -1.4307    2.6847    3.7315 H   0  0  0  0  0  0  0  0  0  0  0  0
    0.3143    3.0018    3.8201 H   0  0  0  0  0  0  0  0  0  0  0  0
   -0.6246    3.6068    2.4415 H   0  0  0  0  0  0  0  0  0  0  0  0
  1  2  1  0  0  0  0
  2  3  1  0  0  0  0
  2  4  1  0  0  0  0
  2  5  1  0  0  0  0
  5  6  2  0  0  0  0
  5  7  1  0  0  0  0
  7  8  1  0  0  0  0
  7  9  1  0  0  0  0
  9 10  1  0  0  0  0
  9 11  1  0  0  0  0
  9 27  1  0  0  0  0
 11 12  1  0  0  0  0
 11 13  1  0  0  0  0
 11 14  1  0  0  0  0
 14 15  1  0  0  0  0
 14 16  1  0  0  0  0
 14 17  1  0  0  0  0
 17 18  1  0  0  0  0
 17 19  1  0  0  0  0
 17 20  1  0  0  0  0
 20 21  1  0  0  0  0
 20 22  1  0  0  0  0
 20 23  1  0  0  0  0
 23 24  1  0  0  0  0
 23 25  1  0  0  0  0
 23 26  1  0  0  0  0
 27 28  2  0  0  0  0
 27 29  1  0  0  0  0
 29 30  1  0  0  0  0
 29 31  1  0  0  0  0
 31 32  1  0  0  0  0
 31 33  1  0  0  0  0
 31 34  1  0  0  0  0
M  CHG  1  23   1
M  END
$$$$

  -OEChem-02102214153D

 34 33  0     1  0  0  0  0  0999 V2000
   -3.6306   -4.1108    1.6984 H   0  0  0  0  0  0  0  0  0  0  0  0
   -3.7142   -3.0826    1.3347 C   0  0  0  0  0  0  0  0  0  0  0  0
   -4.3466   -2.5176    2.0239 H   0  0  0  0  0  0  0  0  0  0  0  0
   -4.1830   -3.0955    0.3478 H   0  0  0  0  0  0  0  0  0  0  0  0
   -2.3403   -2.4459    1.2490 C   0  0  0  0  0  0  0  0  0  0  0  0
   -1.3429   -3.0915    1.5288 O   0  0  0  0  0  0  0  0  0  0  0  0
   -2.2080   -1.1291    0.8564 N   0  0  0  0  0  0  0  0  0  0  0  0
   -3.0660   -0.5951    0.7210 H   0  0  0  0  0  0  0  0  0  0  0  0
   -0.9436   -0.3784    0.9001 C   0  0  1  0  0  0  0  0  0  0  0  0
   -0.2715   -0.8795    1.6053 H   0  0  0  0  0  0  0  0  0  0  0  0
   -0.2614   -0.4620   -0.4965 C   0  0  0  0  0  0  0  0  0  0  0  0
    0.6796   -1.0110   -0.3832 H   0  0  0  0  0  0  0  0  0  0  0  0
   -0.8901   -1.0820   -1.1458 H   0  0  0  0  0  0  0  0  0  0  0  0
    0.0006    0.8617   -1.2540 C   0  0  0  0  0  0  0  0  0  0  0  0
   -0.2741    0.6995   -2.3024 H   0  0  0  0  0  0  0  0  0  0  0  0
   -0.6330    1.6791   -0.9032 H   0  0  0  0  0  0  0  0  0  0  0  0
    1.4795    1.2623   -1.2112 C   0  0  0  0  0  0  0  0  0  0  0  0
    1.7920    1.3837   -0.1682 H   0  0  0  0  0  0  0  0  0  0  0  0
    2.0881    0.4701   -1.6616 H   0  0  0  0  0  0  0  0  0  0  0  0
    1.6757    2.5727   -1.9708 C   0  0  0  0  0  0  0  0  0  0  0  0
    1.3243    2.4455   -3.0054 H   0  0  0  0  0  0  0  0  0  0  0  0
    1.0499    3.3526   -1.5115 H   0  0  0  0  0  0  0  0  0  0  0  0
    3.1059    2.9479   -1.9370 N   0  3  0  0  0  0  0  0  0  0  0  0
    3.6700    2.2131   -2.3687 H   0  0  0  0  0  0  0  0  0  0  0  0
    3.2516    3.8212   -2.4485 H   0  0  0  0  0  0  0  0  0  0  0  0
    3.4106    3.0754   -0.9703 H   0  0  0  0  0  0  0  0  0  0  0  0
   -1.1520    1.0310    1.4936 C   0  0  0  0  0  0  0  0  0  0  0  0
   -2.1024    1.7142    1.1339 O   0  0  0  0  0  0  0  0  0  0  0  0
   -0.2727    1.5332    2.4366 N   0  0  0  0  0  0  0  0  0  0  0  0
    0.3661    0.8632    2.8581 H   0  0  0  0  0  0  0  0  0  0  0  0
   -0.5443    2.7671    3.1688 C   0  0  0  0  0  0  0  0  0  0  0  0
   -1.4547    2.6636    3.7694 H   0  0  0  0  0  0  0  0  0  0  0  0
    0.2882    3.0022    3.8395 H   0  0  0  0  0  0  0  0  0  0  0  0
   -0.6759    3.6064    2.4776 H   0  0  0  0  0  0  0  0  0  0  0  0
  1  2  1  0  0  0  0
  2  3  1  0  0  0  0
  2  4  1  0  0  0  0
  2  5  1  0  0  0  0
  5  6  2  0  0  0  0
  5  7  1  0  0  0  0
  7  8  1  0  0  0  0
  7  9  1  0  0  0  0
  9 10  1  0  0  0  0
  9 11  1  0  0  0  0
  9 27  1  0  0  0  0
 11 12  1  0  0  0  0
 11 13  1  0  0  0  0
 11 14  1  0  0  0  0
 14 15  1  0  0  0  0
 14 16  1  0  0  0  0
 14 17  1  0  0  0  0
 17 18  1  0  0  0  0
 17 19  1  0  0  0  0
 17 20  1  0  0  0  0
 20 21  1  0  0  0  0
 20 22  1  0  0  0  0
 20 23  1  0  0  0  0
 23 24  1  0  0  0  0
 23 25  1  0  0  0  0
 23 26  1  0  0  0  0
 27 28  2  0  0  0  0
 27 29  1  0  0  0  0
 29 30  1  0  0  0  0
 29 31  1  0  0  0  0
 31 32  1  0  0  0  0
 31 33  1  0  0  0  0
 31 34  1  0  0  0  0
M  CHG  1  23   1
M  END
$$$$

  -OEChem-02102214153D

 34 33  0     1  0  0  0  0  0999 V2000
   -3.6069   -4.1106    1.6891 H   0  0  0  0  0  0  0  0  0  0  0  0
   -3.6934   -3.0819    1.3280 C   0  0  0  0  0  0  0  0  0  0  0  0
   -4.3219   -2.5183    2.0218 H   0  0  0  0  0  0  0  0  0  0  0  0
   -4.1675   -3.0930    0.3437 H   0  0  0  0  0  0  0  0  0  0  0  0
   -2.3204   -2.4444    1.2359 C   0  0  0  0  0  0  0  0  0  0  0  0
   -1.3197   -3.0930    1.4966 O   0  0  0  0  0  0  0  0  0  0  0  0
   -2.1927   -1.1231    0.8571 N   0  0  0  0  0  0  0  0  0  0  0  0
   -3.0524   -0.5874    0.7388 H   0  0  0  0  0  0  0  0  0  0  0  0
   -0.9298   -0.3698    0.9064 C   0  0  1  0  0  0  0  0  0  0  0  0
   -0.2485   -0.8743    1.5999 H   0  0  0  0  0  0  0  0  0  0  0  0
   -0.2693   -0.4291   -0.5036 C   0  0  0  0  0  0  0  0  0  0  0  0
    0.6776   -0.9671   -0.3895 H   0  0  0  0  0  0  0  0  0  0  0  0
   -0.8878   -1.0566   -1.1552 H   0  0  0  0  0  0  0  0  0  0  0  0
   -0.0097    0.9000   -1.2594 C   0  0  0  0  0  0  0  0  0  0  0  0
   -0.5657    0.8658   -2.2033 H   0  0  0  0  0  0  0  0  0  0  0  0
   -0.3791    1.7733   -0.7192 H   0  0  0  0  0  0  0  0  0  0  0  0
    1.4809    1.0980   -1.5600 C   0  0  0  0  0  0  0  0  0  0  0  0
    2.0406    1.1262   -0.6186 H   0  0  0  0  0  0  0  0  0  0  0  0
    1.8493    0.2531   -2.1529 H   0  0  0  0  0  0  0  0  0  0  0  0
    1.6819    2.4034   -2.3274 C   0  0  0  0  0  0  0  0  0  0  0  0
    1.0852    2.3736   -3.2511 H   0  0  0  0  0  0  0  0  0  0  0  0
    1.2996    3.2393   -1.7229 H   0  0  0  0  0  0  0  0  0  0  0  0
    3.1196    2.5767   -2.6289 N   0  3  0  0  0  0  0  0  0  0  0  0
    3.4539    1.7957   -3.1969 H   0  0  0  0  0  0  0  0  0  0  0  0
    3.2680    3.4478   -3.1435 H   0  0  0  0  0  0  0  0  0  0  0  0
    3.6574    2.6092   -1.7609 H   0  0  0  0  0  0  0  0  0  0  0  0
   -1.1625    1.0276    1.5181 C   0  0  0  0  0  0  0  0  0  0  0  0
   -2.1159    1.7026    1.1496 O   0  0  0  0  0  0  0  0  0  0  0  0
   -0.2970    1.5342    2.4710 N   0  0  0  0  0  0  0  0  0  0  0  0
    0.3631    0.8783    2.8816 H   0  0  0  0  0  0  0  0  0  0  0  0
   -0.5756    2.7700    3.1972 C   0  0  0  0  0  0  0  0  0  0  0  0
   -1.5019    2.6748    3.7742 H   0  0  0  0  0  0  0  0  0  0  0  0
    0.2416    2.9967    3.8892 H   0  0  0  0  0  0  0  0  0  0  0  0
   -0.6810    3.6110    2.5035 H   0  0  0  0  0  0  0  0  0  0  0  0
  1  2  1  0  0  0  0
  2  3  1  0  0  0  0
  2  4  1  0  0  0  0
  2  5  1  0  0  0  0
  5  6  2  0  0  0  0
  5  7  1  0  0  0  0
  7  8  1  0  0  0  0
  7  9  1  0  0  0  0
  9 10  1  0  0  0  0
  9 11  1  0  0  0  0
  9 27  1  0  0  0  0
 11 12  1  0  0  0  0
 11 13  1  0  0  0  0
 11 14  1  0  0  0  0
 14 15  1  0  0  0  0
 14 16  1  0  0  0  0
 14 17  1  0  0  0  0
 17 18  1  0  0  0  0
 17 19  1  0  0  0  0
 17 20  1  0  0  0  0
 20 21  1  0  0  0  0
 20 22  1  0  0  0  0
 20 23  1  0  0  0  0
 23 24  1  0  0  0  0
 23 25  1  0  0  0  0
 23 26  1  0  0  0  0
 27 28  2  0  0  0  0
 27 29  1  0  0  0  0
 29 30  1  0  0  0  0
 29 31  1  0  0  0  0
 31 32  1  0  0  0  0
 31 33  1  0  0  0  0
 31 34  1  0  0  0  0
M  CHG  1  23   1
M  END
$$$$

  -OEChem-02102214153D

 34 33  0     1  0  0  0  0  0999 V2000
   -3.6153   -4.0957    1.6883 H   0  0  0  0  0  0  0  0  0  0  0  0
   -3.6910   -3.0684    1.3206 C   0  0  0  0  0  0  0  0  0  0  0  0
   -4.3159   -2.4947    2.0094 H   0  0  0  0  0  0  0  0  0  0  0  0
   -4.1633   -3.0811    0.3354 H   0  0  0  0  0  0  0  0  0  0  0  0
   -2.3121   -2.4440    1.2278 C   0  0  0  0  0  0  0  0  0  0  0  0
   -1.3173   -3.1031    1.4838 O   0  0  0  0  0  0  0  0  0  0  0  0
   -2.1726   -1.1238    0.8511 N   0  0  0  0  0  0  0  0  0  0  0  0
   -3.0274   -0.5799    0.7348 H   0  0  0  0  0  0  0  0  0  0  0  0
   -0.9043   -0.3805    0.9080 C   0  0  1  0  0  0  0  0  0  0  0  0
   -0.2173   -0.8897    1.5932 H   0  0  0  0  0  0  0  0  0  0  0  0
   -0.2683   -0.4219   -0.5137 C   0  0  0  0  0  0  0  0  0  0  0  0
    0.6851   -0.9487   -0.4016 H   0  0  0  0  0  0  0  0  0  0  0  0
   -0.8798   -1.0487   -1.1724 H   0  0  0  0  0  0  0  0  0  0  0  0
   -0.0093    0.9196   -1.2458 C   0  0  0  0  0  0  0  0  0  0  0  0
   -0.7901    1.0620   -2.0013 H   0  0  0  0  0  0  0  0  0  0  0  0
   -0.0606    1.7739   -0.5677 H   0  0  0  0  0  0  0  0  0  0  0  0
    1.3803    0.9466   -1.8942 C   0  0  0  0  0  0  0  0  0  0  0  0
    2.1491    0.8428   -1.1206 H   0  0  0  0  0  0  0  0  0  0  0  0
    1.4735    0.1007   -2.5845 H   0  0  0  0  0  0  0  0  0  0  0  0
    1.5702    2.2608   -2.6498 C   0  0  0  0  0  0  0  0  0  0  0  0
    0.7729    2.3632   -3.4008 H   0  0  0  0  0  0  0  0  0  0  0  0
    1.4608    3.1008   -1.9478 H   0  0  0  0  0  0  0  0  0  0  0  0
    2.9050    2.2682   -3.2870 N   0  3  0  0  0  0  0  0  0  0  0  0
    2.9826    1.4884   -3.9431 H   0  0  0  0  0  0  0  0  0  0  0  0
    3.0468    3.1441   -3.7952 H   0  0  0  0  0  0  0  0  0  0  0  0
    3.6326    2.1763   -2.5755 H   0  0  0  0  0  0  0  0  0  0  0  0
   -1.1512    1.0135    1.5222 C   0  0  0  0  0  0  0  0  0  0  0  0
   -2.0864    1.6955    1.1206 O   0  0  0  0  0  0  0  0  0  0  0  0
   -0.3007    1.5234    2.4864 N   0  0  0  0  0  0  0  0  0  0  0  0
    0.3621    0.8749    2.9043 H   0  0  0  0  0  0  0  0  0  0  0  0
   -0.5735    2.7748    3.1870 C   0  0  0  0  0  0  0  0  0  0  0  0
   -1.5200    2.7106    3.7347 H   0  0  0  0  0  0  0  0  0  0  0  0
    0.2256    2.9912    3.9028 H   0  0  0  0  0  0  0  0  0  0  0  0
   -0.6353    3.6078    2.4789 H   0  0  0  0  0  0  0  0  0  0  0  0
  1  2  1  0  0  0  0
  2  3  1  0  0  0  0
  2  4  1  0  0  0  0
  2  5  1  0  0  0  0
  5  6  2  0  0  0  0
  5  7  1  0  0  0  0
  7  8  1  0  0  0  0
  7  9  1  0  0  0  0
  9 10  1  0  0  0  0
  9 11  1  0  0  0  0
  9 27  1  0  0  0  0
 11 12  1  0  0  0  0
 11 13  1  0  0  0  0
 11 14  1  0  0  0  0
 14 15  1  0  0  0  0
 14 16  1  0  0  0  0
 14 17  1  0  0  0  0
 17 18  1  0  0  0  0
 17 19  1  0  0  0  0
 17 20  1  0  0  0  0
 20 21  1  0  0  0  0
 20 22  1  0  0  0  0
 20 23  1  0  0  0  0
 23 24  1  0  0  0  0
 23 25  1  0  0  0  0
 23 26  1  0  0  0  0
 27 28  2  0  0  0  0
 27 29  1  0  0  0  0
 29 30  1  0  0  0  0
 29 31  1  0  0  0  0
 31 32  1  0  0  0  0
 31 33  1  0  0  0  0
 31 34  1  0  0  0  0
M  CHG  1  23   1
M  END
$$$$

  -OEChem-02102214153D

 34 33  0     1  0  0  0  0  0999 V2000
   -3.6386   -4.0865    1.6699 H   0  0  0  0  0  0  0  0  0  0  0  0
   -3.7048   -3.0530    1.3182 C   0  0  0  0  0  0  0  0  0  0  0  0
   -4.3185   -2.4827    2.0196 H   0  0  0  0  0  0  0  0  0  0  0  0
   -4.1836   -3.0453    0.3362 H   0  0  0  0  0  0  0  0  0  0  0  0
   -2.3191   -2.4432    1.2254 C   0  0  0  0  0  0  0  0  0  0  0  0
   -1.3320   -3.1117    1.4867 O   0  0  0  0  0  0  0  0  0  0  0  0
   -2.1641   -1.1277    0.8378 N   0  0  0  0  0  0  0  0  0  0  0  0
   -3.0125   -0.5738    0.7223 H   0  0  0  0  0  0  0  0  0  0  0  0
   -0.8879   -0.3982    0.8972 C   0  0  1  0  0  0  0  0  0  0  0  0
   -0.2038   -0.9103    1.5826 H   0  0  0  0  0  0  0  0  0  0  0  0
   -0.2606   -0.4380   -0.5269 C   0  0  0  0  0  0  0  0  0  0  0  0
    0.6952   -0.9623   -0.4223 H   0  0  0  0  0  0  0  0  0  0  0  0
   -0.8763   -1.0533   -1.1927 H   0  0  0  0  0  0  0  0  0  0  0  0
   -0.0022    0.9168   -1.2247 C   0  0  0  0  0  0  0  0  0  0  0  0
   -0.9104    1.2248   -1.7554 H   0  0  0  0  0  0  0  0  0  0  0  0
    0.2363    1.6952   -0.4942 H   0  0  0  0  0  0  0  0  0  0  0  0
    1.1950    0.8278   -2.1787 C   0  0  0  0  0  0  0  0  0  0  0  0
    2.1020    0.5929   -1.6107 H   0  0  0  0  0  0  0  0  0  0  0  0
    1.0230    0.0193   -2.8981 H   0  0  0  0  0  0  0  0  0  0  0  0
    1.3660    2.1538   -2.9175 C   0  0  0  0  0  0  0  0  0  0  0  0
    0.4312    2.3950   -3.4454 H   0  0  0  0  0  0  0  0  0  0  0  0
    1.5393    2.9567   -2.1856 H   0  0  0  0  0  0  0  0  0  0  0  0
    2.4964    2.0401   -3.8650 N   0  3  0  0  0  0  0  0  0  0  0  0
    2.3124    1.2943   -4.5392 H   0  0  0  0  0  0  0  0  0  0  0  0
    2.6210    2.9202   -4.3705 H   0  0  0  0  0  0  0  0  0  0  0  0
    3.3570    1.8238   -3.3585 H   0  0  0  0  0  0  0  0  0  0  0  0
   -1.1279    1.0035    1.4982 C   0  0  0  0  0  0  0  0  0  0  0  0
   -2.0447    1.6952    1.0710 O   0  0  0  0  0  0  0  0  0  0  0  0
   -0.2816    1.5147    2.4653 N   0  0  0  0  0  0  0  0  0  0  0  0
    0.3726    0.8652    2.8951 H   0  0  0  0  0  0  0  0  0  0  0  0
   -0.5428    2.7799    3.1453 C   0  0  0  0  0  0  0  0  0  0  0  0
   -1.4895    2.7315    3.6941 H   0  0  0  0  0  0  0  0  0  0  0  0
    0.2586    3.0013    3.8571 H   0  0  0  0  0  0  0  0  0  0  0  0
   -0.5976    3.6020    2.4237 H   0  0  0  0  0  0  0  0  0  0  0  0
  1  2  1  0  0  0  0
  2  3  1  0  0  0  0
  2  4  1  0  0  0  0
  2  5  1  0  0  0  0
  5  6  2  0  0  0  0
  5  7  1  0  0  0  0
  7  8  1  0  0  0  0
  7  9  1  0  0  0  0
  9 10  1  0  0  0  0
  9 11  1  0  0  0  0
  9 27  1  0  0  0  0
 11 12  1  0  0  0  0
 11 13  1  0  0  0  0
 11 14  1  0  0  0  0
 14 15  1  0  0  0  0
 14 16  1  0  0  0  0
 14 17  1  0  0  0  0
 17 18  1  0  0  0  0
 17 19  1  0  0  0  0
 17 20  1  0  0  0  0
 20 21  1  0  0  0  0
 20 22  1  0  0  0  0
 20 23  1  0  0  0  0
 23 24  1  0  0  0  0
 23 25  1  0  0  0  0
 23 26  1  0  0  0  0
 27 28  2  0  0  0  0
 27 29  1  0  0  0  0
 29 30  1  0  0  0  0
 29 31  1  0  0  0  0
 31 32  1  0  0  0  0
 31 33  1  0  0  0  0
 31 34  1  0  0  0  0
M  CHG  1  23   1
M  END
$$$$

  -OEChem-02102214153D

 34 33  0     1  0  0  0  0  0999 V2000
   -3.6590   -4.0744    1.7184 H   0  0  0  0  0  0  0  0  0  0  0  0
   -3.7215   -3.0475    1.3468 C   0  0  0  0  0  0  0  0  0  0  0  0
   -4.3278   -2.4596    2.0403 H   0  0  0  0  0  0  0  0  0  0  0  0
   -4.2054   -3.0562    0.3673 H   0  0  0  0  0  0  0  0  0  0  0  0
   -2.3329   -2.4483    1.2344 C   0  0  0  0  0  0  0  0  0  0  0  0
   -1.3486   -3.1209    1.4952 O   0  0  0  0  0  0  0  0  0  0  0  0
   -2.1727   -1.1387    0.8295 N   0  0  0  0  0  0  0  0  0  0  0  0
   -3.0185   -0.5801    0.7181 H   0  0  0  0  0  0  0  0  0  0  0  0
   -0.8920   -0.4164    0.8751 C   0  0  1  0  0  0  0  0  0  0  0  0
   -0.2088   -0.9267    1.5629 H   0  0  0  0  0  0  0  0  0  0  0  0
   -0.2651   -0.4669   -0.5467 C   0  0  0  0  0  0  0  0  0  0  0  0
    0.6914   -0.9921   -0.4536 H   0  0  0  0  0  0  0  0  0  0  0  0
   -0.8917   -1.0736   -1.2100 H   0  0  0  0  0  0  0  0  0  0  0  0
   -0.0132    0.8945   -1.2249 C   0  0  0  0  0  0  0  0  0  0  0  0
   -0.9724    1.3271   -1.5332 H   0  0  0  0  0  0  0  0  0  0  0  0
    0.4600    1.5867   -0.5202 H   0  0  0  0  0  0  0  0  0  0  0  0
    0.9219    0.7406   -2.4298 C   0  0  0  0  0  0  0  0  0  0  0  0
    1.8945    0.3635   -2.0947 H   0  0  0  0  0  0  0  0  0  0  0  0
    0.4954    0.0108   -3.1272 H   0  0  0  0  0  0  0  0  0  0  0  0
    1.0927    2.0887   -3.1268 C   0  0  0  0  0  0  0  0  0  0  0  0
    0.1038    2.4714   -3.4202 H   0  0  0  0  0  0  0  0  0  0  0  0
    1.5202    2.8116   -2.4165 H   0  0  0  0  0  0  0  0  0  0  0  0
    1.9680    1.9164   -4.3066 N   0  3  0  0  0  0  0  0  0  0  0  0
    1.5488    1.2488   -4.9570 H   0  0  0  0  0  0  0  0  0  0  0  0
    2.0930    2.8112   -4.7852 H   0  0  0  0  0  0  0  0  0  0  0  0
    2.8822    1.5654   -4.0151 H   0  0  0  0  0  0  0  0  0  0  0  0
   -1.1111    0.9962    1.4586 C   0  0  0  0  0  0  0  0  0  0  0  0
   -2.0311    1.6884    1.0387 O   0  0  0  0  0  0  0  0  0  0  0  0
   -0.2525    1.5098    2.4133 N   0  0  0  0  0  0  0  0  0  0  0  0
    0.4103    0.8638    2.8354 H   0  0  0  0  0  0  0  0  0  0  0  0
   -0.4914    2.7866    3.0794 C   0  0  0  0  0  0  0  0  0  0  0  0
   -1.4383    2.7617    3.6296 H   0  0  0  0  0  0  0  0  0  0  0  0
    0.3142    3.0018    3.7884 H   0  0  0  0  0  0  0  0  0  0  0  0
   -0.5322    3.6012    2.3485 H   0  0  0  0  0  0  0  0  0  0  0  0
  1  2  1  0  0  0  0
  2  3  1  0  0  0  0
  2  4  1  0  0  0  0
  2  5  1  0  0  0  0
  5  6  2  0  0  0  0
  5  7  1  0  0  0  0
  7  8  1  0  0  0  0
  7  9  1  0  0  0  0
  9 10  1  0  0  0  0
  9 11  1  0  0  0  0
  9 27  1  0  0  0  0
 11 12  1  0  0  0  0
 11 13  1  0  0  0  0
 11 14  1  0  0  0  0
 14 15  1  0  0  0  0
 14 16  1  0  0  0  0
 14 17  1  0  0  0  0
 17 18  1  0  0  0  0
 17 19  1  0  0  0  0
 17 20  1  0  0  0  0
 20 21  1  0  0  0  0
 20 22  1  0  0  0  0
 20 23  1  0  0  0  0
 23 24  1  0  0  0  0
 23 25  1  0  0  0  0
 23 26  1  0  0  0  0
 27 28  2  0  0  0  0
 27 29  1  0  0  0  0
 29 30  1  0  0  0  0
 29 31  1  0  0  0  0
 31 32  1  0  0  0  0
 31 33  1  0  0  0  0
 31 34  1  0  0  0  0
M  CHG  1  23   1
M  END
$$$$

  -OEChem-02102214153D

 34 33  0     1  0  0  0  0  0999 V2000
   -3.6786   -4.0533    1.7725 H   0  0  0  0  0  0  0  0  0  0  0  0
   -3.7312   -3.0408    1.3617 C   0  0  0  0  0  0  0  0  0  0  0  0
   -4.3467   -2.4261    2.0230 H   0  0  0  0  0  0  0  0  0  0  0  0
   -4.1993   -3.0850    0.3755 H   0  0  0  0  0  0  0  0  0  0  0  0
   -2.3387   -2.4500    1.2493 C   0  0  0  0  0  0  0  0  0  0  0  0
   -1.3589   -3.1231    1.5257 O   0  0  0  0  0  0  0  0  0  0  0  0
   -2.1691   -1.1477    0.8253 N   0  0  0  0  0  0  0  0  0  0  0  0
   -3.0108   -0.5843    0.7059 H   0  0  0  0  0  0  0  0  0  0  0  0
   -0.8833   -0.4343    0.8671 C   0  0  1  0  0  0  0  0  0  0  0  0
   -0.1988   -0.9334    1.5618 H   0  0  0  0  0  0  0  0  0  0  0  0
   -0.2541   -0.4909   -0.5512 C   0  0  0  0  0  0  0  0  0  0  0  0
    0.5276   -1.2580   -0.5449 H   0  0  0  0  0  0  0  0  0  0  0  0
   -1.0171   -0.8186   -1.2662 H   0  0  0  0  0  0  0  0  0  0  0  0
    0.3330    0.8350   -1.0694 C   0  0  0  0  0  0  0  0  0  0  0  0
   -0.4554    1.5947   -1.1155 H   0  0  0  0  0  0  0  0  0  0  0  0
    1.1093    1.1888   -0.3818 H   0  0  0  0  0  0  0  0  0  0  0  0
    0.9227    0.6523   -2.4724 C   0  0  0  0  0  0  0  0  0  0  0  0
    1.7388   -0.0778   -2.4337 H   0  0  0  0  0  0  0  0  0  0  0  0
    0.1488    0.2629   -3.1434 H   0  0  0  0  0  0  0  0  0  0  0  0
    1.4382    1.9906   -2.9972 C   0  0  0  0  0  0  0  0  0  0  0  0
    0.6159    2.7216   -2.9899 H   0  0  0  0  0  0  0  0  0  0  0  0
    2.2147    2.3709   -2.3175 H   0  0  0  0  0  0  0  0  0  0  0  0
    1.9694    1.8026   -4.3648 N   0  3  0  0  0  0  0  0  0  0  0  0
    1.2303    1.4583   -4.9812 H   0  0  0  0  0  0  0  0  0  0  0  0
    2.3194    2.6907   -4.7314 H   0  0  0  0  0  0  0  0  0  0  0  0
    2.7334    1.1240   -4.3530 H   0  0  0  0  0  0  0  0  0  0  0  0
   -1.1022    0.9872    1.4290 C   0  0  0  0  0  0  0  0  0  0  0  0
   -2.0222    1.6732    0.9994 O   0  0  0  0  0  0  0  0  0  0  0  0
   -0.2480    1.5112    2.3821 N   0  0  0  0  0  0  0  0  0  0  0  0
    0.4121    0.8699    2.8153 H   0  0  0  0  0  0  0  0  0  0  0  0
   -0.4856    2.7980    3.0290 C   0  0  0  0  0  0  0  0  0  0  0  0
   -1.4433    2.7892    3.5607 H   0  0  0  0  0  0  0  0  0  0  0  0
    0.3084    3.0122    3.7512 H   0  0  0  0  0  0  0  0  0  0  0  0
   -0.5032    3.6047    2.2887 H   0  0  0  0  0  0  0  0  0  0  0  0
  1  2  1  0  0  0  0
  2  3  1  0  0  0  0
  2  4  1  0  0  0  0
  2  5  1  0  0  0  0
  5  6  2  0  0  0  0
  5  7  1  0  0  0  0
  7  8  1  0  0  0  0
  7  9  1  0  0  0  0
  9 10  1  0  0  0  0
  9 11  1  0  0  0  0
  9 27  1  0  0  0  0
 11 12  1  0  0  0  0
 11 13  1  0  0  0  0
 11 14  1  0  0  0  0
 14 15  1  0  0  0  0
 14 16  1  0  0  0  0
 14 17  1  0  0  0  0
 17 18  1  0  0  0  0
 17 19  1  0  0  0  0
 17 20  1  0  0  0  0
 20 21  1  0  0  0  0
 20 22  1  0  0  0  0
 20 23  1  0  0  0  0
 23 24  1  0  0  0  0
 23 25  1  0  0  0  0
 23 26  1  0  0  0  0
 27 28  2  0  0  0  0
 27 29  1  0  0  0  0
 29 30  1  0  0  0  0
 29 31  1  0  0  0  0
 31 32  1  0  0  0  0
 31 33  1  0  0  0  0
 31 34  1  0  0  0  0
M  CHG  1  23   1
M  END
$$$$

  -OEChem-02102214153D

 34 33  0     1  0  0  0  0  0999 V2000
   -3.6678   -4.0500    1.7778 H   0  0  0  0  0  0  0  0  0  0  0  0
   -3.7272   -3.0372    1.3690 C   0  0  0  0  0  0  0  0  0  0  0  0
   -4.3332   -2.4237    2.0401 H   0  0  0  0  0  0  0  0  0  0  0  0
   -4.2097   -3.0803    0.3897 H   0  0  0  0  0  0  0  0  0  0  0  0
   -2.3370   -2.4455    1.2366 C   0  0  0  0  0  0  0  0  0  0  0  0
   -1.3528   -3.1237    1.4823 O   0  0  0  0  0  0  0  0  0  0  0  0
   -2.1754   -1.1374    0.8276 N   0  0  0  0  0  0  0  0  0  0  0  0
   -3.0198   -0.5726    0.7381 H   0  0  0  0  0  0  0  0  0  0  0  0
   -0.8906   -0.4213    0.8663 C   0  0  1  0  0  0  0  0  0  0  0  0
   -0.2047   -0.9263    1.5553 H   0  0  0  0  0  0  0  0  0  0  0  0
   -0.2601   -0.4751   -0.5530 C   0  0  0  0  0  0  0  0  0  0  0  0
    0.5157   -1.2482   -0.5597 H   0  0  0  0  0  0  0  0  0  0  0  0
   -1.0355   -0.8005   -1.2554 H   0  0  0  0  0  0  0  0  0  0  0  0
    0.3307    0.8444   -1.0912 C   0  0  0  0  0  0  0  0  0  0  0  0
   -0.3694    1.6696   -0.9278 H   0  0  0  0  0  0  0  0  0  0  0  0
    1.2597    1.0756   -0.5584 H   0  0  0  0  0  0  0  0  0  0  0  0
    0.5770    0.7495   -2.6018 C   0  0  0  0  0  0  0  0  0  0  0  0
    1.2980   -0.0504   -2.8040 H   0  0  0  0  0  0  0  0  0  0  0  0
   -0.3615    0.4988   -3.1089 H   0  0  0  0  0  0  0  0  0  0  0  0
    1.1061    2.0814   -3.1286 C   0  0  0  0  0  0  0  0  0  0  0  0
    0.3912    2.8787   -2.8761 H   0  0  0  0  0  0  0  0  0  0  0  0
    2.0520    2.3226   -2.6217 H   0  0  0  0  0  0  0  0  0  0  0  0
    1.2928    1.9801   -4.5923 N   0  3  0  0  0  0  0  0  0  0  0  0
    0.4017    1.7603   -5.0422 H   0  0  0  0  0  0  0  0  0  0  0  0
    1.6422    2.8658   -4.9647 H   0  0  0  0  0  0  0  0  0  0  0  0
    1.9641    1.2408   -4.8086 H   0  0  0  0  0  0  0  0  0  0  0  0
   -1.1066    0.9922    1.4482 C   0  0  0  0  0  0  0  0  0  0  0  0
   -2.0411    1.6751    1.0449 O   0  0  0  0  0  0  0  0  0  0  0  0
   -0.2454    1.5077    2.3994 N   0  0  0  0  0  0  0  0  0  0  0  0
    0.4296    0.8670    2.8099 H   0  0  0  0  0  0  0  0  0  0  0  0
   -0.4834    2.7826    3.0693 C   0  0  0  0  0  0  0  0  0  0  0  0
   -1.4396    2.7634    3.6037 H   0  0  0  0  0  0  0  0  0  0  0  0
    0.3123    2.9856    3.7932 H   0  0  0  0  0  0  0  0  0  0  0  0
   -0.5044    3.6018    2.3427 H   0  0  0  0  0  0  0  0  0  0  0  0
  1  2  1  0  0  0  0
  2  3  1  0  0  0  0
  2  4  1  0  0  0  0
  2  5  1  0  0  0  0
  5  6  2  0  0  0  0
  5  7  1  0  0  0  0
  7  8  1  0  0  0  0
  7  9  1  0  0  0  0
  9 10  1  0  0  0  0
  9 11  1  0  0  0  0
  9 27  1  0  0  0  0
 11 12  1  0  0  0  0
 11 13  1  0  0  0  0
 11 14  1  0  0  0  0
 14 15  1  0  0  0  0
 14 16  1  0  0  0  0
 14 17  1  0  0  0  0
 17 18  1  0  0  0  0
 17 19  1  0  0  0  0
 17 20  1  0  0  0  0
 20 21  1  0  0  0  0
 20 22  1  0  0  0  0
 20 23  1  0  0  0  0
 23 24  1  0  0  0  0
 23 25  1  0  0  0  0
 23 26  1  0  0  0  0
 27 28  2  0  0  0  0
 27 29  1  0  0  0  0
 29 30  1  0  0  0  0
 29 31  1  0  0  0  0
 31 32  1  0  0  0  0
 31 33  1  0  0  0  0
 31 34  1  0  0  0  0
M  CHG  1  23   1
M  END
$$$$

  -OEChem-02102214153D

 34 33  0     1  0  0  0  0  0999 V2000
   -3.6671   -4.0482    1.7761 H   0  0  0  0  0  0  0  0  0  0  0  0
   -3.7274   -3.0342    1.3703 C   0  0  0  0  0  0  0  0  0  0  0  0
   -4.3311   -2.4226    2.0451 H   0  0  0  0  0  0  0  0  0  0  0  0
   -4.2135   -3.0745    0.3926 H   0  0  0  0  0  0  0  0  0  0  0  0
   -2.3370   -2.4432    1.2348 C   0  0  0  0  0  0  0  0  0  0  0  0
   -1.3522   -3.1252    1.4664 O   0  0  0  0  0  0  0  0  0  0  0  0
   -2.1757   -1.1314    0.8373 N   0  0  0  0  0  0  0  0  0  0  0  0
   -3.0196   -0.5645    0.7582 H   0  0  0  0  0  0  0  0  0  0  0  0
   -0.8893   -0.4170    0.8760 C   0  0  1  0  0  0  0  0  0  0  0  0
   -0.1995   -0.9262    1.5583 H   0  0  0  0  0  0  0  0  0  0  0  0
   -0.2660   -0.4655   -0.5487 C   0  0  0  0  0  0  0  0  0  0  0  0
    0.5017   -1.2464   -0.5671 H   0  0  0  0  0  0  0  0  0  0  0  0
   -1.0529   -0.7912   -1.2377 H   0  0  0  0  0  0  0  0  0  0  0  0
    0.3346    0.8452   -1.1114 C   0  0  0  0  0  0  0  0  0  0  0  0
   -0.2000    1.7222   -0.7386 H   0  0  0  0  0  0  0  0  0  0  0  0
    1.3790    0.9328   -0.7919 H   0  0  0  0  0  0  0  0  0  0  0  0
    0.2232    0.8811   -2.6410 C   0  0  0  0  0  0  0  0  0  0  0  0
    0.7811    0.0402   -3.0679 H   0  0  0  0  0  0  0  0  0  0  0  0
   -0.8284    0.7745   -2.9304 H   0  0  0  0  0  0  0  0  0  0  0  0
    0.7694    2.2041   -3.1725 C   0  0  0  0  0  0  0  0  0  0  0  0
    0.2321    3.0336   -2.6887 H   0  0  0  0  0  0  0  0  0  0  0  0
    1.8293    2.2986   -2.8941 H   0  0  0  0  0  0  0  0  0  0  0  0
    0.5948    2.2437   -4.6405 N   0  3  0  0  0  0  0  0  0  0  0  0
   -0.3959    2.1545   -4.8751 H   0  0  0  0  0  0  0  0  0  0  0  0
    0.9447    3.1291   -5.0128 H   0  0  0  0  0  0  0  0  0  0  0  0
    1.1084    1.4746   -5.0748 H   0  0  0  0  0  0  0  0  0  0  0  0
   -1.1107    0.9890    1.4735 C   0  0  0  0  0  0  0  0  0  0  0  0
   -2.0422    1.6762    1.0691 O   0  0  0  0  0  0  0  0  0  0  0  0
   -0.2501    1.4995    2.4277 N   0  0  0  0  0  0  0  0  0  0  0  0
    0.4306    0.8595    2.8300 H   0  0  0  0  0  0  0  0  0  0  0  0
   -0.4813    2.7752    3.0985 C   0  0  0  0  0  0  0  0  0  0  0  0
   -1.4404    2.7633    3.6277 H   0  0  0  0  0  0  0  0  0  0  0  0
    0.3115    2.9705    3.8275 H   0  0  0  0  0  0  0  0  0  0  0  0
   -0.4910    3.5954    2.3728 H   0  0  0  0  0  0  0  0  0  0  0  0
  1  2  1  0  0  0  0
  2  3  1  0  0  0  0
  2  4  1  0  0  0  0
  2  5  1  0  0  0  0
  5  6  2  0  0  0  0
  5  7  1  0  0  0  0
  7  8  1  0  0  0  0
  7  9  1  0  0  0  0
  9 10  1  0  0  0  0
  9 11  1  0  0  0  0
  9 27  1  0  0  0  0
 11 12  1  0  0  0  0
 11 13  1  0  0  0  0
 11 14  1  0  0  0  0
 14 15  1  0  0  0  0
 14 16  1  0  0  0  0
 14 17  1  0  0  0  0
 17 18  1  0  0  0  0
 17 19  1  0  0  0  0
 17 20  1  0  0  0  0
 20 21  1  0  0  0  0
 20 22  1  0  0  0  0
 20 23  1  0  0  0  0
 23 24  1  0  0  0  0
 23 25  1  0  0  0  0
 23 26  1  0  0  0  0
 27 28  2  0  0  0  0
 27 29  1  0  0  0  0
 29 30  1  0  0  0  0
 29 31  1  0  0  0  0
 31 32  1  0  0  0  0
 31 33  1  0  0  0  0
 31 34  1  0  0  0  0
M  CHG  1  23   1
M  END
$$$$

  -OEChem-02102214153D

 34 33  0     1  0  0  0  0  0999 V2000
   -3.6702   -4.0616    1.7450 H   0  0  0  0  0  0  0  0  0  0  0  0
   -3.7299   -3.0307    1.3843 C   0  0  0  0  0  0  0  0  0  0  0  0
   -4.3173   -2.4439    2.0949 H   0  0  0  0  0  0  0  0  0  0  0  0
   -4.2323   -3.0259    0.4141 H   0  0  0  0  0  0  0  0  0  0  0  0
   -2.3374   -2.4447    1.2515 C   0  0  0  0  0  0  0  0  0  0  0  0
   -1.3565   -3.1284    1.4934 O   0  0  0  0  0  0  0  0  0  0  0  0
   -2.1698   -1.1353    0.8485 N   0  0  0  0  0  0  0  0  0  0  0  0
   -3.0110   -0.5660    0.7600 H   0  0  0  0  0  0  0  0  0  0  0  0
   -0.8790   -0.4281    0.8846 C   0  0  1  0  0  0  0  0  0  0  0  0
   -0.1845   -0.9367    1.5626 H   0  0  0  0  0  0  0  0  0  0  0  0
   -0.2722   -0.4713   -0.5488 C   0  0  0  0  0  0  0  0  0  0  0  0
    0.4929   -1.2549   -0.5700 H   0  0  0  0  0  0  0  0  0  0  0  0
   -1.0620   -0.8041   -1.2309 H   0  0  0  0  0  0  0  0  0  0  0  0
    0.3386    0.8320   -1.1290 C   0  0  0  0  0  0  0  0  0  0  0  0
    0.0537    1.7187   -0.5598 H   0  0  0  0  0  0  0  0  0  0  0  0
    1.4310    0.7608   -1.0801 H   0  0  0  0  0  0  0  0  0  0  0  0
   -0.1135    1.0489   -2.5789 C   0  0  0  0  0  0  0  0  0  0  0  0
    0.2189    0.2073   -3.1968 H   0  0  0  0  0  0  0  0  0  0  0  0
   -1.2086    1.0857   -2.6102 H   0  0  0  0  0  0  0  0  0  0  0  0
    0.4572    2.3579   -3.1180 C   0  0  0  0  0  0  0  0  0  0  0  0
    0.1705    3.1794   -2.4445 H   0  0  0  0  0  0  0  0  0  0  0  0
    1.5557    2.3039   -3.1155 H   0  0  0  0  0  0  0  0  0  0  0  0
   -0.0677    2.5830   -4.4821 N   0  3  0  0  0  0  0  0  0  0  0  0
   -1.0878    2.6426   -4.4557 H   0  0  0  0  0  0  0  0  0  0  0  0
    0.3052    3.4549   -4.8635 H   0  0  0  0  0  0  0  0  0  0  0  0
    0.2031    1.8100   -5.0928 H   0  0  0  0  0  0  0  0  0  0  0  0
   -1.1130    0.9767    1.4786 C   0  0  0  0  0  0  0  0  0  0  0  0
   -2.0273    1.6693    1.0437 O   0  0  0  0  0  0  0  0  0  0  0  0
   -0.2606    1.4935    2.4365 N   0  0  0  0  0  0  0  0  0  0  0  0
    0.4162    0.8553    2.8489 H   0  0  0  0  0  0  0  0  0  0  0  0
   -0.4940    2.7750    3.0950 C   0  0  0  0  0  0  0  0  0  0  0  0
   -1.4445    2.7592    3.6393 H   0  0  0  0  0  0  0  0  0  0  0  0
    0.3088    2.9864    3.8084 H   0  0  0  0  0  0  0  0  0  0  0  0
   -0.5233    3.5871    2.3609 H   0  0  0  0  0  0  0  0  0  0  0  0
  1  2  1  0  0  0  0
  2  3  1  0  0  0  0
  2  4  1  0  0  0  0
  2  5  1  0  0  0  0
  5  6  2  0  0  0  0
  5  7  1  0  0  0  0
  7  8  1  0  0  0  0
  7  9  1  0  0  0  0
  9 10  1  0  0  0  0
  9 11  1  0  0  0  0
  9 27  1  0  0  0  0
 11 12  1  0  0  0  0
 11 13  1  0  0  0  0
 11 14  1  0  0  0  0
 14 15  1  0  0  0  0
 14 16  1  0  0  0  0
 14 17  1  0  0  0  0
 17 18  1  0  0  0  0
 17 19  1  0  0  0  0
 17 20  1  0  0  0  0
 20 21  1  0  0  0  0
 20 22  1  0  0  0  0
 20 23  1  0  0  0  0
 23 24  1  0  0  0  0
 23 25  1  0  0  0  0
 23 26  1  0  0  0  0
 27 28  2  0  0  0  0
 27 29  1  0  0  0  0
 29 30  1  0  0  0  0
 29 31  1  0  0  0  0
 31 32  1  0  0  0  0
 31 33  1  0  0  0  0
 31 34  1  0  0  0  0
M  CHG  1  23   1
M  END
$$$$

  -OEChem-02102214153D

 34 33  0     1  0  0  0  0  0999 V2000
   -3.7146   -4.0290    1.8008 H   0  0  0  0  0  0  0  0  0  0  0  0
   -3.7513   -3.0167    1.3882 C   0  0  0  0  0  0  0  0  0  0  0  0
   -4.3633   -2.3933    2.0444 H   0  0  0  0  0  0  0  0  0  0  0  0
   -4.2129   -3.0572    0.3989 H   0  0  0  0  0  0  0  0  0  0  0  0
   -2.3499   -2.4454    1.2850 C   0  0  0  0  0  0  0  0  0  0  0  0
   -1.3833   -3.1270    1.5829 O   0  0  0  0  0  0  0  0  0  0  0  0
   -2.1582   -1.1501    0.8478 N   0  0  0  0  0  0  0  0  0  0  0  0
   -2.9902   -0.5770    0.7144 H   0  0  0  0  0  0  0  0  0  0  0  0
   -0.8592   -0.4582    0.8825 C   0  0  1  0  0  0  0  0  0  0  0  0
   -0.1671   -0.9564    1.5705 H   0  0  0  0  0  0  0  0  0  0  0  0
   -0.2664   -0.5234   -0.5558 C   0  0  0  0  0  0  0  0  0  0  0  0
    0.5057   -1.3007   -0.5520 H   0  0  0  0  0  0  0  0  0  0  0  0
   -1.0432   -0.8791   -1.2419 H   0  0  0  0  0  0  0  0  0  0  0  0
    0.3554    0.7714   -1.1419 C   0  0  0  0  0  0  0  0  0  0  0  0
    0.3688    1.5999   -0.4311 H   0  0  0  0  0  0  0  0  0  0  0  0
    1.4032    0.5668   -1.3884 H   0  0  0  0  0  0  0  0  0  0  0  0
   -0.3785    1.1952   -2.4198 C   0  0  0  0  0  0  0  0  0  0  0  0
   -0.2416    0.4343   -3.1963 H   0  0  0  0  0  0  0  0  0  0  0  0
   -1.4501    1.2732   -2.2010 H   0  0  0  0  0  0  0  0  0  0  0  0
    0.1396    2.5473   -2.9003 C   0  0  0  0  0  0  0  0  0  0  0  0
    0.0776    3.2691   -2.0722 H   0  0  0  0  0  0  0  0  0  0  0  0
    1.2008    2.4564   -3.1746 H   0  0  0  0  0  0  0  0  0  0  0  0
   -0.6800    2.9908   -4.0481 N   0  3  0  0  0  0  0  0  0  0  0  0
   -1.6582    3.0730   -3.7619 H   0  0  0  0  0  0  0  0  0  0  0  0
   -0.3552    3.9002   -4.3828 H   0  0  0  0  0  0  0  0  0  0  0  0
   -0.6131    2.3121   -4.8088 H   0  0  0  0  0  0  0  0  0  0  0  0
   -1.0990    0.9634    1.4349 C   0  0  0  0  0  0  0  0  0  0  0  0
   -1.9697    1.6664    0.9299 O   0  0  0  0  0  0  0  0  0  0  0  0
   -0.2610    1.5006    2.3944 N   0  0  0  0  0  0  0  0  0  0  0  0
    0.3856    0.8632    2.8543 H   0  0  0  0  0  0  0  0  0  0  0  0
   -0.4811    2.8129    2.9939 C   0  0  0  0  0  0  0  0  0  0  0  0
   -1.4523    2.8461    3.4998 H   0  0  0  0  0  0  0  0  0  0  0  0
    0.2995    3.0288    3.7306 H   0  0  0  0  0  0  0  0  0  0  0  0
   -0.4567    3.5954    2.2282 H   0  0  0  0  0  0  0  0  0  0  0  0
  1  2  1  0  0  0  0
  2  3  1  0  0  0  0
  2  4  1  0  0  0  0
  2  5  1  0  0  0  0
  5  6  2  0  0  0  0
  5  7  1  0  0  0  0
  7  8  1  0  0  0  0
  7  9  1  0  0  0  0
  9 10  1  0  0  0  0
  9 11  1  0  0  0  0
  9 27  1  0  0  0  0
 11 12  1  0  0  0  0
 11 13  1  0  0  0  0
 11 14  1  0  0  0  0
 14 15  1  0  0  0  0
 14 16  1  0  0  0  0
 14 17  1  0  0  0  0
 17 18  1  0  0  0  0
 17 19  1  0  0  0  0
 17 20  1  0  0  0  0
 20 21  1  0  0  0  0
 20 22  1  0  0  0  0
 20 23  1  0  0  0  0
 23 24  1  0  0  0  0
 23 25  1  0  0  0  0
 23 26  1  0  0  0  0
 27 28  2  0  0  0  0
 27 29  1  0  0  0  0
 29 30  1  0  0  0  0
 29 31  1  0  0  0  0
 31 32  1  0  0  0  0
 31 33  1  0  0  0  0
 31 34  1  0  0  0  0
M  CHG  1  23   1
M  END
$$$$

  -OEChem-02102214153D

 34 33  0     1  0  0  0  0  0999 V2000
   -3.7275   -4.0258    1.8049 H   0  0  0  0  0  0  0  0  0  0  0  0
   -3.7655   -3.0069    1.4086 C   0  0  0  0  0  0  0  0  0  0  0  0
   -4.3755   -2.3938    2.0764 H   0  0  0  0  0  0  0  0  0  0  0  0
   -4.2300   -3.0318    0.4202 H   0  0  0  0  0  0  0  0  0  0  0  0
   -2.3646   -2.4338    1.3099 C   0  0  0  0  0  0  0  0  0  0  0  0
   -1.4029   -3.0992    1.6557 O   0  0  0  0  0  0  0  0  0  0  0  0
   -2.1678   -1.1543    0.8290 N   0  0  0  0  0  0  0  0  0  0  0  0
   -2.9984   -0.5900    0.6577 H   0  0  0  0  0  0  0  0  0  0  0  0
   -0.8673   -0.4652    0.8565 C   0  0  1  0  0  0  0  0  0  0  0  0
   -0.1851   -0.9439    1.5680 H   0  0  0  0  0  0  0  0  0  0  0  0
   -0.2580   -0.5775   -0.5712 C   0  0  0  0  0  0  0  0  0  0  0  0
    0.5243   -1.3425   -0.5211 H   0  0  0  0  0  0  0  0  0  0  0  0
   -1.0104   -0.9629   -1.2684 H   0  0  0  0  0  0  0  0  0  0  0  0
    0.3660    0.7077   -1.1644 C   0  0  0  0  0  0  0  0  0  0  0  0
    0.6255    1.4375   -0.3930 H   0  0  0  0  0  0  0  0  0  0  0  0
    1.3089    0.4373   -1.6528 H   0  0  0  0  0  0  0  0  0  0  0  0
   -0.5592    1.3166   -2.2260 C   0  0  0  0  0  0  0  0  0  0  0  0
   -0.5735    0.6818   -3.1189 H   0  0  0  0  0  0  0  0  0  0  0  0
   -1.5782    1.3581   -1.8250 H   0  0  0  0  0  0  0  0  0  0  0  0
   -0.1001    2.7283   -2.5761 C   0  0  0  0  0  0  0  0  0  0  0  0
    0.0741    3.2888   -1.6456 H   0  0  0  0  0  0  0  0  0  0  0  0
    0.8581    2.6809   -3.1137 H   0  0  0  0  0  0  0  0  0  0  0  0
   -1.1516    3.3783   -3.3856 N   0  3  0  0  0  0  0  0  0  0  0  0
   -2.0158    3.4352   -2.8409 H   0  0  0  0  0  0  0  0  0  0  0  0
   -0.8622    4.3224   -3.6480 H   0  0  0  0  0  0  0  0  0  0  0  0
   -1.3285    2.8348   -4.2319 H   0  0  0  0  0  0  0  0  0  0  0  0
   -1.0993    0.9791    1.3556 C   0  0  0  0  0  0  0  0  0  0  0  0
   -1.9508    1.6818    0.8159 O   0  0  0  0  0  0  0  0  0  0  0  0
   -0.2636    1.5380    2.3046 N   0  0  0  0  0  0  0  0  0  0  0  0
    0.3663    0.9054    2.7940 H   0  0  0  0  0  0  0  0  0  0  0  0
   -0.4777    2.8675    2.8667 C   0  0  0  0  0  0  0  0  0  0  0  0
   -1.4402    2.9134    3.3874 H   0  0  0  0  0  0  0  0  0  0  0  0
    0.3142    3.1076    3.5832 H   0  0  0  0  0  0  0  0  0  0  0  0
   -0.4679    3.6266    2.0777 H   0  0  0  0  0  0  0  0  0  0  0  0
  1  2  1  0  0  0  0
  2  3  1  0  0  0  0
  2  4  1  0  0  0  0
  2  5  1  0  0  0  0
  5  6  2  0  0  0  0
  5  7  1  0  0  0  0
  7  8  1  0  0  0  0
  7  9  1  0  0  0  0
  9 10  1  0  0  0  0
  9 11  1  0  0  0  0
  9 27  1  0  0  0  0
 11 12  1  0  0  0  0
 11 13  1  0  0  0  0
 11 14  1  0  0  0  0
 14 15  1  0  0  0  0
 14 16  1  0  0  0  0
 14 17  1  0  0  0  0
 17 18  1  0  0  0  0
 17 19  1  0  0  0  0
 17 20  1  0  0  0  0
 20 21  1  0  0  0  0
 20 22  1  0  0  0  0
 20 23  1  0  0  0  0
 23 24  1  0  0  0  0
 23 25  1  0  0  0  0
 23 26  1  0  0  0  0
 27 28  2  0  0  0  0
 27 29  1  0  0  0  0
 29 30  1  0  0  0  0
 29 31  1  0  0  0  0
 31 32  1  0  0  0  0
 31 33  1  0  0  0  0
 31 34  1  0  0  0  0
M  CHG  1  23   1
M  END
$$$$

  -OEChem-02102214153D

 34 33  0     1  0  0  0  0  0999 V2000
   -3.7318   -3.9851    1.7304 H   0  0  0  0  0  0  0  0  0  0  0  0
   -3.7875   -3.0008    1.2563 C   0  0  0  0  0  0  0  0  0  0  0  0
   -4.5153   -2.3919    1.7978 H   0  0  0  0  0  0  0  0  0  0  0  0
   -4.1231   -3.1281    0.2244 H   0  0  0  0  0  0  0  0  0  0  0  0
   -2.4263   -2.3320    1.2832 C   0  0  0  0  0  0  0  0  0  0  0  0
   -1.4739   -2.8974    1.7928 O   0  0  0  0  0  0  0  0  0  0  0  0
   -2.2549   -1.0773    0.7291 N   0  0  0  0  0  0  0  0  0  0  0  0
   -3.0868   -0.6119    0.3732 H   0  0  0  0  0  0  0  0  0  0  0  0
   -0.9926   -0.3200    0.7819 C   0  0  1  0  0  0  0  0  0  0  0  0
   -0.3774   -0.7209    1.5956 H   0  0  0  0  0  0  0  0  0  0  0  0
   -0.2144   -0.5955   -0.5378 C   0  0  0  0  0  0  0  0  0  0  0  0
    0.5965   -1.2888   -0.2878 H   0  0  0  0  0  0  0  0  0  0  0  0
   -0.8566   -1.1265   -1.2498 H   0  0  0  0  0  0  0  0  0  0  0  0
    0.4133    0.6217   -1.2501 C   0  0  0  0  0  0  0  0  0  0  0  0
    0.7600    1.3607   -0.5215 H   0  0  0  0  0  0  0  0  0  0  0  0
    1.3009    0.2896   -1.8008 H   0  0  0  0  0  0  0  0  0  0  0  0
   -0.5770    1.2387   -2.2598 C   0  0  0  0  0  0  0  0  0  0  0  0
   -0.4580    0.7136   -3.2141 H   0  0  0  0  0  0  0  0  0  0  0  0
   -1.6134    1.0780   -1.9435 H   0  0  0  0  0  0  0  0  0  0  0  0
   -0.3206    2.7303   -2.4810 C   0  0  0  0  0  0  0  0  0  0  0  0
    0.7408    2.9488   -2.2952 H   0  0  0  0  0  0  0  0  0  0  0  0
   -0.5207    2.9788   -3.5334 H   0  0  0  0  0  0  0  0  0  0  0  0
   -1.2068    3.5096   -1.5889 N   0  3  0  0  0  0  0  0  0  0  0  0
   -1.4077    2.9669   -0.7337 H   0  0  0  0  0  0  0  0  0  0  0  0
   -0.7717    4.3934   -1.3266 H   0  0  0  0  0  0  0  0  0  0  0  0
   -2.0958    3.6978   -2.0527 H   0  0  0  0  0  0  0  0  0  0  0  0
   -1.2087    1.1620    1.1595 C   0  0  0  0  0  0  0  0  0  0  0  0
   -1.9867    1.8738    0.5270 O   0  0  0  0  0  0  0  0  0  0  0  0
   -0.3878    1.7615    2.0961 N   0  0  0  0  0  0  0  0  0  0  0  0
    0.1916    1.1361    2.6552 H   0  0  0  0  0  0  0  0  0  0  0  0
   -0.5875    3.1194    2.5935 C   0  0  0  0  0  0  0  0  0  0  0  0
   -1.5960    3.2342    3.0059 H   0  0  0  0  0  0  0  0  0  0  0  0
    0.1340    3.3393    3.3873 H   0  0  0  0  0  0  0  0  0  0  0  0
   -0.4472    3.8513    1.7921 H   0  0  0  0  0  0  0  0  0  0  0  0
  1  2  1  0  0  0  0
  2  3  1  0  0  0  0
  2  4  1  0  0  0  0
  2  5  1  0  0  0  0
  5  6  2  0  0  0  0
  5  7  1  0  0  0  0
  7  8  1  0  0  0  0
  7  9  1  0  0  0  0
  9 10  1  0  0  0  0
  9 11  1  0  0  0  0
  9 27  1  0  0  0  0
 11 12  1  0  0  0  0
 11 13  1  0  0  0  0
 11 14  1  0  0  0  0
 14 15  1  0  0  0  0
 14 16  1  0  0  0  0
 14 17  1  0  0  0  0
 17 18  1  0  0  0  0
 17 19  1  0  0  0  0
 17 20  1  0  0  0  0
 20 21  1  0  0  0  0
 20 22  1  0  0  0  0
 20 23  1  0  0  0  0
 23 24  1  0  0  0  0
 23 25  1  0  0  0  0
 23 26  1  0  0  0  0
 27 28  2  0  0  0  0
 27 29  1  0  0  0  0
 29 30  1  0  0  0  0
 29 31  1  0  0  0  0
 31 32  1  0  0  0  0
 31 33  1  0  0  0  0
 31 34  1  0  0  0  0
M  CHG  1  23   1
M  END
$$$$

  -OEChem-02102214153D

 34 33  0     1  0  0  0  0  0999 V2000
   -3.7657   -3.9154    1.7463 H   0  0  0  0  0  0  0  0  0  0  0  0
   -3.8212   -2.8921    1.3635 C   0  0  0  0  0  0  0  0  0  0  0  0
   -4.4624   -2.3043    2.0247 H   0  0  0  0  0  0  0  0  0  0  0  0
   -4.2625   -2.9165    0.3643 H   0  0  0  0  0  0  0  0  0  0  0  0
   -2.4339   -2.2814    1.3059 C   0  0  0  0  0  0  0  0  0  0  0  0
   -1.4722   -2.8998    1.7290 O   0  0  0  0  0  0  0  0  0  0  0  0
   -2.2501   -1.0206    0.7702 N   0  0  0  0  0  0  0  0  0  0  0  0
   -3.0876   -0.5041    0.5110 H   0  0  0  0  0  0  0  0  0  0  0  0
   -0.9607   -0.3091    0.7678 C   0  0  1  0  0  0  0  0  0  0  0  0
   -0.3311   -0.7423    1.5533 H   0  0  0  0  0  0  0  0  0  0  0  0
   -0.2278   -0.6005   -0.5752 C   0  0  0  0  0  0  0  0  0  0  0  0
    0.5593   -1.3323   -0.3619 H   0  0  0  0  0  0  0  0  0  0  0  0
   -0.9188   -1.0902   -1.2703 H   0  0  0  0  0  0  0  0  0  0  0  0
    0.4204    0.5908   -1.3105 C   0  0  0  0  0  0  0  0  0  0  0  0
    1.0227    1.1654   -0.5990 H   0  0  0  0  0  0  0  0  0  0  0  0
    1.1120    0.2030   -2.0674 H   0  0  0  0  0  0  0  0  0  0  0  0
   -0.6217    1.4847   -2.0152 C   0  0  0  0  0  0  0  0  0  0  0  0
   -0.5899    1.2867   -3.0923 H   0  0  0  0  0  0  0  0  0  0  0  0
   -1.6284    1.2077   -1.6863 H   0  0  0  0  0  0  0  0  0  0  0  0
   -0.3619    2.9768   -1.7760 C   0  0  0  0  0  0  0  0  0  0  0  0
    0.3863    3.0963   -0.9798 H   0  0  0  0  0  0  0  0  0  0  0  0
    0.0595    3.4275   -2.6863 H   0  0  0  0  0  0  0  0  0  0  0  0
   -1.6327    3.6202   -1.3829 N   0  3  0  0  0  0  0  0  0  0  0  0
   -2.0007    3.1406   -0.5436 H   0  0  0  0  0  0  0  0  0  0  0  0
   -1.4867    4.6051   -1.1626 H   0  0  0  0  0  0  0  0  0  0  0  0
   -2.3198    3.5374   -2.1317 H   0  0  0  0  0  0  0  0  0  0  0  0
   -1.1113    1.1704    1.1906 C   0  0  0  0  0  0  0  0  0  0  0  0
   -2.0135    1.8769    0.7402 O   0  0  0  0  0  0  0  0  0  0  0  0
   -0.2233    1.7276    2.0917 N   0  0  0  0  0  0  0  0  0  0  0  0
    0.4225    1.0842    2.5478 H   0  0  0  0  0  0  0  0  0  0  0  0
   -0.4131    3.0398    2.7032 C   0  0  0  0  0  0  0  0  0  0  0  0
   -1.3451    3.0647    3.2786 H   0  0  0  0  0  0  0  0  0  0  0  0
    0.4160    3.2624    3.3827 H   0  0  0  0  0  0  0  0  0  0  0  0
   -0.4479    3.8236    1.9400 H   0  0  0  0  0  0  0  0  0  0  0  0
  1  2  1  0  0  0  0
  2  3  1  0  0  0  0
  2  4  1  0  0  0  0
  2  5  1  0  0  0  0
  5  6  2  0  0  0  0
  5  7  1  0  0  0  0
  7  8  1  0  0  0  0
  7  9  1  0  0  0  0
  9 10  1  0  0  0  0
  9 11  1  0  0  0  0
  9 27  1  0  0  0  0
 11 12  1  0  0  0  0
 11 13  1  0  0  0  0
 11 14  1  0  0  0  0
 14 15  1  0  0  0  0
 14 16  1  0  0  0  0
 14 17  1  0  0  0  0
 17 18  1  0  0  0  0
 17 19  1  0  0  0  0
 17 20  1  0  0  0  0
 20 21  1  0  0  0  0
 20 22  1  0  0  0  0
 20 23  1  0  0  0  0
 23 24  1  0  0  0  0
 23 25  1  0  0  0  0
 23 26  1  0  0  0  0
 27 28  2  0  0  0  0
 27 29  1  0  0  0  0
 29 30  1  0  0  0  0
 29 31  1  0  0  0  0
 31 32  1  0  0  0  0
 31 33  1  0  0  0  0
 31 34  1  0  0  0  0
M  CHG  1  23   1
M  END
$$$$

  -OEChem-02102214153D

 34 33  0     1  0  0  0  0  0999 V2000
   -3.6679   -3.9540    1.8118 H   0  0  0  0  0  0  0  0  0  0  0  0
   -3.7538   -2.9538    1.3772 C   0  0  0  0  0  0  0  0  0  0  0  0
   -4.4294   -2.3596    1.9971 H   0  0  0  0  0  0  0  0  0  0  0  0
   -4.1734   -3.0434    0.3725 H   0  0  0  0  0  0  0  0  0  0  0  0
   -2.3887   -2.2958    1.3136 C   0  0  0  0  0  0  0  0  0  0  0  0
   -1.4017   -2.8888    1.7149 O   0  0  0  0  0  0  0  0  0  0  0  0
   -2.2525   -1.0190    0.8020 N   0  0  0  0  0  0  0  0  0  0  0  0
   -3.1091   -0.5262    0.5582 H   0  0  0  0  0  0  0  0  0  0  0  0
   -0.9879   -0.2637    0.8020 C   0  0  1  0  0  0  0  0  0  0  0  0
   -0.3553   -0.6839    1.5923 H   0  0  0  0  0  0  0  0  0  0  0  0
   -0.2179   -0.5439   -0.5246 C   0  0  0  0  0  0  0  0  0  0  0  0
    0.5725   -1.2669   -0.2945 H   0  0  0  0  0  0  0  0  0  0  0  0
   -0.9012   -1.0517   -1.2144 H   0  0  0  0  0  0  0  0  0  0  0  0
    0.4256    0.6177   -1.3185 C   0  0  0  0  0  0  0  0  0  0  0  0
    1.2059    1.0737   -0.6996 H   0  0  0  0  0  0  0  0  0  0  0  0
    0.9288    0.1906   -2.1936 H   0  0  0  0  0  0  0  0  0  0  0  0
   -0.5658    1.6939   -1.8041 C   0  0  0  0  0  0  0  0  0  0  0  0
   -1.5858    1.3830   -1.5568 H   0  0  0  0  0  0  0  0  0  0  0  0
   -0.5221    1.7468   -2.8976 H   0  0  0  0  0  0  0  0  0  0  0  0
   -0.2524    3.0852   -1.2432 C   0  0  0  0  0  0  0  0  0  0  0  0
    0.2845    2.9819   -0.2894 H   0  0  0  0  0  0  0  0  0  0  0  0
    0.4113    3.6232   -1.9354 H   0  0  0  0  0  0  0  0  0  0  0  0
   -1.5295    3.7962   -1.0302 N   0  3  0  0  0  0  0  0  0  0  0  0
   -2.0753    3.2773   -0.3211 H   0  0  0  0  0  0  0  0  0  0  0  0
   -1.3644    4.7435   -0.6909 H   0  0  0  0  0  0  0  0  0  0  0  0
   -2.0669    3.8328   -1.8961 H   0  0  0  0  0  0  0  0  0  0  0  0
   -1.1798    1.1993    1.2548 C   0  0  0  0  0  0  0  0  0  0  0  0
   -2.1354    1.8729    0.8688 O   0  0  0  0  0  0  0  0  0  0  0  0
   -0.2972    1.7628    2.1577 N   0  0  0  0  0  0  0  0  0  0  0  0
    0.3791    1.1265    2.5789 H   0  0  0  0  0  0  0  0  0  0  0  0
   -0.5573    3.0196    2.8539 C   0  0  0  0  0  0  0  0  0  0  0  0
   -1.4933    2.9590    3.4202 H   0  0  0  0  0  0  0  0  0  0  0  0
    0.2547    3.2365    3.5557 H   0  0  0  0  0  0  0  0  0  0  0  0
   -0.6267    3.8501    2.1450 H   0  0  0  0  0  0  0  0  0  0  0  0
  1  2  1  0  0  0  0
  2  3  1  0  0  0  0
  2  4  1  0  0  0  0
  2  5  1  0  0  0  0
  5  6  2  0  0  0  0
  5  7  1  0  0  0  0
  7  8  1  0  0  0  0
  7  9  1  0  0  0  0
  9 10  1  0  0  0  0
  9 11  1  0  0  0  0
  9 27  1  0  0  0  0
 11 12  1  0  0  0  0
 11 13  1  0  0  0  0
 11 14  1  0  0  0  0
 14 15  1  0  0  0  0
 14 16  1  0  0  0  0
 14 17  1  0  0  0  0
 17 18  1  0  0  0  0
 17 19  1  0  0  0  0
 17 20  1  0  0  0  0
 20 21  1  0  0  0  0
 20 22  1  0  0  0  0
 20 23  1  0  0  0  0
 23 24  1  0  0  0  0
 23 25  1  0  0  0  0
 23 26  1  0  0  0  0
 27 28  2  0  0  0  0
 27 29  1  0  0  0  0
 29 30  1  0  0  0  0
 29 31  1  0  0  0  0
 31 32  1  0  0  0  0
 31 33  1  0  0  0  0
 31 34  1  0  0  0  0
M  CHG  1  23   1
M  END
$$$$

  -OEChem-02102214153D

 34 33  0     1  0  0  0  0  0999 V2000
   -3.5979   -4.2030    1.5005 H   0  0  0  0  0  0  0  0  0  0  0  0
   -3.7049   -3.1395    1.2686 C   0  0  0  0  0  0  0  0  0  0  0  0
   -4.2938   -2.6659    2.0578 H   0  0  0  0  0  0  0  0  0  0  0  0
   -4.2330   -3.0385    0.3174 H   0  0  0  0  0  0  0  0  0  0  0  0
   -2.3389   -2.4872    1.1762 C   0  0  0  0  0  0  0  0  0  0  0  0
   -1.3269   -3.1570    1.3001 O   0  0  0  0  0  0  0  0  0  0  0  0
   -2.2322   -1.1299    0.9457 N   0  0  0  0  0  0  0  0  0  0  0  0
   -3.0955   -0.5890    0.9719 H   0  0  0  0  0  0  0  0  0  0  0  0
   -0.9647   -0.3843    1.0193 C   0  0  1  0  0  0  0  0  0  0  0  0
   -0.2609   -0.9522    1.6381 H   0  0  0  0  0  0  0  0  0  0  0  0
   -0.3371   -0.3322   -0.4097 C   0  0  0  0  0  0  0  0  0  0  0  0
    0.4372   -1.1063   -0.4514 H   0  0  0  0  0  0  0  0  0  0  0  0
   -1.1156   -0.6469   -1.1135 H   0  0  0  0  0  0  0  0  0  0  0  0
    0.2617    0.9627   -1.0177 C   0  0  0  0  0  0  0  0  0  0  0  0
    1.2470    1.1308   -0.5691 H   0  0  0  0  0  0  0  0  0  0  0  0
    0.4239    0.7694   -2.0841 H   0  0  0  0  0  0  0  0  0  0  0  0
   -0.5615    2.2493   -0.8579 C   0  0  0  0  0  0  0  0  0  0  0  0
   -1.6267    2.0013   -0.9249 H   0  0  0  0  0  0  0  0  0  0  0  0
   -0.3613    2.7002    0.1179 H   0  0  0  0  0  0  0  0  0  0  0  0
   -0.2211    3.2717   -1.9356 C   0  0  0  0  0  0  0  0  0  0  0  0
    0.8436    3.5392   -1.8671 H   0  0  0  0  0  0  0  0  0  0  0  0
   -0.3837    2.8266   -2.9282 H   0  0  0  0  0  0  0  0  0  0  0  0
   -1.0907    4.4495   -1.7264 N   0  3  0  0  0  0  0  0  0  0  0  0
   -0.9218    4.8458   -0.7995 H   0  0  0  0  0  0  0  0  0  0  0  0
   -0.9022    5.1616   -2.4346 H   0  0  0  0  0  0  0  0  0  0  0  0
   -2.0723    4.1698   -1.7863 H   0  0  0  0  0  0  0  0  0  0  0  0
   -1.1739    0.9286    1.8002 C   0  0  0  0  0  0  0  0  0  0  0  0
   -2.1764    1.6110    1.6065 O   0  0  0  0  0  0  0  0  0  0  0  0
   -0.2636    1.3233    2.7635 N   0  0  0  0  0  0  0  0  0  0  0  0
    0.4625    0.6530    3.0079 H   0  0  0  0  0  0  0  0  0  0  0  0
   -0.5140    2.4263    3.6861 C   0  0  0  0  0  0  0  0  0  0  0  0
   -1.3910    2.2149    4.3074 H   0  0  0  0  0  0  0  0  0  0  0  0
    0.3485    2.5724    4.3442 H   0  0  0  0  0  0  0  0  0  0  0  0
   -0.6885    3.3576    3.1377 H   0  0  0  0  0  0  0  0  0  0  0  0
  1  2  1  0  0  0  0
  2  3  1  0  0  0  0
  2  4  1  0  0  0  0
  2  5  1  0  0  0  0
  5  6  2  0  0  0  0
  5  7  1  0  0  0  0
  7  8  1  0  0  0  0
  7  9  1  0  0  0  0
  9 10  1  0  0  0  0
  9 11  1  0  0  0  0
  9 27  1  0  0  0  0
 11 12  1  0  0  0  0
 11 13  1  0  0  0  0
 11 14  1  0  0  0  0
 14 15  1  0  0  0  0
 14 16  1  0  0  0  0
 14 17  1  0  0  0  0
 17 18  1  0  0  0  0
 17 19  1  0  0  0  0
 17 20  1  0  0  0  0
 20 21  1  0  0  0  0
 20 22  1  0  0  0  0
 20 23  1  0  0  0  0
 23 24  1  0  0  0  0
 23 25  1  0  0  0  0
 23 26  1  0  0  0  0
 27 28  2  0  0  0  0
 27 29  1  0  0  0  0
 29 30  1  0  0  0  0
 29 31  1  0  0  0  0
 31 32  1  0  0  0  0
 31 33  1  0  0  0  0
 31 34  1  0  0  0  0
M  CHG  1  23   1
M  END
$$$$

  -OEChem-02102214153D

 34 33  0     1  0  0  0  0  0999 V2000
   -3.5714   -4.2462    1.5156 H   0  0  0  0  0  0  0  0  0  0  0  0
   -3.6889   -3.1869    1.2693 C   0  0  0  0  0  0  0  0  0  0  0  0
   -4.2965   -2.7123    2.0436 H   0  0  0  0  0  0  0  0  0  0  0  0
   -4.2038   -3.1042    0.3092 H   0  0  0  0  0  0  0  0  0  0  0  0
   -2.3308   -2.5164    1.1900 C   0  0  0  0  0  0  0  0  0  0  0  0
   -1.3106   -3.1743    1.3112 O   0  0  0  0  0  0  0  0  0  0  0  0
   -2.2398   -1.1539    0.9840 N   0  0  0  0  0  0  0  0  0  0  0  0
   -3.1108   -0.6247    0.9958 H   0  0  0  0  0  0  0  0  0  0  0  0
   -0.9805   -0.3937    1.0579 C   0  0  1  0  0  0  0  0  0  0  0  0
   -0.2659   -0.9623    1.6632 H   0  0  0  0  0  0  0  0  0  0  0  0
   -0.3653   -0.3310   -0.3799 C   0  0  0  0  0  0  0  0  0  0  0  0
    0.4014   -1.1119   -0.4357 H   0  0  0  0  0  0  0  0  0  0  0  0
   -1.1594   -0.6449   -1.0668 H   0  0  0  0  0  0  0  0  0  0  0  0
    0.2262    0.9502   -1.0333 C   0  0  0  0  0  0  0  0  0  0  0  0
    1.2968    0.9738   -0.8014 H   0  0  0  0  0  0  0  0  0  0  0  0
    0.1391    0.8273   -2.1189 H   0  0  0  0  0  0  0  0  0  0  0  0
   -0.3556    2.3129   -0.6373 C   0  0  0  0  0  0  0  0  0  0  0  0
   -1.4478    2.2377   -0.6276 H   0  0  0  0  0  0  0  0  0  0  0  0
   -0.0019    2.5995    0.3570 H   0  0  0  0  0  0  0  0  0  0  0  0
    0.0447    3.3995   -1.6289 C   0  0  0  0  0  0  0  0  0  0  0  0
    1.1378    3.5215   -1.6232 H   0  0  0  0  0  0  0  0  0  0  0  0
   -0.2449    3.0918   -2.6446 H   0  0  0  0  0  0  0  0  0  0  0  0
   -0.6447    4.6468   -1.2328 N   0  3  0  0  0  0  0  0  0  0  0  0
   -0.3265    4.9420   -0.3078 H   0  0  0  0  0  0  0  0  0  0  0  0
   -0.4509    5.3902   -1.9068 H   0  0  0  0  0  0  0  0  0  0  0  0
   -1.6542    4.4859   -1.1939 H   0  0  0  0  0  0  0  0  0  0  0  0
   -1.2015    0.9009    1.8661 C   0  0  0  0  0  0  0  0  0  0  0  0
   -2.2020    1.5880    1.6835 O   0  0  0  0  0  0  0  0  0  0  0  0
   -0.2859    1.2873    2.8286 N   0  0  0  0  0  0  0  0  0  0  0  0
    0.4384    0.6108    3.0617 H   0  0  0  0  0  0  0  0  0  0  0  0
   -0.5574    2.3508    3.7913 C   0  0  0  0  0  0  0  0  0  0  0  0
   -1.4240    2.0948    4.4107 H   0  0  0  0  0  0  0  0  0  0  0  0
    0.3053    2.4960    4.4492 H   0  0  0  0  0  0  0  0  0  0  0  0
   -0.7602    3.2962    3.2780 H   0  0  0  0  0  0  0  0  0  0  0  0
  1  2  1  0  0  0  0
  2  3  1  0  0  0  0
  2  4  1  0  0  0  0
  2  5  1  0  0  0  0
  5  6  2  0  0  0  0
  5  7  1  0  0  0  0
  7  8  1  0  0  0  0
  7  9  1  0  0  0  0
  9 10  1  0  0  0  0
  9 11  1  0  0  0  0
  9 27  1  0  0  0  0
 11 12  1  0  0  0  0
 11 13  1  0  0  0  0
 11 14  1  0  0  0  0
 14 15  1  0  0  0  0
 14 16  1  0  0  0  0
 14 17  1  0  0  0  0
 17 18  1  0  0  0  0
 17 19  1  0  0  0  0
 17 20  1  0  0  0  0
 20 21  1  0  0  0  0
 20 22  1  0  0  0  0
 20 23  1  0  0  0  0
 23 24  1  0  0  0  0
 23 25  1  0  0  0  0
 23 26  1  0  0  0  0
 27 28  2  0  0  0  0
 27 29  1  0  0  0  0
 29 30  1  0  0  0  0
 29 31  1  0  0  0  0
 31 32  1  0  0  0  0
 31 33  1  0  0  0  0
 31 34  1  0  0  0  0
M  CHG  1  23   1
M  END
$$$$

  -OEChem-02102214153D

 34 33  0     1  0  0  0  0  0999 V2000
   -4.0514   -3.6274    1.2298 H   0  0  0  0  0  0  0  0  0  0  0  0
   -3.9856   -2.5600    0.9993 C   0  0  0  0  0  0  0  0  0  0  0  0
   -4.5716   -2.0061    1.7365 H   0  0  0  0  0  0  0  0  0  0  0  0
   -4.4057   -2.3894    0.0051 H   0  0  0  0  0  0  0  0  0  0  0  0
   -2.5385   -2.1079    1.0363 C   0  0  0  0  0  0  0  0  0  0  0  0
   -1.6464   -2.9144    1.2361 O   0  0  0  0  0  0  0  0  0  0  0  0
   -2.2188   -0.7777    0.8400 N   0  0  0  0  0  0  0  0  0  0  0  0
   -2.9971   -0.1231    0.7914 H   0  0  0  0  0  0  0  0  0  0  0  0
   -0.8596   -0.2307    1.0038 C   0  0  1  0  0  0  0  0  0  0  0  0
   -0.3064   -0.8993    1.6739 H   0  0  0  0  0  0  0  0  0  0  0  0
   -0.1208   -0.3407   -0.3749 C   0  0  0  0  0  0  0  0  0  0  0  0
    0.5018   -1.2414   -0.3213 H   0  0  0  0  0  0  0  0  0  0  0  0
   -0.8957   -0.5691   -1.1151 H   0  0  0  0  0  0  0  0  0  0  0  0
    0.7422    0.7645   -1.0599 C   0  0  0  0  0  0  0  0  0  0  0  0
    1.7848    0.4545   -0.9243 H   0  0  0  0  0  0  0  0  0  0  0  0
    0.5531    0.7224   -2.1389 H   0  0  0  0  0  0  0  0  0  0  0  0
    0.6877    2.2309   -0.6101 C   0  0  0  0  0  0  0  0  0  0  0  0
    1.5149    2.7760   -1.0780 H   0  0  0  0  0  0  0  0  0  0  0  0
    0.8402    2.3170    0.4658 H   0  0  0  0  0  0  0  0  0  0  0  0
   -0.6285    2.8575   -1.0827 C   0  0  0  0  0  0  0  0  0  0  0  0
   -0.5180    3.1942   -2.1235 H   0  0  0  0  0  0  0  0  0  0  0  0
   -1.4129    2.0862   -1.0726 H   0  0  0  0  0  0  0  0  0  0  0  0
   -1.0102    3.9645   -0.1851 N   0  3  0  0  0  0  0  0  0  0  0  0
   -0.2103    4.5661    0.0066 H   0  0  0  0  0  0  0  0  0  0  0  0
   -1.7637    4.5153   -0.5968 H   0  0  0  0  0  0  0  0  0  0  0  0
   -1.3494    3.5538    0.7004 H   0  0  0  0  0  0  0  0  0  0  0  0
   -0.9009    1.0908    1.7967 C   0  0  0  0  0  0  0  0  0  0  0  0
   -1.7379    1.9565    1.5454 O   0  0  0  0  0  0  0  0  0  0  0  0
    0.0061    1.3221    2.8147 N   0  0  0  0  0  0  0  0  0  0  0  0
    0.5978    0.5363    3.0820 H   0  0  0  0  0  0  0  0  0  0  0  0
   -0.1085    2.4306    3.7584 C   0  0  0  0  0  0  0  0  0  0  0  0
   -1.0553    2.3727    4.3070 H   0  0  0  0  0  0  0  0  0  0  0  0
    0.7111    2.3946    4.4837 H   0  0  0  0  0  0  0  0  0  0  0  0
   -0.0604    3.3921    3.2376 H   0  0  0  0  0  0  0  0  0  0  0  0
  1  2  1  0  0  0  0
  2  3  1  0  0  0  0
  2  4  1  0  0  0  0
  2  5  1  0  0  0  0
  5  6  2  0  0  0  0
  5  7  1  0  0  0  0
  7  8  1  0  0  0  0
  7  9  1  0  0  0  0
  9 10  1  0  0  0  0
  9 11  1  0  0  0  0
  9 27  1  0  0  0  0
 11 12  1  0  0  0  0
 11 13  1  0  0  0  0
 11 14  1  0  0  0  0
 14 15  1  0  0  0  0
 14 16  1  0  0  0  0
 14 17  1  0  0  0  0
 17 18  1  0  0  0  0
 17 19  1  0  0  0  0
 17 20  1  0  0  0  0
 20 21  1  0  0  0  0
 20 22  1  0  0  0  0
 20 23  1  0  0  0  0
 23 24  1  0  0  0  0
 23 25  1  0  0  0  0
 23 26  1  0  0  0  0
 27 28  2  0  0  0  0
 27 29  1  0  0  0  0
 29 30  1  0  0  0  0
 29 31  1  0  0  0  0
 31 32  1  0  0  0  0
 31 33  1  0  0  0  0
 31 34  1  0  0  0  0
M  CHG  1  23   1
M  END
$$$$

  -OEChem-02102214153D

 34 33  0     1  0  0  0  0  0999 V2000
   -4.0502   -3.6659    1.1479 H   0  0  0  0  0  0  0  0  0  0  0  0
   -3.9726   -2.6009    0.9103 C   0  0  0  0  0  0  0  0  0  0  0  0
   -4.6178   -2.0420    1.5922 H   0  0  0  0  0  0  0  0  0  0  0  0
   -4.3145   -2.4450   -0.1157 H   0  0  0  0  0  0  0  0  0  0  0  0
   -2.5353   -2.1388    1.0553 C   0  0  0  0  0  0  0  0  0  0  0  0
   -1.6615   -2.9317    1.3626 O   0  0  0  0  0  0  0  0  0  0  0  0
   -2.2028   -0.8156    0.8352 N   0  0  0  0  0  0  0  0  0  0  0  0
   -2.9707   -0.1681    0.6680 H   0  0  0  0  0  0  0  0  0  0  0  0
   -0.8528   -0.2609    1.0409 C   0  0  1  0  0  0  0  0  0  0  0  0
   -0.3215   -0.9093    1.7471 H   0  0  0  0  0  0  0  0  0  0  0  0
   -0.0788   -0.4081   -0.3152 C   0  0  0  0  0  0  0  0  0  0  0  0
    0.5519   -1.2969   -0.1984 H   0  0  0  0  0  0  0  0  0  0  0  0
   -0.8214   -0.6832   -1.0727 H   0  0  0  0  0  0  0  0  0  0  0  0
    0.8053    0.6704   -1.0167 C   0  0  0  0  0  0  0  0  0  0  0  0
    1.8044    0.2260   -1.0945 H   0  0  0  0  0  0  0  0  0  0  0  0
    0.4496    0.7813   -2.0477 H   0  0  0  0  0  0  0  0  0  0  0  0
    1.0177    2.0702   -0.4232 C   0  0  0  0  0  0  0  0  0  0  0  0
    1.9480    2.4877   -0.8240 H   0  0  0  0  0  0  0  0  0  0  0  0
    1.1471    2.0234    0.6575 H   0  0  0  0  0  0  0  0  0  0  0  0
   -0.1359    2.9805   -0.8619 C   0  0  0  0  0  0  0  0  0  0  0  0
    0.1128    3.4365   -1.8309 H   0  0  0  0  0  0  0  0  0  0  0  0
   -1.0341    2.3641   -1.0161 H   0  0  0  0  0  0  0  0  0  0  0  0
   -0.4117    4.0012    0.1661 N   0  3  0  0  0  0  0  0  0  0  0  0
    0.4566    4.3879    0.5332 H   0  0  0  0  0  0  0  0  0  0  0  0
   -0.9858    4.7507   -0.2208 H   0  0  0  0  0  0  0  0  0  0  0  0
   -0.9374    3.5476    0.9307 H   0  0  0  0  0  0  0  0  0  0  0  0
   -0.9323    1.0826    1.7916 C   0  0  0  0  0  0  0  0  0  0  0  0
   -1.7296    1.9576    1.4619 O   0  0  0  0  0  0  0  0  0  0  0  0
   -0.0702    1.3432    2.8421 N   0  0  0  0  0  0  0  0  0  0  0  0
    0.4863    0.5523    3.1658 H   0  0  0  0  0  0  0  0  0  0  0  0
   -0.2611    2.4481    3.7780 C   0  0  0  0  0  0  0  0  0  0  0  0
   -1.2308    2.3619    4.2811 H   0  0  0  0  0  0  0  0  0  0  0  0
    0.5237    2.4346    4.5416 H   0  0  0  0  0  0  0  0  0  0  0  0
   -0.2168    3.4114    3.2613 H   0  0  0  0  0  0  0  0  0  0  0  0
  1  2  1  0  0  0  0
  2  3  1  0  0  0  0
  2  4  1  0  0  0  0
  2  5  1  0  0  0  0
  5  6  2  0  0  0  0
  5  7  1  0  0  0  0
  7  8  1  0  0  0  0
  7  9  1  0  0  0  0
  9 10  1  0  0  0  0
  9 11  1  0  0  0  0
  9 27  1  0  0  0  0
 11 12  1  0  0  0  0
 11 13  1  0  0  0  0
 11 14  1  0  0  0  0
 14 15  1  0  0  0  0
 14 16  1  0  0  0  0
 14 17  1  0  0  0  0
 17 18  1  0  0  0  0
 17 19  1  0  0  0  0
 17 20  1  0  0  0  0
 20 21  1  0  0  0  0
 20 22  1  0  0  0  0
 20 23  1  0  0  0  0
 23 24  1  0  0  0  0
 23 25  1  0  0  0  0
 23 26  1  0  0  0  0
 27 28  2  0  0  0  0
 27 29  1  0  0  0  0
 29 30  1  0  0  0  0
 29 31  1  0  0  0  0
 31 32  1  0  0  0  0
 31 33  1  0  0  0  0
 31 34  1  0  0  0  0
M  CHG  1  23   1
M  END
$$$$

  -OEChem-02102214153D

 34 33  0     1  0  0  0  0  0999 V2000
   -3.5910   -4.2945    1.4182 H   0  0  0  0  0  0  0  0  0  0  0  0
   -3.6905   -3.2383    1.1524 C   0  0  0  0  0  0  0  0  0  0  0  0
   -4.3863   -2.7651    1.8494 H   0  0  0  0  0  0  0  0  0  0  0  0
   -4.0944   -3.1674    0.1398 H   0  0  0  0  0  0  0  0  0  0  0  0
   -2.3389   -2.5538    1.2202 C   0  0  0  0  0  0  0  0  0  0  0  0
   -1.3368   -3.1917    1.4990 O   0  0  0  0  0  0  0  0  0  0  0  0
   -2.2316   -1.2003    0.9713 N   0  0  0  0  0  0  0  0  0  0  0  0
   -3.0958   -0.6792    0.8248 H   0  0  0  0  0  0  0  0  0  0  0  0
   -0.9836   -0.4315    1.1102 C   0  0  1  0  0  0  0  0  0  0  0  0
   -0.2758   -0.9681    1.7516 H   0  0  0  0  0  0  0  0  0  0  0  0
   -0.3626   -0.3516   -0.3232 C   0  0  0  0  0  0  0  0  0  0  0  0
    0.4365   -1.1012   -0.3297 H   0  0  0  0  0  0  0  0  0  0  0  0
   -1.1087   -0.7141   -1.0399 H   0  0  0  0  0  0  0  0  0  0  0  0
    0.2331    0.9338   -0.9679 C   0  0  0  0  0  0  0  0  0  0  0  0
    1.1411    0.6295   -1.5009 H   0  0  0  0  0  0  0  0  0  0  0  0
   -0.4816    1.2685   -1.7286 H   0  0  0  0  0  0  0  0  0  0  0  0
    0.5659    2.1579   -0.1037 C   0  0  0  0  0  0  0  0  0  0  0  0
   -0.3571    2.6267    0.2451 H   0  0  0  0  0  0  0  0  0  0  0  0
    1.1670    1.8534    0.7593 H   0  0  0  0  0  0  0  0  0  0  0  0
    1.3316    3.1863   -0.9323 C   0  0  0  0  0  0  0  0  0  0  0  0
    2.3027    2.7663   -1.2331 H   0  0  0  0  0  0  0  0  0  0  0  0
    0.7688    3.3958   -1.8541 H   0  0  0  0  0  0  0  0  0  0  0  0
    1.4991    4.4150   -0.1270 N   0  3  0  0  0  0  0  0  0  0  0  0
    2.0429    4.2114    0.7133 H   0  0  0  0  0  0  0  0  0  0  0  0
    1.9837    5.1307   -0.6728 H   0  0  0  0  0  0  0  0  0  0  0  0
    0.5823    4.7733    0.1508 H   0  0  0  0  0  0  0  0  0  0  0  0
   -1.3224    0.8750    1.8534 C   0  0  0  0  0  0  0  0  0  0  0  0
   -2.2736    1.5611    1.4976 O   0  0  0  0  0  0  0  0  0  0  0  0
   -0.5158    1.3234    2.8860 N   0  0  0  0  0  0  0  0  0  0  0  0
    0.1362    0.6389    3.2637 H   0  0  0  0  0  0  0  0  0  0  0  0
   -0.9251    2.4170    3.7632 C   0  0  0  0  0  0  0  0  0  0  0  0
   -1.8482    2.1576    4.2933 H   0  0  0  0  0  0  0  0  0  0  0  0
   -0.1468    2.6202    4.5055 H   0  0  0  0  0  0  0  0  0  0  0  0
   -1.0989    3.3323    3.1879 H   0  0  0  0  0  0  0  0  0  0  0  0
  1  2  1  0  0  0  0
  2  3  1  0  0  0  0
  2  4  1  0  0  0  0
  2  5  1  0  0  0  0
  5  6  2  0  0  0  0
  5  7  1  0  0  0  0
  7  8  1  0  0  0  0
  7  9  1  0  0  0  0
  9 10  1  0  0  0  0
  9 11  1  0  0  0  0
  9 27  1  0  0  0  0
 11 12  1  0  0  0  0
 11 13  1  0  0  0  0
 11 14  1  0  0  0  0
 14 15  1  0  0  0  0
 14 16  1  0  0  0  0
 14 17  1  0  0  0  0
 17 18  1  0  0  0  0
 17 19  1  0  0  0  0
 17 20  1  0  0  0  0
 20 21  1  0  0  0  0
 20 22  1  0  0  0  0
 20 23  1  0  0  0  0
 23 24  1  0  0  0  0
 23 25  1  0  0  0  0
 23 26  1  0  0  0  0
 27 28  2  0  0  0  0
 27 29  1  0  0  0  0
 29 30  1  0  0  0  0
 29 31  1  0  0  0  0
 31 32  1  0  0  0  0
 31 33  1  0  0  0  0
 31 34  1  0  0  0  0
M  CHG  1  23   1
M  END
$$$$

  -OEChem-02102214153D

 34 33  0     1  0  0  0  0  0999 V2000
   -4.0319   -3.6864    1.3942 H   0  0  0  0  0  0  0  0  0  0  0  0
   -3.9291   -2.6219    1.1650 C   0  0  0  0  0  0  0  0  0  0  0  0
   -4.5241   -2.0500    1.8809 H   0  0  0  0  0  0  0  0  0  0  0  0
   -4.3107   -2.4419    0.1572 H   0  0  0  0  0  0  0  0  0  0  0  0
   -2.4724   -2.2089    1.2514 C   0  0  0  0  0  0  0  0  0  0  0  0
   -1.6169   -3.0220    1.5570 O   0  0  0  0  0  0  0  0  0  0  0  0
   -2.1013   -0.9032    0.9946 N   0  0  0  0  0  0  0  0  0  0  0  0
   -2.8460   -0.2356    0.8031 H   0  0  0  0  0  0  0  0  0  0  0  0
   -0.7215   -0.4028    1.1278 C   0  0  1  0  0  0  0  0  0  0  0  0
   -0.1111   -1.0706    1.7467 H   0  0  0  0  0  0  0  0  0  0  0  0
   -0.1651   -0.4307   -0.3383 C   0  0  0  0  0  0  0  0  0  0  0  0
    0.4763   -1.3183   -0.3732 H   0  0  0  0  0  0  0  0  0  0  0  0
   -0.9908   -0.6393   -1.0289 H   0  0  0  0  0  0  0  0  0  0  0  0
    0.6501    0.7097   -1.0114 C   0  0  0  0  0  0  0  0  0  0  0  0
    1.2631    0.2562   -1.7990 H   0  0  0  0  0  0  0  0  0  0  0  0
   -0.0857    1.3311   -1.5298 H   0  0  0  0  0  0  0  0  0  0  0  0
    1.5634    1.6351   -0.1771 C   0  0  0  0  0  0  0  0  0  0  0  0
    2.6003    1.3623   -0.4035 H   0  0  0  0  0  0  0  0  0  0  0  0
    1.4592    1.4723    0.8885 H   0  0  0  0  0  0  0  0  0  0  0  0
    1.3937    3.1268   -0.5033 C   0  0  0  0  0  0  0  0  0  0  0  0
    2.1078    3.6953    0.1097 H   0  0  0  0  0  0  0  0  0  0  0  0
    1.6704    3.2965   -1.5539 H   0  0  0  0  0  0  0  0  0  0  0  0
    0.0098    3.5898   -0.2473 N   0  3  0  0  0  0  0  0  0  0  0  0
    0.0012    4.5755    0.0143 H   0  0  0  0  0  0  0  0  0  0  0  0
   -0.5664    3.4616   -1.0785 H   0  0  0  0  0  0  0  0  0  0  0  0
   -0.4168    3.0415    0.5160 H   0  0  0  0  0  0  0  0  0  0  0  0
   -0.8009    0.9480    1.8683 C   0  0  0  0  0  0  0  0  0  0  0  0
   -1.4366    1.8809    1.3813 O   0  0  0  0  0  0  0  0  0  0  0  0
    0.0700    1.2349    2.9044 N   0  0  0  0  0  0  0  0  0  0  0  0
    0.5390    0.4334    3.3260 H   0  0  0  0  0  0  0  0  0  0  0  0
   -0.0139    2.4553    3.7024 C   0  0  0  0  0  0  0  0  0  0  0  0
   -1.0136    2.5630    4.1378 H   0  0  0  0  0  0  0  0  0  0  0  0
    0.7133    2.4210    4.5204 H   0  0  0  0  0  0  0  0  0  0  0  0
    0.2014    3.3368    3.0906 H   0  0  0  0  0  0  0  0  0  0  0  0
  1  2  1  0  0  0  0
  2  3  1  0  0  0  0
  2  4  1  0  0  0  0
  2  5  1  0  0  0  0
  5  6  2  0  0  0  0
  5  7  1  0  0  0  0
  7  8  1  0  0  0  0
  7  9  1  0  0  0  0
  9 10  1  0  0  0  0
  9 11  1  0  0  0  0
  9 27  1  0  0  0  0
 11 12  1  0  0  0  0
 11 13  1  0  0  0  0
 11 14  1  0  0  0  0
 14 15  1  0  0  0  0
 14 16  1  0  0  0  0
 14 17  1  0  0  0  0
 17 18  1  0  0  0  0
 17 19  1  0  0  0  0
 17 20  1  0  0  0  0
 20 21  1  0  0  0  0
 20 22  1  0  0  0  0
 20 23  1  0  0  0  0
 23 24  1  0  0  0  0
 23 25  1  0  0  0  0
 23 26  1  0  0  0  0
 27 28  2  0  0  0  0
 27 29  1  0  0  0  0
 29 30  1  0  0  0  0
 29 31  1  0  0  0  0
 31 32  1  0  0  0  0
 31 33  1  0  0  0  0
 31 34  1  0  0  0  0
M  CHG  1  23   1
M  END
$$$$

  -OEChem-02102214153D

 34 33  0     1  0  0  0  0  0999 V2000
   -3.6067   -4.2404    1.4427 H   0  0  0  0  0  0  0  0  0  0  0  0
   -3.6869   -3.1926    1.1390 C   0  0  0  0  0  0  0  0  0  0  0  0
   -4.4131   -2.6943    1.7858 H   0  0  0  0  0  0  0  0  0  0  0  0
   -4.0412   -3.1527    0.1061 H   0  0  0  0  0  0  0  0  0  0  0  0
   -2.3361   -2.5116    1.2506 C   0  0  0  0  0  0  0  0  0  0  0  0
   -1.3545   -3.1408    1.6113 O   0  0  0  0  0  0  0  0  0  0  0  0
   -2.2040   -1.1724    0.9428 N   0  0  0  0  0  0  0  0  0  0  0  0
   -3.0515   -0.6548    0.7119 H   0  0  0  0  0  0  0  0  0  0  0  0
   -0.9503   -0.4144    1.0836 C   0  0  1  0  0  0  0  0  0  0  0  0
   -0.2446   -0.9350    1.7398 H   0  0  0  0  0  0  0  0  0  0  0  0
   -0.3482   -0.3546   -0.3545 C   0  0  0  0  0  0  0  0  0  0  0  0
    0.4479   -1.1064   -0.3825 H   0  0  0  0  0  0  0  0  0  0  0  0
   -1.1058   -0.6895   -1.0727 H   0  0  0  0  0  0  0  0  0  0  0  0
    0.2315    0.9541   -0.9415 C   0  0  0  0  0  0  0  0  0  0  0  0
    0.7713    0.6809   -1.8552 H   0  0  0  0  0  0  0  0  0  0  0  0
   -0.6087    1.5914   -1.2421 H   0  0  0  0  0  0  0  0  0  0  0  0
    1.1562    1.7868   -0.0401 C   0  0  0  0  0  0  0  0  0  0  0  0
    0.5669    2.3796    0.6612 H   0  0  0  0  0  0  0  0  0  0  0  0
    1.8190    1.1225    0.5250 H   0  0  0  0  0  0  0  0  0  0  0  0
    1.9778    2.7432   -0.9019 C   0  0  0  0  0  0  0  0  0  0  0  0
    2.5996    2.1624   -1.5990 H   0  0  0  0  0  0  0  0  0  0  0  0
    1.2940    3.3542   -1.5098 H   0  0  0  0  0  0  0  0  0  0  0  0
    2.8090    3.5948   -0.0244 N   0  3  0  0  0  0  0  0  0  0  0  0
    3.4450    3.0145    0.5253 H   0  0  0  0  0  0  0  0  0  0  0  0
    3.3578    4.2485   -0.5872 H   0  0  0  0  0  0  0  0  0  0  0  0
    2.2102    4.1261    0.6111 H   0  0  0  0  0  0  0  0  0  0  0  0
   -1.2830    0.9325    1.7557 C   0  0  0  0  0  0  0  0  0  0  0  0
   -2.1424    1.6606    1.2759 O   0  0  0  0  0  0  0  0  0  0  0  0
   -0.4961    1.4126    2.7902 N   0  0  0  0  0  0  0  0  0  0  0  0
    0.0737    0.7172    3.2670 H   0  0  0  0  0  0  0  0  0  0  0  0
   -0.8639    2.6115    3.5397 C   0  0  0  0  0  0  0  0  0  0  0  0
   -1.8393    2.4783    4.0206 H   0  0  0  0  0  0  0  0  0  0  0  0
   -0.1213    2.8179    4.3170 H   0  0  0  0  0  0  0  0  0  0  0  0
   -0.9185    3.4817    2.8771 H   0  0  0  0  0  0  0  0  0  0  0  0
  1  2  1  0  0  0  0
  2  3  1  0  0  0  0
  2  4  1  0  0  0  0
  2  5  1  0  0  0  0
  5  6  2  0  0  0  0
  5  7  1  0  0  0  0
  7  8  1  0  0  0  0
  7  9  1  0  0  0  0
  9 10  1  0  0  0  0
  9 11  1  0  0  0  0
  9 27  1  0  0  0  0
 11 12  1  0  0  0  0
 11 13  1  0  0  0  0
 11 14  1  0  0  0  0
 14 15  1  0  0  0  0
 14 16  1  0  0  0  0
 14 17  1  0  0  0  0
 17 18  1  0  0  0  0
 17 19  1  0  0  0  0
 17 20  1  0  0  0  0
 20 21  1  0  0  0  0
 20 22  1  0  0  0  0
 20 23  1  0  0  0  0
 23 24  1  0  0  0  0
 23 25  1  0  0  0  0
 23 26  1  0  0  0  0
 27 28  2  0  0  0  0
 27 29  1  0  0  0  0
 29 30  1  0  0  0  0
 29 31  1  0  0  0  0
 31 32  1  0  0  0  0
 31 33  1  0  0  0  0
 31 34  1  0  0  0  0
M  CHG  1  23   1
M  END
$$$$

  -OEChem-02102214153D

 34 33  0     1  0  0  0  0  0999 V2000
   -3.7837   -4.0471    1.6102 H   0  0  0  0  0  0  0  0  0  0  0  0
   -3.7863   -3.0219    1.2291 C   0  0  0  0  0  0  0  0  0  0  0  0
   -4.4895   -2.4295    1.8195 H   0  0  0  0  0  0  0  0  0  0  0  0
   -4.1163   -3.0355    0.1876 H   0  0  0  0  0  0  0  0  0  0  0  0
   -2.3949   -2.4258    1.3253 C   0  0  0  0  0  0  0  0  0  0  0  0
   -1.4733   -3.0783    1.7882 O   0  0  0  0  0  0  0  0  0  0  0  0
   -2.1594   -1.1344    0.8989 N   0  0  0  0  0  0  0  0  0  0  0  0
   -2.9599   -0.5881    0.5824 H   0  0  0  0  0  0  0  0  0  0  0  0
   -0.8613   -0.4514    1.0172 C   0  0  1  0  0  0  0  0  0  0  0  0
   -0.2049   -0.9522    1.7369 H   0  0  0  0  0  0  0  0  0  0  0  0
   -0.2280   -0.5437   -0.4070 C   0  0  0  0  0  0  0  0  0  0  0  0
    0.5106   -1.3520   -0.3839 H   0  0  0  0  0  0  0  0  0  0  0  0
   -0.9998   -0.8539   -1.1212 H   0  0  0  0  0  0  0  0  0  0  0  0
    0.4361    0.7039   -1.0246 C   0  0  0  0  0  0  0  0  0  0  0  0
    0.7757    0.4513   -2.0355 H   0  0  0  0  0  0  0  0  0  0  0  0
   -0.3365    1.4736   -1.1333 H   0  0  0  0  0  0  0  0  0  0  0  0
    1.6222    1.2799   -0.2346 C   0  0  0  0  0  0  0  0  0  0  0  0
    1.4271    1.2859    0.8360 H   0  0  0  0  0  0  0  0  0  0  0  0
    2.4979    0.6428   -0.4007 H   0  0  0  0  0  0  0  0  0  0  0  0
    1.9004    2.7032   -0.7140 C   0  0  0  0  0  0  0  0  0  0  0  0
    2.0744    2.6921   -1.8000 H   0  0  0  0  0  0  0  0  0  0  0  0
    1.0067    3.3207   -0.5367 H   0  0  0  0  0  0  0  0  0  0  0  0
    3.0717    3.2440    0.0080 N   0  3  0  0  0  0  0  0  0  0  0  0
    3.8932    2.6650   -0.1760 H   0  0  0  0  0  0  0  0  0  0  0  0
    3.2631    4.1996   -0.3011 H   0  0  0  0  0  0  0  0  0  0  0  0
    2.8878    3.2513    1.0127 H   0  0  0  0  0  0  0  0  0  0  0  0
   -1.1371    0.9745    1.5488 C   0  0  0  0  0  0  0  0  0  0  0  0
   -1.9368    1.6995    0.9706 O   0  0  0  0  0  0  0  0  0  0  0  0
   -0.3683    1.5155    2.5666 N   0  0  0  0  0  0  0  0  0  0  0  0
    0.1265    0.8375    3.1425 H   0  0  0  0  0  0  0  0  0  0  0  0
   -0.7095    2.7953    3.1835 C   0  0  0  0  0  0  0  0  0  0  0  0
   -1.7072    2.7497    3.6344 H   0  0  0  0  0  0  0  0  0  0  0  0
    0.0122    3.0439    3.9680 H   0  0  0  0  0  0  0  0  0  0  0  0
   -0.6999    3.5994    2.4400 H   0  0  0  0  0  0  0  0  0  0  0  0
  1  2  1  0  0  0  0
  2  3  1  0  0  0  0
  2  4  1  0  0  0  0
  2  5  1  0  0  0  0
  5  6  2  0  0  0  0
  5  7  1  0  0  0  0
  7  8  1  0  0  0  0
  7  9  1  0  0  0  0
  9 10  1  0  0  0  0
  9 11  1  0  0  0  0
  9 27  1  0  0  0  0
 11 12  1  0  0  0  0
 11 13  1  0  0  0  0
 11 14  1  0  0  0  0
 14 15  1  0  0  0  0
 14 16  1  0  0  0  0
 14 17  1  0  0  0  0
 17 18  1  0  0  0  0
 17 19  1  0  0  0  0
 17 20  1  0  0  0  0
 20 21  1  0  0  0  0
 20 22  1  0  0  0  0
 20 23  1  0  0  0  0
 23 24  1  0  0  0  0
 23 25  1  0  0  0  0
 23 26  1  0  0  0  0
 27 28  2  0  0  0  0
 27 29  1  0  0  0  0
 29 30  1  0  0  0  0
 29 31  1  0  0  0  0
 31 32  1  0  0  0  0
 31 33  1  0  0  0  0
 31 34  1  0  0  0  0
M  CHG  1  23   1
M  END
$$$$

  -OEChem-02102214153D

 34 33  0     1  0  0  0  0  0999 V2000
   -3.6855   -4.0960    1.6607 H   0  0  0  0  0  0  0  0  0  0  0  0
   -3.7322   -3.0705    1.2831 C   0  0  0  0  0  0  0  0  0  0  0  0
   -4.4140   -2.4944    1.9137 H   0  0  0  0  0  0  0  0  0  0  0  0
   -4.1194   -3.0895    0.2614 H   0  0  0  0  0  0  0  0  0  0  0  0
   -2.3511   -2.4444    1.3036 C   0  0  0  0  0  0  0  0  0  0  0  0
   -1.3897   -3.0816    1.7035 O   0  0  0  0  0  0  0  0  0  0  0  0
   -2.1706   -1.1441    0.8777 N   0  0  0  0  0  0  0  0  0  0  0  0
   -3.0025   -0.6105    0.6264 H   0  0  0  0  0  0  0  0  0  0  0  0
   -0.8919   -0.4222    0.9584 C   0  0  1  0  0  0  0  0  0  0  0  0
   -0.2186   -0.9101    1.6711 H   0  0  0  0  0  0  0  0  0  0  0  0
   -0.2446   -0.4987   -0.4558 C   0  0  0  0  0  0  0  0  0  0  0  0
    0.5137   -1.2889   -0.4464 H   0  0  0  0  0  0  0  0  0  0  0  0
   -1.0129   -0.8175   -1.1694 H   0  0  0  0  0  0  0  0  0  0  0  0
    0.3657    0.7908   -1.0394 C   0  0  0  0  0  0  0  0  0  0  0  0
    0.5316    0.6282   -2.1103 H   0  0  0  0  0  0  0  0  0  0  0  0
   -0.3443    1.6204   -0.9571 H   0  0  0  0  0  0  0  0  0  0  0  0
    1.7082    1.1566   -0.3929 C   0  0  0  0  0  0  0  0  0  0  0  0
    1.5978    1.2434    0.6909 H   0  0  0  0  0  0  0  0  0  0  0  0
    2.4342    0.3611   -0.5946 H   0  0  0  0  0  0  0  0  0  0  0  0
    2.2006    2.4820   -0.9695 C   0  0  0  0  0  0  0  0  0  0  0  0
    2.2636    2.3981   -2.0644 H   0  0  0  0  0  0  0  0  0  0  0  0
    1.4613    3.2664   -0.7479 H   0  0  0  0  0  0  0  0  0  0  0  0
    3.5190    2.8109   -0.3856 N   0  3  0  0  0  0  0  0  0  0  0  0
    4.1926    2.0751   -0.6076 H   0  0  0  0  0  0  0  0  0  0  0  0
    3.8593    3.6971   -0.7655 H   0  0  0  0  0  0  0  0  0  0  0  0
    3.4404    2.8941    0.6294 H   0  0  0  0  0  0  0  0  0  0  0  0
   -1.1527    0.9988    1.5042 C   0  0  0  0  0  0  0  0  0  0  0  0
   -2.0288    1.6956    1.0086 O   0  0  0  0  0  0  0  0  0  0  0  0
   -0.3399    1.5351    2.4885 N   0  0  0  0  0  0  0  0  0  0  0  0
    0.2080    0.8621    3.0197 H   0  0  0  0  0  0  0  0  0  0  0  0
   -0.6582    2.8053    3.1360 C   0  0  0  0  0  0  0  0  0  0  0  0
   -1.6239    2.7424    3.6500 H   0  0  0  0  0  0  0  0  0  0  0  0
    0.1097    3.0592    3.8734 H   0  0  0  0  0  0  0  0  0  0  0  0
   -0.7074    3.6140    2.3988 H   0  0  0  0  0  0  0  0  0  0  0  0
  1  2  1  0  0  0  0
  2  3  1  0  0  0  0
  2  4  1  0  0  0  0
  2  5  1  0  0  0  0
  5  6  2  0  0  0  0
  5  7  1  0  0  0  0
  7  8  1  0  0  0  0
  7  9  1  0  0  0  0
  9 10  1  0  0  0  0
  9 11  1  0  0  0  0
  9 27  1  0  0  0  0
 11 12  1  0  0  0  0
 11 13  1  0  0  0  0
 11 14  1  0  0  0  0
 14 15  1  0  0  0  0
 14 16  1  0  0  0  0
 14 17  1  0  0  0  0
 17 18  1  0  0  0  0
 17 19  1  0  0  0  0
 17 20  1  0  0  0  0
 20 21  1  0  0  0  0
 20 22  1  0  0  0  0
 20 23  1  0  0  0  0
 23 24  1  0  0  0  0
 23 25  1  0  0  0  0
 23 26  1  0  0  0  0
 27 28  2  0  0  0  0
 27 29  1  0  0  0  0
 29 30  1  0  0  0  0
 29 31  1  0  0  0  0
 31 32  1  0  0  0  0
 31 33  1  0  0  0  0
 31 34  1  0  0  0  0
M  CHG  1  23   1
M  END
$$$$

  -OEChem-02102214153D

 34 33  0     1  0  0  0  0  0999 V2000
   -3.6495   -4.1016    1.6997 H   0  0  0  0  0  0  0  0  0  0  0  0
   -3.7137   -3.0793    1.3162 C   0  0  0  0  0  0  0  0  0  0  0  0
   -4.3728   -2.5009    1.9682 H   0  0  0  0  0  0  0  0  0  0  0  0
   -4.1398   -3.1072    0.3104 H   0  0  0  0  0  0  0  0  0  0  0  0
   -2.3351   -2.4480    1.2794 C   0  0  0  0  0  0  0  0  0  0  0  0
   -1.3538   -3.0856    1.6274 O   0  0  0  0  0  0  0  0  0  0  0  0
   -2.1788   -1.1428    0.8589 N   0  0  0  0  0  0  0  0  0  0  0  0
   -3.0248   -0.6092    0.6597 H   0  0  0  0  0  0  0  0  0  0  0  0
   -0.9083   -0.4050    0.9229 C   0  0  1  0  0  0  0  0  0  0  0  0
   -0.2335   -0.8893    1.6363 H   0  0  0  0  0  0  0  0  0  0  0  0
   -0.2420   -0.4824   -0.4809 C   0  0  0  0  0  0  0  0  0  0  0  0
    0.5177   -1.2711   -0.4684 H   0  0  0  0  0  0  0  0  0  0  0  0
   -1.0072   -0.8079   -1.1950 H   0  0  0  0  0  0  0  0  0  0  0  0
    0.3525    0.8183   -1.0632 C   0  0  0  0  0  0  0  0  0  0  0  0
    0.3096    0.7392   -2.1556 H   0  0  0  0  0  0  0  0  0  0  0  0
   -0.2420    1.6977   -0.8000 H   0  0  0  0  0  0  0  0  0  0  0  0
    1.8203    0.9996   -0.6620 C   0  0  0  0  0  0  0  0  0  0  0  0
    1.8985    1.0346    0.4299 H   0  0  0  0  0  0  0  0  0  0  0  0
    2.4059    0.1452   -1.0194 H   0  0  0  0  0  0  0  0  0  0  0  0
    2.3571    2.2951   -1.2661 C   0  0  0  0  0  0  0  0  0  0  0  0
    2.2223    2.2670   -2.3574 H   0  0  0  0  0  0  0  0  0  0  0  0
    1.7628    3.1410   -0.8893 H   0  0  0  0  0  0  0  0  0  0  0  0
    3.7852    2.4442   -0.9113 N   0  3  0  0  0  0  0  0  0  0  0  0
    4.3207    1.6558   -1.2803 H   0  0  0  0  0  0  0  0  0  0  0  0
    4.1563    3.3107   -1.3072 H   0  0  0  0  0  0  0  0  0  0  0  0
    3.8921    2.4715    0.1042 H   0  0  0  0  0  0  0  0  0  0  0  0
   -1.1549    1.0129    1.4794 C   0  0  0  0  0  0  0  0  0  0  0  0
   -2.0634    1.6985    1.0286 O   0  0  0  0  0  0  0  0  0  0  0  0
   -0.3178    1.5425    2.4462 N   0  0  0  0  0  0  0  0  0  0  0  0
    0.2650    0.8737    2.9437 H   0  0  0  0  0  0  0  0  0  0  0  0
   -0.6181    2.8066    3.1133 C   0  0  0  0  0  0  0  0  0  0  0  0
   -1.5649    2.7358    3.6600 H   0  0  0  0  0  0  0  0  0  0  0  0
    0.1739    3.0591    3.8251 H   0  0  0  0  0  0  0  0  0  0  0  0
   -0.6965    3.6200    2.3840 H   0  0  0  0  0  0  0  0  0  0  0  0
  1  2  1  0  0  0  0
  2  3  1  0  0  0  0
  2  4  1  0  0  0  0
  2  5  1  0  0  0  0
  5  6  2  0  0  0  0
  5  7  1  0  0  0  0
  7  8  1  0  0  0  0
  7  9  1  0  0  0  0
  9 10  1  0  0  0  0
  9 11  1  0  0  0  0
  9 27  1  0  0  0  0
 11 12  1  0  0  0  0
 11 13  1  0  0  0  0
 11 14  1  0  0  0  0
 14 15  1  0  0  0  0
 14 16  1  0  0  0  0
 14 17  1  0  0  0  0
 17 18  1  0  0  0  0
 17 19  1  0  0  0  0
 17 20  1  0  0  0  0
 20 21  1  0  0  0  0
 20 22  1  0  0  0  0
 20 23  1  0  0  0  0
 23 24  1  0  0  0  0
 23 25  1  0  0  0  0
 23 26  1  0  0  0  0
 27 28  2  0  0  0  0
 27 29  1  0  0  0  0
 29 30  1  0  0  0  0
 29 31  1  0  0  0  0
 31 32  1  0  0  0  0
 31 33  1  0  0  0  0
 31 34  1  0  0  0  0
M  CHG  1  23   1
M  END
$$$$

  -OEChem-02102214153D

 34 33  0     1  0  0  0  0  0999 V2000
   -3.6224   -4.1070    1.6922 H   0  0  0  0  0  0  0  0  0  0  0  0
   -3.6936   -3.0823    1.3166 C   0  0  0  0  0  0  0  0  0  0  0  0
   -4.3481   -2.5108    1.9792 H   0  0  0  0  0  0  0  0  0  0  0  0
   -4.1299   -3.1045    0.3152 H   0  0  0  0  0  0  0  0  0  0  0  0
   -2.3174   -2.4462    1.2697 C   0  0  0  0  0  0  0  0  0  0  0  0
   -1.3295   -3.0860    1.5941 O   0  0  0  0  0  0  0  0  0  0  0  0
   -2.1696   -1.1366    0.8597 N   0  0  0  0  0  0  0  0  0  0  0  0
   -3.0199   -0.6015    0.6828 H   0  0  0  0  0  0  0  0  0  0  0  0
   -0.9016   -0.3937    0.9248 C   0  0  1  0  0  0  0  0  0  0  0  0
   -0.2200   -0.8782    1.6321 H   0  0  0  0  0  0  0  0  0  0  0  0
   -0.2422   -0.4535   -0.4842 C   0  0  0  0  0  0  0  0  0  0  0  0
    0.5126   -1.2470   -0.4776 H   0  0  0  0  0  0  0  0  0  0  0  0
   -1.0111   -0.7774   -1.1950 H   0  0  0  0  0  0  0  0  0  0  0  0
    0.3523    0.8490   -1.0746 C   0  0  0  0  0  0  0  0  0  0  0  0
    0.0567    0.9018   -2.1287 H   0  0  0  0  0  0  0  0  0  0  0  0
   -0.0462    1.7503   -0.6035 H   0  0  0  0  0  0  0  0  0  0  0  0
    1.8839    0.8448   -1.0066 C   0  0  0  0  0  0  0  0  0  0  0  0
    2.1997    0.7617    0.0390 H   0  0  0  0  0  0  0  0  0  0  0  0
    2.2723   -0.0234   -1.5508 H   0  0  0  0  0  0  0  0  0  0  0  0
    2.4314    2.1328   -1.6185 C   0  0  0  0  0  0  0  0  0  0  0  0
    2.0644    2.2262   -2.6515 H   0  0  0  0  0  0  0  0  0  0  0  0
    2.0387    2.9940   -1.0577 H   0  0  0  0  0  0  0  0  0  0  0  0
    3.9099    2.1000   -1.5816 N   0  3  0  0  0  0  0  0  0  0  0  0
    4.2546    1.3012   -2.1180 H   0  0  0  0  0  0  0  0  0  0  0  0
    4.2904    2.9589   -1.9854 H   0  0  0  0  0  0  0  0  0  0  0  0
    4.2341    2.0155   -0.6164 H   0  0  0  0  0  0  0  0  0  0  0  0
   -1.1673    1.0148    1.4958 C   0  0  0  0  0  0  0  0  0  0  0  0
   -2.0858    1.6896    1.0483 O   0  0  0  0  0  0  0  0  0  0  0  0
   -0.3393    1.5494    2.4669 N   0  0  0  0  0  0  0  0  0  0  0  0
    0.2766    0.8963    2.9446 H   0  0  0  0  0  0  0  0  0  0  0  0
   -0.6435    2.8128    3.1333 C   0  0  0  0  0  0  0  0  0  0  0  0
   -1.5947    2.7426    3.6722 H   0  0  0  0  0  0  0  0  0  0  0  0
    0.1436    3.0629    3.8514 H   0  0  0  0  0  0  0  0  0  0  0  0
   -0.7148    3.6276    2.4047 H   0  0  0  0  0  0  0  0  0  0  0  0
  1  2  1  0  0  0  0
  2  3  1  0  0  0  0
  2  4  1  0  0  0  0
  2  5  1  0  0  0  0
  5  6  2  0  0  0  0
  5  7  1  0  0  0  0
  7  8  1  0  0  0  0
  7  9  1  0  0  0  0
  9 10  1  0  0  0  0
  9 11  1  0  0  0  0
  9 27  1  0  0  0  0
 11 12  1  0  0  0  0
 11 13  1  0  0  0  0
 11 14  1  0  0  0  0
 14 15  1  0  0  0  0
 14 16  1  0  0  0  0
 14 17  1  0  0  0  0
 17 18  1  0  0  0  0
 17 19  1  0  0  0  0
 17 20  1  0  0  0  0
 20 21  1  0  0  0  0
 20 22  1  0  0  0  0
 20 23  1  0  0  0  0
 23 24  1  0  0  0  0
 23 25  1  0  0  0  0
 23 26  1  0  0  0  0
 27 28  2  0  0  0  0
 27 29  1  0  0  0  0
 29 30  1  0  0  0  0
 29 31  1  0  0  0  0
 31 32  1  0  0  0  0
 31 33  1  0  0  0  0
 31 34  1  0  0  0  0
M  CHG  1  23   1
M  END
$$$$

  -OEChem-02102214153D

 34 33  0     1  0  0  0  0  0999 V2000
   -3.6168   -4.1004    1.6767 H   0  0  0  0  0  0  0  0  0  0  0  0
   -3.6828   -3.0733    1.3062 C   0  0  0  0  0  0  0  0  0  0  0  0
   -4.3325   -2.5010    1.9730 H   0  0  0  0  0  0  0  0  0  0  0  0
   -4.1211   -3.0877    0.3053 H   0  0  0  0  0  0  0  0  0  0  0  0
   -2.3031   -2.4448    1.2599 C   0  0  0  0  0  0  0  0  0  0  0  0
   -1.3178   -3.0914    1.5785 O   0  0  0  0  0  0  0  0  0  0  0  0
   -2.1505   -1.1337    0.8572 N   0  0  0  0  0  0  0  0  0  0  0  0
   -2.9987   -0.5942    0.6848 H   0  0  0  0  0  0  0  0  0  0  0  0
   -0.8813   -0.3940    0.9312 C   0  0  1  0  0  0  0  0  0  0  0  0
   -0.1950   -0.8823    1.6314 H   0  0  0  0  0  0  0  0  0  0  0  0
   -0.2383   -0.4334   -0.4866 C   0  0  0  0  0  0  0  0  0  0  0  0
    0.5232   -1.2204   -0.4780 H   0  0  0  0  0  0  0  0  0  0  0  0
   -1.0010   -0.7638   -1.2011 H   0  0  0  0  0  0  0  0  0  0  0  0
    0.3570    0.8756   -1.0675 C   0  0  0  0  0  0  0  0  0  0  0  0
   -0.1774    1.1153   -1.9940 H   0  0  0  0  0  0  0  0  0  0  0  0
    0.2250    1.7303   -0.4009 H   0  0  0  0  0  0  0  0  0  0  0  0
    1.8532    0.7190   -1.3661 C   0  0  0  0  0  0  0  0  0  0  0  0
    2.3871    0.4891   -0.4373 H   0  0  0  0  0  0  0  0  0  0  0  0
    1.9992   -0.1164   -2.0600 H   0  0  0  0  0  0  0  0  0  0  0  0
    2.3987    2.0071   -1.9801 C   0  0  0  0  0  0  0  0  0  0  0  0
    1.8213    2.2477   -2.8852 H   0  0  0  0  0  0  0  0  0  0  0  0
    2.2499    2.8362   -1.2725 H   0  0  0  0  0  0  0  0  0  0  0  0
    3.8321    1.8258   -2.2977 N   0  3  0  0  0  0  0  0  0  0  0  0
    3.9476    1.0596   -2.9641 H   0  0  0  0  0  0  0  0  0  0  0  0
    4.2119    2.6817   -2.7084 H   0  0  0  0  0  0  0  0  0  0  0  0
    4.3541    1.6064   -1.4473 H   0  0  0  0  0  0  0  0  0  0  0  0
   -1.1652    1.0081    1.5098 C   0  0  0  0  0  0  0  0  0  0  0  0
   -2.0730    1.6840    1.0423 O   0  0  0  0  0  0  0  0  0  0  0  0
   -0.3518    1.5448    2.4917 N   0  0  0  0  0  0  0  0  0  0  0  0
    0.2726    0.8995    2.9689 H   0  0  0  0  0  0  0  0  0  0  0  0
   -0.6572    2.8137    3.1465 C   0  0  0  0  0  0  0  0  0  0  0  0
   -1.6201    2.7547    3.6655 H   0  0  0  0  0  0  0  0  0  0  0  0
    0.1167    3.0589    3.8805 H   0  0  0  0  0  0  0  0  0  0  0  0
   -0.7044    3.6258    2.4131 H   0  0  0  0  0  0  0  0  0  0  0  0
  1  2  1  0  0  0  0
  2  3  1  0  0  0  0
  2  4  1  0  0  0  0
  2  5  1  0  0  0  0
  5  6  2  0  0  0  0
  5  7  1  0  0  0  0
  7  8  1  0  0  0  0
  7  9  1  0  0  0  0
  9 10  1  0  0  0  0
  9 11  1  0  0  0  0
  9 27  1  0  0  0  0
 11 12  1  0  0  0  0
 11 13  1  0  0  0  0
 11 14  1  0  0  0  0
 14 15  1  0  0  0  0
 14 16  1  0  0  0  0
 14 17  1  0  0  0  0
 17 18  1  0  0  0  0
 17 19  1  0  0  0  0
 17 20  1  0  0  0  0
 20 21  1  0  0  0  0
 20 22  1  0  0  0  0
 20 23  1  0  0  0  0
 23 24  1  0  0  0  0
 23 25  1  0  0  0  0
 23 26  1  0  0  0  0
 27 28  2  0  0  0  0
 27 29  1  0  0  0  0
 29 30  1  0  0  0  0
 29 31  1  0  0  0  0
 31 32  1  0  0  0  0
 31 33  1  0  0  0  0
 31 34  1  0  0  0  0
M  CHG  1  23   1
M  END
$$$$

  -OEChem-02102214153D

 34 33  0     1  0  0  0  0  0999 V2000
   -3.6381   -4.0866    1.6718 H   0  0  0  0  0  0  0  0  0  0  0  0
   -3.6933   -3.0592    1.3005 C   0  0  0  0  0  0  0  0  0  0  0  0
   -4.3381   -2.4798    1.9658 H   0  0  0  0  0  0  0  0  0  0  0  0
   -4.1302   -3.0700    0.2991 H   0  0  0  0  0  0  0  0  0  0  0  0
   -2.3073   -2.4450    1.2553 C   0  0  0  0  0  0  0  0  0  0  0  0
   -1.3292   -3.1024    1.5733 O   0  0  0  0  0  0  0  0  0  0  0  0
   -2.1403   -1.1373    0.8482 N   0  0  0  0  0  0  0  0  0  0  0  0
   -2.9831   -0.5885    0.6781 H   0  0  0  0  0  0  0  0  0  0  0  0
   -0.8640   -0.4103    0.9253 C   0  0  1  0  0  0  0  0  0  0  0  0
   -0.1776   -0.9037    1.6221 H   0  0  0  0  0  0  0  0  0  0  0  0
   -0.2348   -0.4418   -0.4973 C   0  0  0  0  0  0  0  0  0  0  0  0
    0.5377   -1.2178   -0.4795 H   0  0  0  0  0  0  0  0  0  0  0  0
   -0.9868   -0.7776   -1.2201 H   0  0  0  0  0  0  0  0  0  0  0  0
    0.3629    0.8751   -1.0506 C   0  0  0  0  0  0  0  0  0  0  0  0
   -0.3418    1.3125   -1.7673 H   0  0  0  0  0  0  0  0  0  0  0  0
    0.5187    1.6104   -0.2571 H   0  0  0  0  0  0  0  0  0  0  0  0
    1.7275    0.6297   -1.7060 C   0  0  0  0  0  0  0  0  0  0  0  0
    2.4299    0.2454   -0.9581 H   0  0  0  0  0  0  0  0  0  0  0  0
    1.6192   -0.1255   -2.4926 H   0  0  0  0  0  0  0  0  0  0  0  0
    2.2563    1.9320   -2.3036 C   0  0  0  0  0  0  0  0  0  0  0  0
    1.5186    2.3252   -3.0188 H   0  0  0  0  0  0  0  0  0  0  0  0
    2.3612    2.6801   -1.5039 H   0  0  0  0  0  0  0  0  0  0  0  0
    3.5528    1.6727   -2.9668 N   0  3  0  0  0  0  0  0  0  0  0  0
    3.4318    0.9833   -3.7115 H   0  0  0  0  0  0  0  0  0  0  0  0
    3.9193    2.5369   -3.3721 H   0  0  0  0  0  0  0  0  0  0  0  0
    4.2269    1.3125   -2.2887 H   0  0  0  0  0  0  0  0  0  0  0  0
   -1.1440    0.9957    1.4979 C   0  0  0  0  0  0  0  0  0  0  0  0
   -2.0362    1.6798    1.0119 O   0  0  0  0  0  0  0  0  0  0  0  0
   -0.3350    1.5319    2.4835 N   0  0  0  0  0  0  0  0  0  0  0  0
    0.2888    0.8887    2.9645 H   0  0  0  0  0  0  0  0  0  0  0  0
   -0.6230    2.8148    3.1185 C   0  0  0  0  0  0  0  0  0  0  0  0
   -1.5926    2.7816    3.6273 H   0  0  0  0  0  0  0  0  0  0  0  0
    0.1478    3.0541    3.8577 H   0  0  0  0  0  0  0  0  0  0  0  0
   -0.6453    3.6182    2.3743 H   0  0  0  0  0  0  0  0  0  0  0  0
  1  2  1  0  0  0  0
  2  3  1  0  0  0  0
  2  4  1  0  0  0  0
  2  5  1  0  0  0  0
  5  6  2  0  0  0  0
  5  7  1  0  0  0  0
  7  8  1  0  0  0  0
  7  9  1  0  0  0  0
  9 10  1  0  0  0  0
  9 11  1  0  0  0  0
  9 27  1  0  0  0  0
 11 12  1  0  0  0  0
 11 13  1  0  0  0  0
 11 14  1  0  0  0  0
 14 15  1  0  0  0  0
 14 16  1  0  0  0  0
 14 17  1  0  0  0  0
 17 18  1  0  0  0  0
 17 19  1  0  0  0  0
 17 20  1  0  0  0  0
 20 21  1  0  0  0  0
 20 22  1  0  0  0  0
 20 23  1  0  0  0  0
 23 24  1  0  0  0  0
 23 25  1  0  0  0  0
 23 26  1  0  0  0  0
 27 28  2  0  0  0  0
 27 29  1  0  0  0  0
 29 30  1  0  0  0  0
 29 31  1  0  0  0  0
 31 32  1  0  0  0  0
 31 33  1  0  0  0  0
 31 34  1  0  0  0  0
M  CHG  1  23   1
M  END
$$$$

  -OEChem-02102214153D

 34 33  0     1  0  0  0  0  0999 V2000
   -3.6619   -4.0670    1.7222 H   0  0  0  0  0  0  0  0  0  0  0  0
   -3.7099   -3.0495    1.3237 C   0  0  0  0  0  0  0  0  0  0  0  0
   -4.3436   -2.4461    1.9782 H   0  0  0  0  0  0  0  0  0  0  0  0
   -4.1541   -3.0829    0.3261 H   0  0  0  0  0  0  0  0  0  0  0  0
   -2.3189   -2.4498    1.2526 C   0  0  0  0  0  0  0  0  0  0  0  0
   -1.3434   -3.1153    1.5614 O   0  0  0  0  0  0  0  0  0  0  0  0
   -2.1454   -1.1464    0.8341 N   0  0  0  0  0  0  0  0  0  0  0  0
   -2.9853   -0.5908    0.6720 H   0  0  0  0  0  0  0  0  0  0  0  0
   -0.8632   -0.4294    0.9009 C   0  0  1  0  0  0  0  0  0  0  0  0
   -0.1775   -0.9252    1.5966 H   0  0  0  0  0  0  0  0  0  0  0  0
   -0.2416   -0.4664   -0.5224 C   0  0  0  0  0  0  0  0  0  0  0  0
    0.5376   -1.2357   -0.5038 H   0  0  0  0  0  0  0  0  0  0  0  0
   -0.9923   -0.7987   -1.2483 H   0  0  0  0  0  0  0  0  0  0  0  0
    0.3522    0.8577   -1.0483 C   0  0  0  0  0  0  0  0  0  0  0  0
   -0.4395    1.4436   -1.5301 H   0  0  0  0  0  0  0  0  0  0  0  0
    0.7539    1.4523   -0.2218 H   0  0  0  0  0  0  0  0  0  0  0  0
    1.5103    0.5909   -2.0166 C   0  0  0  0  0  0  0  0  0  0  0  0
    2.3126    0.0594   -1.4928 H   0  0  0  0  0  0  0  0  0  0  0  0
    1.1563   -0.0464   -2.8347 H   0  0  0  0  0  0  0  0  0  0  0  0
    2.0325    1.9122   -2.5756 C   0  0  0  0  0  0  0  0  0  0  0  0
    1.2059    2.4462   -3.0674 H   0  0  0  0  0  0  0  0  0  0  0  0
    2.3776    2.5458   -1.7452 H   0  0  0  0  0  0  0  0  0  0  0  0
    3.1291    1.6358   -3.5288 N   0  3  0  0  0  0  0  0  0  0  0  0
    2.7841    1.0604   -4.2997 H   0  0  0  0  0  0  0  0  0  0  0  0
    3.4946    2.5122   -3.9076 H   0  0  0  0  0  0  0  0  0  0  0  0
    3.8858    1.1373   -3.0568 H   0  0  0  0  0  0  0  0  0  0  0  0
   -1.1200    0.9857    1.4631 C   0  0  0  0  0  0  0  0  0  0  0  0
   -2.0095    1.6759    0.9804 O   0  0  0  0  0  0  0  0  0  0  0  0
   -0.2974    1.5188    2.4392 N   0  0  0  0  0  0  0  0  0  0  0  0
    0.3289    0.8742    2.9151 H   0  0  0  0  0  0  0  0  0  0  0  0
   -0.5582    2.8125    3.0634 C   0  0  0  0  0  0  0  0  0  0  0  0
   -1.5306    2.8062    3.5678 H   0  0  0  0  0  0  0  0  0  0  0  0
    0.2141    3.0389    3.8051 H   0  0  0  0  0  0  0  0  0  0  0  0
   -0.5580    3.6102    2.3131 H   0  0  0  0  0  0  0  0  0  0  0  0
  1  2  1  0  0  0  0
  2  3  1  0  0  0  0
  2  4  1  0  0  0  0
  2  5  1  0  0  0  0
  5  6  2  0  0  0  0
  5  7  1  0  0  0  0
  7  8  1  0  0  0  0
  7  9  1  0  0  0  0
  9 10  1  0  0  0  0
  9 11  1  0  0  0  0
  9 27  1  0  0  0  0
 11 12  1  0  0  0  0
 11 13  1  0  0  0  0
 11 14  1  0  0  0  0
 14 15  1  0  0  0  0
 14 16  1  0  0  0  0
 14 17  1  0  0  0  0
 17 18  1  0  0  0  0
 17 19  1  0  0  0  0
 17 20  1  0  0  0  0
 20 21  1  0  0  0  0
 20 22  1  0  0  0  0
 20 23  1  0  0  0  0
 23 24  1  0  0  0  0
 23 25  1  0  0  0  0
 23 26  1  0  0  0  0
 27 28  2  0  0  0  0
 27 29  1  0  0  0  0
 29 30  1  0  0  0  0
 29 31  1  0  0  0  0
 31 32  1  0  0  0  0
 31 33  1  0  0  0  0
 31 34  1  0  0  0  0
M  CHG  1  23   1
M  END
$$$$

  -OEChem-02102214153D

 34 33  0     1  0  0  0  0  0999 V2000
   -3.6763   -4.0541    1.7595 H   0  0  0  0  0  0  0  0  0  0  0  0
   -3.7255   -3.0416    1.3487 C   0  0  0  0  0  0  0  0  0  0  0  0
   -4.3447   -2.4266    2.0064 H   0  0  0  0  0  0  0  0  0  0  0  0
   -4.1871   -3.0856    0.3593 H   0  0  0  0  0  0  0  0  0  0  0  0
   -2.3317   -2.4522    1.2460 C   0  0  0  0  0  0  0  0  0  0  0  0
   -1.3549   -3.1250    1.5338 O   0  0  0  0  0  0  0  0  0  0  0  0
   -2.1569   -1.1507    0.8217 N   0  0  0  0  0  0  0  0  0  0  0  0
   -2.9968   -0.5892    0.6829 H   0  0  0  0  0  0  0  0  0  0  0  0
   -0.8716   -0.4376    0.8782 C   0  0  1  0  0  0  0  0  0  0  0  0
   -0.1882   -0.9359    1.5745 H   0  0  0  0  0  0  0  0  0  0  0  0
   -0.2460   -0.4854   -0.5415 C   0  0  0  0  0  0  0  0  0  0  0  0
    0.5369   -1.2511   -0.5261 H   0  0  0  0  0  0  0  0  0  0  0  0
   -0.9995   -0.8157   -1.2654 H   0  0  0  0  0  0  0  0  0  0  0  0
    0.3438    0.8420   -1.0534 C   0  0  0  0  0  0  0  0  0  0  0  0
   -0.4722    1.5272   -1.3123 H   0  0  0  0  0  0  0  0  0  0  0  0
    0.9453    1.3108   -0.2669 H   0  0  0  0  0  0  0  0  0  0  0  0
    1.2415    0.6001   -2.2716 C   0  0  0  0  0  0  0  0  0  0  0  0
    2.0835   -0.0401   -1.9856 H   0  0  0  0  0  0  0  0  0  0  0  0
    0.6665    0.0800   -3.0461 H   0  0  0  0  0  0  0  0  0  0  0  0
    1.7551    1.9332   -2.8107 C   0  0  0  0  0  0  0  0  0  0  0  0
    0.8978    2.5785   -3.0544 H   0  0  0  0  0  0  0  0  0  0  0  0
    2.3305    2.4436   -2.0244 H   0  0  0  0  0  0  0  0  0  0  0  0
    2.5891    1.6825   -4.0063 N   0  3  0  0  0  0  0  0  0  0  0  0
    2.0330    1.2199   -4.7283 H   0  0  0  0  0  0  0  0  0  0  0  0
    2.9455    2.5658   -4.3780 H   0  0  0  0  0  0  0  0  0  0  0  0
    3.3792    1.0824   -3.7619 H   0  0  0  0  0  0  0  0  0  0  0  0
   -1.1047    0.9840    1.4357 C   0  0  0  0  0  0  0  0  0  0  0  0
   -2.0030    1.6758    0.9717 O   0  0  0  0  0  0  0  0  0  0  0  0
   -0.2667    1.5127    2.4008 N   0  0  0  0  0  0  0  0  0  0  0  0
    0.3703    0.8678    2.8621 H   0  0  0  0  0  0  0  0  0  0  0  0
   -0.5140    2.8059    3.0315 C   0  0  0  0  0  0  0  0  0  0  0  0
   -1.4797    2.8028    3.5485 H   0  0  0  0  0  0  0  0  0  0  0  0
    0.2686    3.0273    3.7639 H   0  0  0  0  0  0  0  0  0  0  0  0
   -0.5199    3.6051    2.2829 H   0  0  0  0  0  0  0  0  0  0  0  0
  1  2  1  0  0  0  0
  2  3  1  0  0  0  0
  2  4  1  0  0  0  0
  2  5  1  0  0  0  0
  5  6  2  0  0  0  0
  5  7  1  0  0  0  0
  7  8  1  0  0  0  0
  7  9  1  0  0  0  0
  9 10  1  0  0  0  0
  9 11  1  0  0  0  0
  9 27  1  0  0  0  0
 11 12  1  0  0  0  0
 11 13  1  0  0  0  0
 11 14  1  0  0  0  0
 14 15  1  0  0  0  0
 14 16  1  0  0  0  0
 14 17  1  0  0  0  0
 17 18  1  0  0  0  0
 17 19  1  0  0  0  0
 17 20  1  0  0  0  0
 20 21  1  0  0  0  0
 20 22  1  0  0  0  0
 20 23  1  0  0  0  0
 23 24  1  0  0  0  0
 23 25  1  0  0  0  0
 23 26  1  0  0  0  0
 27 28  2  0  0  0  0
 27 29  1  0  0  0  0
 29 30  1  0  0  0  0
 29 31  1  0  0  0  0
 31 32  1  0  0  0  0
 31 33  1  0  0  0  0
 31 34  1  0  0  0  0
M  CHG  1  23   1
M  END
$$$$

  -OEChem-02102214153D

 34 33  0     1  0  0  0  0  0999 V2000
   -3.6975   -4.0484    1.7633 H   0  0  0  0  0  0  0  0  0  0  0  0
   -3.7354   -3.0379    1.3459 C   0  0  0  0  0  0  0  0  0  0  0  0
   -4.3628   -2.4162    1.9892 H   0  0  0  0  0  0  0  0  0  0  0  0
   -4.1812   -3.0851    0.3496 H   0  0  0  0  0  0  0  0  0  0  0  0
   -2.3378   -2.4543    1.2624 C   0  0  0  0  0  0  0  0  0  0  0  0
   -1.3690   -3.1258    1.5787 O   0  0  0  0  0  0  0  0  0  0  0  0
   -2.1504   -1.1601    0.8215 N   0  0  0  0  0  0  0  0  0  0  0  0
   -2.9852   -0.5967    0.6609 H   0  0  0  0  0  0  0  0  0  0  0  0
   -0.8615   -0.4545    0.8810 C   0  0  1  0  0  0  0  0  0  0  0  0
   -0.1793   -0.9477    1.5819 H   0  0  0  0  0  0  0  0  0  0  0  0
   -0.2393   -0.5088   -0.5359 C   0  0  0  0  0  0  0  0  0  0  0  0
    0.3245   -1.4434   -0.6277 H   0  0  0  0  0  0  0  0  0  0  0  0
   -1.0502   -0.5441   -1.2721 H   0  0  0  0  0  0  0  0  0  0  0  0
    0.6636    0.6845   -0.8987 C   0  0  0  0  0  0  0  0  0  0  0  0
    0.0880    1.6160   -0.8538 H   0  0  0  0  0  0  0  0  0  0  0  0
    1.4855    0.7553   -0.1777 H   0  0  0  0  0  0  0  0  0  0  0  0
    1.2205    0.5207   -2.3174 C   0  0  0  0  0  0  0  0  0  0  0  0
    1.8346   -0.3855   -2.3655 H   0  0  0  0  0  0  0  0  0  0  0  0
    0.3891    0.4060   -3.0220 H   0  0  0  0  0  0  0  0  0  0  0  0
    2.0553    1.7418   -2.6962 C   0  0  0  0  0  0  0  0  0  0  0  0
    1.4362    2.6461   -2.5991 H   0  0  0  0  0  0  0  0  0  0  0  0
    2.8908    1.8433   -1.9881 H   0  0  0  0  0  0  0  0  0  0  0  0
    2.5451    1.5801   -4.0825 N   0  3  0  0  0  0  0  0  0  0  0  0
    1.7534    1.4949   -4.7233 H   0  0  0  0  0  0  0  0  0  0  0  0
    3.1059    2.3905   -4.3549 H   0  0  0  0  0  0  0  0  0  0  0  0
    3.1207    0.7388   -4.1540 H   0  0  0  0  0  0  0  0  0  0  0  0
   -1.0899    0.9754    1.4152 C   0  0  0  0  0  0  0  0  0  0  0  0
   -1.9698    1.6700    0.9216 O   0  0  0  0  0  0  0  0  0  0  0  0
   -0.2581    1.5122    2.3810 N   0  0  0  0  0  0  0  0  0  0  0  0
    0.3661    0.8691    2.8620 H   0  0  0  0  0  0  0  0  0  0  0  0
   -0.4938    2.8225    2.9799 C   0  0  0  0  0  0  0  0  0  0  0  0
   -1.4637    2.8429    3.4886 H   0  0  0  0  0  0  0  0  0  0  0  0
    0.2860    3.0507    3.7131 H   0  0  0  0  0  0  0  0  0  0  0  0
   -0.4836    3.6045    2.2133 H   0  0  0  0  0  0  0  0  0  0  0  0
  1  2  1  0  0  0  0
  2  3  1  0  0  0  0
  2  4  1  0  0  0  0
  2  5  1  0  0  0  0
  5  6  2  0  0  0  0
  5  7  1  0  0  0  0
  7  8  1  0  0  0  0
  7  9  1  0  0  0  0
  9 10  1  0  0  0  0
  9 11  1  0  0  0  0
  9 27  1  0  0  0  0
 11 12  1  0  0  0  0
 11 13  1  0  0  0  0
 11 14  1  0  0  0  0
 14 15  1  0  0  0  0
 14 16  1  0  0  0  0
 14 17  1  0  0  0  0
 17 18  1  0  0  0  0
 17 19  1  0  0  0  0
 17 20  1  0  0  0  0
 20 21  1  0  0  0  0
 20 22  1  0  0  0  0
 20 23  1  0  0  0  0
 23 24  1  0  0  0  0
 23 25  1  0  0  0  0
 23 26  1  0  0  0  0
 27 28  2  0  0  0  0
 27 29  1  0  0  0  0
 29 30  1  0  0  0  0
 29 31  1  0  0  0  0
 31 32  1  0  0  0  0
 31 33  1  0  0  0  0
 31 34  1  0  0  0  0
M  CHG  1  23   1
M  END
$$$$

  -OEChem-02102214153D

 34 33  0     1  0  0  0  0  0999 V2000
   -3.6923   -4.0461    1.7549 H   0  0  0  0  0  0  0  0  0  0  0  0
   -3.7316   -3.0346    1.3409 C   0  0  0  0  0  0  0  0  0  0  0  0
   -4.3578   -2.4154    1.9878 H   0  0  0  0  0  0  0  0  0  0  0  0
   -4.1792   -3.0791    0.3452 H   0  0  0  0  0  0  0  0  0  0  0  0
   -2.3346   -2.4504    1.2565 C   0  0  0  0  0  0  0  0  0  0  0  0
   -1.3644   -3.1255    1.5603 O   0  0  0  0  0  0  0  0  0  0  0  0
   -2.1498   -1.1521    0.8270 N   0  0  0  0  0  0  0  0  0  0  0  0
   -2.9859   -0.5873    0.6793 H   0  0  0  0  0  0  0  0  0  0  0  0
   -0.8607   -0.4461    0.8875 C   0  0  1  0  0  0  0  0  0  0  0  0
   -0.1768   -0.9438    1.5835 H   0  0  0  0  0  0  0  0  0  0  0  0
   -0.2405   -0.4969   -0.5325 C   0  0  0  0  0  0  0  0  0  0  0  0
    0.3129   -1.4360   -0.6415 H   0  0  0  0  0  0  0  0  0  0  0  0
   -1.0656   -0.5237   -1.2530 H   0  0  0  0  0  0  0  0  0  0  0  0
    0.6682    0.6889   -0.9187 C   0  0  0  0  0  0  0  0  0  0  0  0
    0.1982    1.6402   -0.6505 H   0  0  0  0  0  0  0  0  0  0  0  0
    1.6164    0.6151   -0.3749 H   0  0  0  0  0  0  0  0  0  0  0  0
    0.9091    0.7063   -2.4333 C   0  0  0  0  0  0  0  0  0  0  0  0
    1.4135   -0.2193   -2.7326 H   0  0  0  0  0  0  0  0  0  0  0  0
   -0.0544    0.7528   -2.9534 H   0  0  0  0  0  0  0  0  0  0  0  0
    1.7581    1.9163   -2.8147 C   0  0  0  0  0  0  0  0  0  0  0  0
    1.2597    2.8314   -2.4618 H   0  0  0  0  0  0  0  0  0  0  0  0
    2.7281    1.8564   -2.2996 H   0  0  0  0  0  0  0  0  0  0  0  0
    1.9310    1.9396   -4.2832 N   0  3  0  0  0  0  0  0  0  0  0  0
    1.0185    1.9969   -4.7400 H   0  0  0  0  0  0  0  0  0  0  0  0
    2.4907    2.7494   -4.5589 H   0  0  0  0  0  0  0  0  0  0  0  0
    2.4033    1.0882   -4.5933 H   0  0  0  0  0  0  0  0  0  0  0  0
   -1.0944    0.9767    1.4368 C   0  0  0  0  0  0  0  0  0  0  0  0
   -1.9749    1.6740    0.9469 O   0  0  0  0  0  0  0  0  0  0  0  0
   -0.2628    1.5084    2.4054 N   0  0  0  0  0  0  0  0  0  0  0  0
    0.3674    0.8646    2.8779 H   0  0  0  0  0  0  0  0  0  0  0  0
   -0.4980    2.8145    3.0134 C   0  0  0  0  0  0  0  0  0  0  0  0
   -1.4697    2.8334    3.5187 H   0  0  0  0  0  0  0  0  0  0  0  0
    0.2795    3.0356    3.7514 H   0  0  0  0  0  0  0  0  0  0  0  0
   -0.4832    3.6025    2.2529 H   0  0  0  0  0  0  0  0  0  0  0  0
  1  2  1  0  0  0  0
  2  3  1  0  0  0  0
  2  4  1  0  0  0  0
  2  5  1  0  0  0  0
  5  6  2  0  0  0  0
  5  7  1  0  0  0  0
  7  8  1  0  0  0  0
  7  9  1  0  0  0  0
  9 10  1  0  0  0  0
  9 11  1  0  0  0  0
  9 27  1  0  0  0  0
 11 12  1  0  0  0  0
 11 13  1  0  0  0  0
 11 14  1  0  0  0  0
 14 15  1  0  0  0  0
 14 16  1  0  0  0  0
 14 17  1  0  0  0  0
 17 18  1  0  0  0  0
 17 19  1  0  0  0  0
 17 20  1  0  0  0  0
 20 21  1  0  0  0  0
 20 22  1  0  0  0  0
 20 23  1  0  0  0  0
 23 24  1  0  0  0  0
 23 25  1  0  0  0  0
 23 26  1  0  0  0  0
 27 28  2  0  0  0  0
 27 29  1  0  0  0  0
 29 30  1  0  0  0  0
 29 31  1  0  0  0  0
 31 32  1  0  0  0  0
 31 33  1  0  0  0  0
 31 34  1  0  0  0  0
M  CHG  1  23   1
M  END
$$$$

  -OEChem-02102214153D

 34 33  0     1  0  0  0  0  0999 V2000
   -3.6970   -4.0445    1.7486 H   0  0  0  0  0  0  0  0  0  0  0  0
   -3.7329   -3.0306    1.3401 C   0  0  0  0  0  0  0  0  0  0  0  0
   -4.3628   -2.4143    1.9860 H   0  0  0  0  0  0  0  0  0  0  0  0
   -4.1736   -3.0693    0.3412 H   0  0  0  0  0  0  0  0  0  0  0  0
   -2.3348   -2.4477    1.2681 C   0  0  0  0  0  0  0  0  0  0  0  0
   -1.3678   -3.1228    1.5813 O   0  0  0  0  0  0  0  0  0  0  0  0
   -2.1463   -1.1494    0.8405 N   0  0  0  0  0  0  0  0  0  0  0  0
   -2.9805   -0.5841    0.6844 H   0  0  0  0  0  0  0  0  0  0  0  0
   -0.8543   -0.4476    0.8978 C   0  0  1  0  0  0  0  0  0  0  0  0
   -0.1661   -0.9465    1.5890 H   0  0  0  0  0  0  0  0  0  0  0  0
   -0.2458   -0.4960   -0.5292 C   0  0  0  0  0  0  0  0  0  0  0  0
    0.2965   -1.4401   -0.6507 H   0  0  0  0  0  0  0  0  0  0  0  0
   -1.0847   -0.5207   -1.2335 H   0  0  0  0  0  0  0  0  0  0  0  0
    0.6708    0.6809   -0.9410 C   0  0  0  0  0  0  0  0  0  0  0  0
    0.3737    1.6131   -0.4539 H   0  0  0  0  0  0  0  0  0  0  0  0
    1.6986    0.4616   -0.6314 H   0  0  0  0  0  0  0  0  0  0  0  0
    0.5972    0.9204   -2.4544 C   0  0  0  0  0  0  0  0  0  0  0  0
    0.9358    0.0228   -2.9839 H   0  0  0  0  0  0  0  0  0  0  0  0
   -0.4431    1.1132   -2.7399 H   0  0  0  0  0  0  0  0  0  0  0  0
    1.4622    2.1184   -2.8379 C   0  0  0  0  0  0  0  0  0  0  0  0
    1.1438    2.9933   -2.2516 H   0  0  0  0  0  0  0  0  0  0  0  0
    2.5091    1.9118   -2.5711 H   0  0  0  0  0  0  0  0  0  0  0  0
    1.3169    2.3721   -4.2876 N   0  3  0  0  0  0  0  0  0  0  0  0
    0.3368    2.5570   -4.5113 H   0  0  0  0  0  0  0  0  0  0  0  0
    1.8774    3.1819   -4.5613 H   0  0  0  0  0  0  0  0  0  0  0  0
    1.6296    1.5569   -4.8184 H   0  0  0  0  0  0  0  0  0  0  0  0
   -1.0951    0.9721    1.4515 C   0  0  0  0  0  0  0  0  0  0  0  0
   -1.9646    1.6746    0.9486 O   0  0  0  0  0  0  0  0  0  0  0  0
   -0.2657    1.5042    2.4215 N   0  0  0  0  0  0  0  0  0  0  0  0
    0.3662    0.8614    2.8930 H   0  0  0  0  0  0  0  0  0  0  0  0
   -0.5010    2.8106    3.0284 C   0  0  0  0  0  0  0  0  0  0  0  0
   -1.4771    2.8329    3.5248 H   0  0  0  0  0  0  0  0  0  0  0  0
    0.2701    3.0276    3.7741 H   0  0  0  0  0  0  0  0  0  0  0  0
   -0.4757    3.5987    2.2687 H   0  0  0  0  0  0  0  0  0  0  0  0
  1  2  1  0  0  0  0
  2  3  1  0  0  0  0
  2  4  1  0  0  0  0
  2  5  1  0  0  0  0
  5  6  2  0  0  0  0
  5  7  1  0  0  0  0
  7  8  1  0  0  0  0
  7  9  1  0  0  0  0
  9 10  1  0  0  0  0
  9 11  1  0  0  0  0
  9 27  1  0  0  0  0
 11 12  1  0  0  0  0
 11 13  1  0  0  0  0
 11 14  1  0  0  0  0
 14 15  1  0  0  0  0
 14 16  1  0  0  0  0
 14 17  1  0  0  0  0
 17 18  1  0  0  0  0
 17 19  1  0  0  0  0
 17 20  1  0  0  0  0
 20 21  1  0  0  0  0
 20 22  1  0  0  0  0
 20 23  1  0  0  0  0
 23 24  1  0  0  0  0
 23 25  1  0  0  0  0
 23 26  1  0  0  0  0
 27 28  2  0  0  0  0
 27 29  1  0  0  0  0
 29 30  1  0  0  0  0
 29 31  1  0  0  0  0
 31 32  1  0  0  0  0
 31 33  1  0  0  0  0
 31 34  1  0  0  0  0
M  CHG  1  23   1
M  END
$$$$

  -OEChem-02102214153D

 34 33  0     1  0  0  0  0  0999 V2000
   -3.7027   -4.0520    1.7481 H   0  0  0  0  0  0  0  0  0  0  0  0
   -3.7376   -3.0314    1.3563 C   0  0  0  0  0  0  0  0  0  0  0  0
   -4.3609   -2.4234    2.0166 H   0  0  0  0  0  0  0  0  0  0  0  0
   -4.1851   -3.0527    0.3598 H   0  0  0  0  0  0  0  0  0  0  0  0
   -2.3376   -2.4524    1.2850 C   0  0  0  0  0  0  0  0  0  0  0  0
   -1.3748   -3.1254    1.6144 O   0  0  0  0  0  0  0  0  0  0  0  0
   -2.1426   -1.1584    0.8467 N   0  0  0  0  0  0  0  0  0  0  0  0
   -2.9736   -0.5931    0.6763 H   0  0  0  0  0  0  0  0  0  0  0  0
   -0.8471   -0.4626    0.9017 C   0  0  1  0  0  0  0  0  0  0  0  0
   -0.1545   -0.9587    1.5908 H   0  0  0  0  0  0  0  0  0  0  0  0
   -0.2540   -0.5075   -0.5325 C   0  0  0  0  0  0  0  0  0  0  0  0
    0.2861   -1.4526   -0.6553 H   0  0  0  0  0  0  0  0  0  0  0  0
   -1.0974   -0.5407   -1.2313 H   0  0  0  0  0  0  0  0  0  0  0  0
    0.6686    0.6642   -0.9568 C   0  0  0  0  0  0  0  0  0  0  0  0
    0.6025    1.5137   -0.2738 H   0  0  0  0  0  0  0  0  0  0  0  0
    1.7080    0.3189   -0.9305 H   0  0  0  0  0  0  0  0  0  0  0  0
    0.3116    1.1546   -2.3660 C   0  0  0  0  0  0  0  0  0  0  0  0
    0.4412    0.3358   -3.0826 H   0  0  0  0  0  0  0  0  0  0  0  0
   -0.7415    1.4593   -2.3812 H   0  0  0  0  0  0  0  0  0  0  0  0
    1.1900    2.3406   -2.7551 C   0  0  0  0  0  0  0  0  0  0  0  0
    1.1048    3.1200   -1.9833 H   0  0  0  0  0  0  0  0  0  0  0  0
    2.2424    2.0224   -2.7819 H   0  0  0  0  0  0  0  0  0  0  0  0
    0.7474    2.8493   -4.0713 N   0  3  0  0  0  0  0  0  0  0  0  0
   -0.2296    3.1458   -4.0170 H   0  0  0  0  0  0  0  0  0  0  0  0
    1.3208    3.6475   -4.3524 H   0  0  0  0  0  0  0  0  0  0  0  0
    0.8313    2.1144   -4.7762 H   0  0  0  0  0  0  0  0  0  0  0  0
   -1.0964    0.9604    1.4441 C   0  0  0  0  0  0  0  0  0  0  0  0
   -1.9411    1.6692    0.9073 O   0  0  0  0  0  0  0  0  0  0  0  0
   -0.2736    1.4996    2.4157 N   0  0  0  0  0  0  0  0  0  0  0  0
    0.3390    0.8549    2.9102 H   0  0  0  0  0  0  0  0  0  0  0  0
   -0.5021    2.8178    2.9985 C   0  0  0  0  0  0  0  0  0  0  0  0
   -1.4771    2.8531    3.4962 H   0  0  0  0  0  0  0  0  0  0  0  0
    0.2721    3.0452    3.7381 H   0  0  0  0  0  0  0  0  0  0  0  0
   -0.4752    3.5919    2.2243 H   0  0  0  0  0  0  0  0  0  0  0  0
  1  2  1  0  0  0  0
  2  3  1  0  0  0  0
  2  4  1  0  0  0  0
  2  5  1  0  0  0  0
  5  6  2  0  0  0  0
  5  7  1  0  0  0  0
  7  8  1  0  0  0  0
  7  9  1  0  0  0  0
  9 10  1  0  0  0  0
  9 11  1  0  0  0  0
  9 27  1  0  0  0  0
 11 12  1  0  0  0  0
 11 13  1  0  0  0  0
 11 14  1  0  0  0  0
 14 15  1  0  0  0  0
 14 16  1  0  0  0  0
 14 17  1  0  0  0  0
 17 18  1  0  0  0  0
 17 19  1  0  0  0  0
 17 20  1  0  0  0  0
 20 21  1  0  0  0  0
 20 22  1  0  0  0  0
 20 23  1  0  0  0  0
 23 24  1  0  0  0  0
 23 25  1  0  0  0  0
 23 26  1  0  0  0  0
 27 28  2  0  0  0  0
 27 29  1  0  0  0  0
 29 30  1  0  0  0  0
 29 31  1  0  0  0  0
 31 32  1  0  0  0  0
 31 33  1  0  0  0  0
 31 34  1  0  0  0  0
M  CHG  1  23   1
M  END
$$$$

  -OEChem-02102214153D

 34 33  0     1  0  0  0  0  0999 V2000
   -3.7308   -4.0312    1.7874 H   0  0  0  0  0  0  0  0  0  0  0  0
   -3.7538   -3.0260    1.3564 C   0  0  0  0  0  0  0  0  0  0  0  0
   -4.4016   -2.3958    1.9706 H   0  0  0  0  0  0  0  0  0  0  0  0
   -4.1659   -3.0862    0.3463 H   0  0  0  0  0  0  0  0  0  0  0  0
   -2.3532   -2.4457    1.3121 C   0  0  0  0  0  0  0  0  0  0  0  0
   -1.3995   -3.1110    1.6803 O   0  0  0  0  0  0  0  0  0  0  0  0
   -2.1464   -1.1621    0.8482 N   0  0  0  0  0  0  0  0  0  0  0  0
   -2.9719   -0.6015    0.6415 H   0  0  0  0  0  0  0  0  0  0  0  0
   -0.8465   -0.4740    0.8951 C   0  0  1  0  0  0  0  0  0  0  0  0
   -0.1551   -0.9635    1.5898 H   0  0  0  0  0  0  0  0  0  0  0  0
   -0.2630   -0.5423   -0.5410 C   0  0  0  0  0  0  0  0  0  0  0  0
    0.2914   -1.4831   -0.6300 H   0  0  0  0  0  0  0  0  0  0  0  0
   -1.0945   -0.6084   -1.2517 H   0  0  0  0  0  0  0  0  0  0  0  0
    0.6625    0.6241   -0.9691 C   0  0  0  0  0  0  0  0  0  0  0  0
    0.8390    1.3353   -0.1586 H   0  0  0  0  0  0  0  0  0  0  0  0
    1.6420    0.2099   -1.2333 H   0  0  0  0  0  0  0  0  0  0  0  0
    0.0813    1.3496   -2.1896 C   0  0  0  0  0  0  0  0  0  0  0  0
    0.0527    0.6665   -3.0457 H   0  0  0  0  0  0  0  0  0  0  0  0
   -0.9470    1.6544   -1.9612 H   0  0  0  0  0  0  0  0  0  0  0  0
    0.9098    2.5850   -2.5257 C   0  0  0  0  0  0  0  0  0  0  0  0
    0.9936    3.2163   -1.6288 H   0  0  0  0  0  0  0  0  0  0  0  0
    1.9283    2.2789   -2.8059 H   0  0  0  0  0  0  0  0  0  0  0  0
    0.2406    3.3144   -3.6239 N   0  3  0  0  0  0  0  0  0  0  0  0
   -0.7070    3.5724   -3.3387 H   0  0  0  0  0  0  0  0  0  0  0  0
    0.7610    4.1636   -3.8530 H   0  0  0  0  0  0  0  0  0  0  0  0
    0.1861    2.7223   -4.4547 H   0  0  0  0  0  0  0  0  0  0  0  0
   -1.0810    0.9641    1.4066 C   0  0  0  0  0  0  0  0  0  0  0  0
   -1.8923    1.6845    0.8333 O   0  0  0  0  0  0  0  0  0  0  0  0
   -0.2525    1.5106    2.3700 N   0  0  0  0  0  0  0  0  0  0  0  0
    0.3389    0.8628    2.8863 H   0  0  0  0  0  0  0  0  0  0  0  0
   -0.4568    2.8449    2.9250 C   0  0  0  0  0  0  0  0  0  0  0  0
   -1.4318    2.9092    3.4201 H   0  0  0  0  0  0  0  0  0  0  0  0
    0.3204    3.0713    3.6620 H   0  0  0  0  0  0  0  0  0  0  0  0
   -0.4126    3.6034    2.1365 H   0  0  0  0  0  0  0  0  0  0  0  0
  1  2  1  0  0  0  0
  2  3  1  0  0  0  0
  2  4  1  0  0  0  0
  2  5  1  0  0  0  0
  5  6  2  0  0  0  0
  5  7  1  0  0  0  0
  7  8  1  0  0  0  0
  7  9  1  0  0  0  0
  9 10  1  0  0  0  0
  9 11  1  0  0  0  0
  9 27  1  0  0  0  0
 11 12  1  0  0  0  0
 11 13  1  0  0  0  0
 11 14  1  0  0  0  0
 14 15  1  0  0  0  0
 14 16  1  0  0  0  0
 14 17  1  0  0  0  0
 17 18  1  0  0  0  0
 17 19  1  0  0  0  0
 17 20  1  0  0  0  0
 20 21  1  0  0  0  0
 20 22  1  0  0  0  0
 20 23  1  0  0  0  0
 23 24  1  0  0  0  0
 23 25  1  0  0  0  0
 23 26  1  0  0  0  0
 27 28  2  0  0  0  0
 27 29  1  0  0  0  0
 29 30  1  0  0  0  0
 29 31  1  0  0  0  0
 31 32  1  0  0  0  0
 31 33  1  0  0  0  0
 31 34  1  0  0  0  0
M  CHG  1  23   1
M  END
$$$$

  -OEChem-02102214153D

 34 33  0     1  0  0  0  0  0999 V2000
   -3.8402   -3.8377    1.7310 H   0  0  0  0  0  0  0  0  0  0  0  0
   -3.8350   -2.8646    1.2310 C   0  0  0  0  0  0  0  0  0  0  0  0
   -4.5619   -2.2138    1.7229 H   0  0  0  0  0  0  0  0  0  0  0  0
   -4.1277   -3.0057    0.1878 H   0  0  0  0  0  0  0  0  0  0  0  0
   -2.4508   -2.2487    1.3055 C   0  0  0  0  0  0  0  0  0  0  0  0
   -1.5562   -2.8169    1.9084 O   0  0  0  0  0  0  0  0  0  0  0  0
   -2.1930   -1.0351    0.6973 N   0  0  0  0  0  0  0  0  0  0  0  0
   -2.9745   -0.5657    0.2446 H   0  0  0  0  0  0  0  0  0  0  0  0
   -0.8956   -0.3427    0.7664 C   0  0  1  0  0  0  0  0  0  0  0  0
   -0.2942   -0.7396    1.5921 H   0  0  0  0  0  0  0  0  0  0  0  0
   -0.1560   -0.6676   -0.5600 C   0  0  0  0  0  0  0  0  0  0  0  0
    0.4111   -1.5901   -0.3917 H   0  0  0  0  0  0  0  0  0  0  0  0
   -0.8841   -0.9014   -1.3446 H   0  0  0  0  0  0  0  0  0  0  0  0
    0.8215    0.4116   -1.0802 C   0  0  0  0  0  0  0  0  0  0  0  0
    1.1217    1.0926   -0.2790 H   0  0  0  0  0  0  0  0  0  0  0  0
    1.7402   -0.0828   -1.4166 H   0  0  0  0  0  0  0  0  0  0  0  0
    0.2229    1.1763   -2.2812 C   0  0  0  0  0  0  0  0  0  0  0  0
    0.5640    0.6884   -3.2011 H   0  0  0  0  0  0  0  0  0  0  0  0
   -0.8715    1.1199   -2.2807 H   0  0  0  0  0  0  0  0  0  0  0  0
    0.6544    2.6423   -2.3031 C   0  0  0  0  0  0  0  0  0  0  0  0
    1.6576    2.7339   -1.8629 H   0  0  0  0  0  0  0  0  0  0  0  0
    0.7278    2.9820   -3.3464 H   0  0  0  0  0  0  0  0  0  0  0  0
   -0.3480    3.4446   -1.5671 N   0  3  0  0  0  0  0  0  0  0  0  0
   -0.7653    2.8801   -0.8098 H   0  0  0  0  0  0  0  0  0  0  0  0
    0.0801    4.2767   -1.1633 H   0  0  0  0  0  0  0  0  0  0  0  0
   -1.1022    3.7260   -2.1940 H   0  0  0  0  0  0  0  0  0  0  0  0
   -1.0825    1.1609    1.0624 C   0  0  0  0  0  0  0  0  0  0  0  0
   -1.7241    1.8788    0.2977 O   0  0  0  0  0  0  0  0  0  0  0  0
   -0.2869    1.7798    2.0088 N   0  0  0  0  0  0  0  0  0  0  0  0
    0.1925    1.1580    2.6596 H   0  0  0  0  0  0  0  0  0  0  0  0
   -0.4730    3.1668    2.4262 C   0  0  0  0  0  0  0  0  0  0  0  0
   -1.4971    3.3277    2.7814 H   0  0  0  0  0  0  0  0  0  0  0  0
    0.2150    3.4101    3.2428 H   0  0  0  0  0  0  0  0  0  0  0  0
   -0.2751    3.8534    1.5976 H   0  0  0  0  0  0  0  0  0  0  0  0
  1  2  1  0  0  0  0
  2  3  1  0  0  0  0
  2  4  1  0  0  0  0
  2  5  1  0  0  0  0
  5  6  2  0  0  0  0
  5  7  1  0  0  0  0
  7  8  1  0  0  0  0
  7  9  1  0  0  0  0
  9 10  1  0  0  0  0
  9 11  1  0  0  0  0
  9 27  1  0  0  0  0
 11 12  1  0  0  0  0
 11 13  1  0  0  0  0
 11 14  1  0  0  0  0
 14 15  1  0  0  0  0
 14 16  1  0  0  0  0
 14 17  1  0  0  0  0
 17 18  1  0  0  0  0
 17 19  1  0  0  0  0
 17 20  1  0  0  0  0
 20 21  1  0  0  0  0
 20 22  1  0  0  0  0
 20 23  1  0  0  0  0
 23 24  1  0  0  0  0
 23 25  1  0  0  0  0
 23 26  1  0  0  0  0
 27 28  2  0  0  0  0
 27 29  1  0  0  0  0
 29 30  1  0  0  0  0
 29 31  1  0  0  0  0
 31 32  1  0  0  0  0
 31 33  1  0  0  0  0
 31 34  1  0  0  0  0
M  CHG  1  23   1
M  END
$$$$

  -OEChem-02102214153D

 34 33  0     1  0  0  0  0  0999 V2000
   -3.8441   -3.7874    1.7747 H   0  0  0  0  0  0  0  0  0  0  0  0
   -3.8468   -2.7839    1.3391 C   0  0  0  0  0  0  0  0  0  0  0  0
   -4.5004   -2.1438    1.9365 H   0  0  0  0  0  0  0  0  0  0  0  0
   -4.2377   -2.8457    0.3207 H   0  0  0  0  0  0  0  0  0  0  0  0
   -2.4388   -2.2207    1.3229 C   0  0  0  0  0  0  0  0  0  0  0  0
   -1.5216   -2.8450    1.8284 O   0  0  0  0  0  0  0  0  0  0  0  0
   -2.1838   -0.9942    0.7395 N   0  0  0  0  0  0  0  0  0  0  0  0
   -2.9835   -0.4708    0.3897 H   0  0  0  0  0  0  0  0  0  0  0  0
   -0.8644   -0.3413    0.7482 C   0  0  1  0  0  0  0  0  0  0  0  0
   -0.2395   -0.7764    1.5362 H   0  0  0  0  0  0  0  0  0  0  0  0
   -0.1808   -0.6571   -0.6093 C   0  0  0  0  0  0  0  0  0  0  0  0
    0.3702   -1.5954   -0.4793 H   0  0  0  0  0  0  0  0  0  0  0  0
   -0.9405   -0.8535   -1.3741 H   0  0  0  0  0  0  0  0  0  0  0  0
    0.8007    0.4086   -1.1437 C   0  0  0  0  0  0  0  0  0  0  0  0
    1.3348    0.8774   -0.3110 H   0  0  0  0  0  0  0  0  0  0  0  0
    1.5595   -0.0975   -1.7516 H   0  0  0  0  0  0  0  0  0  0  0  0
    0.0945    1.4535   -2.0366 C   0  0  0  0  0  0  0  0  0  0  0  0
    0.3838    1.2800   -3.0791 H   0  0  0  0  0  0  0  0  0  0  0  0
   -0.9907    1.3117   -1.9898 H   0  0  0  0  0  0  0  0  0  0  0  0
    0.4595    2.8930   -1.6545 C   0  0  0  0  0  0  0  0  0  0  0  0
    1.0977    2.8865   -0.7597 H   0  0  0  0  0  0  0  0  0  0  0  0
    1.0458    3.3487   -2.4657 H   0  0  0  0  0  0  0  0  0  0  0  0
   -0.7859    3.6475   -1.3973 N   0  3  0  0  0  0  0  0  0  0  0  0
   -1.3315    3.1562   -0.6688 H   0  0  0  0  0  0  0  0  0  0  0  0
   -0.5774    4.5913   -1.0728 H   0  0  0  0  0  0  0  0  0  0  0  0
   -1.3517    3.6978   -2.2443 H   0  0  0  0  0  0  0  0  0  0  0  0
   -0.9897    1.1558    1.1049 C   0  0  0  0  0  0  0  0  0  0  0  0
   -1.7792    1.8904    0.5119 O   0  0  0  0  0  0  0  0  0  0  0  0
   -0.1189    1.7234    2.0167 N   0  0  0  0  0  0  0  0  0  0  0  0
    0.4389    1.0703    2.5664 H   0  0  0  0  0  0  0  0  0  0  0  0
   -0.2834    3.0734    2.5476 C   0  0  0  0  0  0  0  0  0  0  0  0
   -1.2596    3.1796    3.0338 H   0  0  0  0  0  0  0  0  0  0  0  0
    0.4938    3.2836    3.2898 H   0  0  0  0  0  0  0  0  0  0  0  0
   -0.2034    3.8177    1.7496 H   0  0  0  0  0  0  0  0  0  0  0  0
  1  2  1  0  0  0  0
  2  3  1  0  0  0  0
  2  4  1  0  0  0  0
  2  5  1  0  0  0  0
  5  6  2  0  0  0  0
  5  7  1  0  0  0  0
  7  8  1  0  0  0  0
  7  9  1  0  0  0  0
  9 10  1  0  0  0  0
  9 11  1  0  0  0  0
  9 27  1  0  0  0  0
 11 12  1  0  0  0  0
 11 13  1  0  0  0  0
 11 14  1  0  0  0  0
 14 15  1  0  0  0  0
 14 16  1  0  0  0  0
 14 17  1  0  0  0  0
 17 18  1  0  0  0  0
 17 19  1  0  0  0  0
 17 20  1  0  0  0  0
 20 21  1  0  0  0  0
 20 22  1  0  0  0  0
 20 23  1  0  0  0  0
 23 24  1  0  0  0  0
 23 25  1  0  0  0  0
 23 26  1  0  0  0  0
 27 28  2  0  0  0  0
 27 29  1  0  0  0  0
 29 30  1  0  0  0  0
 29 31  1  0  0  0  0
 31 32  1  0  0  0  0
 31 33  1  0  0  0  0
 31 34  1  0  0  0  0
M  CHG  1  23   1
M  END
$$$$

  -OEChem-02102214153D

 34 33  0     1  0  0  0  0  0999 V2000
   -3.6061   -4.1780    1.5225 H   0  0  0  0  0  0  0  0  0  0  0  0
   -3.6927   -3.1149    1.2800 C   0  0  0  0  0  0  0  0  0  0  0  0
   -4.2964   -2.6272    2.0492 H   0  0  0  0  0  0  0  0  0  0  0  0
   -4.1939   -3.0153    0.3143 H   0  0  0  0  0  0  0  0  0  0  0  0
   -2.3163   -2.4806    1.2202 C   0  0  0  0  0  0  0  0  0  0  0  0
   -1.3226   -3.1403    1.4763 O   0  0  0  0  0  0  0  0  0  0  0  0
   -2.1781   -1.1500    0.8795 N   0  0  0  0  0  0  0  0  0  0  0  0
   -3.0334   -0.6041    0.7829 H   0  0  0  0  0  0  0  0  0  0  0  0
   -0.9080   -0.4122    0.9627 C   0  0  1  0  0  0  0  0  0  0  0  0
   -0.2079   -0.9331    1.6253 H   0  0  0  0  0  0  0  0  0  0  0  0
   -0.2871   -0.3876   -0.4592 C   0  0  0  0  0  0  0  0  0  0  0  0
    0.3091   -1.3009   -0.5630 H   0  0  0  0  0  0  0  0  0  0  0  0
   -1.0932   -0.4585   -1.1975 H   0  0  0  0  0  0  0  0  0  0  0  0
    0.5999    0.8147   -0.8564 C   0  0  0  0  0  0  0  0  0  0  0  0
    1.3442    1.0016   -0.0744 H   0  0  0  0  0  0  0  0  0  0  0  0
    1.1468    0.5195   -1.7588 H   0  0  0  0  0  0  0  0  0  0  0  0
   -0.1804    2.1075   -1.1589 C   0  0  0  0  0  0  0  0  0  0  0  0
   -1.1413    1.8553   -1.6211 H   0  0  0  0  0  0  0  0  0  0  0  0
   -0.3788    2.6489   -0.2310 H   0  0  0  0  0  0  0  0  0  0  0  0
    0.6069    3.0251   -2.0880 C   0  0  0  0  0  0  0  0  0  0  0  0
    1.5714    3.2760   -1.6225 H   0  0  0  0  0  0  0  0  0  0  0  0
    0.8248    2.4968   -3.0278 H   0  0  0  0  0  0  0  0  0  0  0  0
   -0.2066    4.2367   -2.3278 N   0  3  0  0  0  0  0  0  0  0  0  0
   -0.4256    4.6890   -1.4375 H   0  0  0  0  0  0  0  0  0  0  0  0
    0.3025    4.8951   -2.9208 H   0  0  0  0  0  0  0  0  0  0  0  0
   -1.0826    3.9814   -2.7883 H   0  0  0  0  0  0  0  0  0  0  0  0
   -1.1690    0.9598    1.6152 C   0  0  0  0  0  0  0  0  0  0  0  0
   -2.1282    1.6365    1.2566 O   0  0  0  0  0  0  0  0  0  0  0  0
   -0.3268    1.4425    2.6003 N   0  0  0  0  0  0  0  0  0  0  0  0
    0.3543    0.7873    2.9786 H   0  0  0  0  0  0  0  0  0  0  0  0
   -0.6310    2.6378    3.3808 C   0  0  0  0  0  0  0  0  0  0  0  0
   -1.5447    2.4905    3.9668 H   0  0  0  0  0  0  0  0  0  0  0  0
    0.1902    2.8595    4.0698 H   0  0  0  0  0  0  0  0  0  0  0  0
   -0.7709    3.5034    2.7252 H   0  0  0  0  0  0  0  0  0  0  0  0
  1  2  1  0  0  0  0
  2  3  1  0  0  0  0
  2  4  1  0  0  0  0
  2  5  1  0  0  0  0
  5  6  2  0  0  0  0
  5  7  1  0  0  0  0
  7  8  1  0  0  0  0
  7  9  1  0  0  0  0
  9 10  1  0  0  0  0
  9 11  1  0  0  0  0
  9 27  1  0  0  0  0
 11 12  1  0  0  0  0
 11 13  1  0  0  0  0
 11 14  1  0  0  0  0
 14 15  1  0  0  0  0
 14 16  1  0  0  0  0
 14 17  1  0  0  0  0
 17 18  1  0  0  0  0
 17 19  1  0  0  0  0
 17 20  1  0  0  0  0
 20 21  1  0  0  0  0
 20 22  1  0  0  0  0
 20 23  1  0  0  0  0
 23 24  1  0  0  0  0
 23 25  1  0  0  0  0
 23 26  1  0  0  0  0
 27 28  2  0  0  0  0
 27 29  1  0  0  0  0
 29 30  1  0  0  0  0
 29 31  1  0  0  0  0
 31 32  1  0  0  0  0
 31 33  1  0  0  0  0
 31 34  1  0  0  0  0
M  CHG  1  23   1
M  END
$$$$

  -OEChem-02102214153D

 34 33  0     1  0  0  0  0  0999 V2000
   -3.6349   -4.1683    1.4726 H   0  0  0  0  0  0  0  0  0  0  0  0
   -3.7120   -3.1117    1.1996 C   0  0  0  0  0  0  0  0  0  0  0  0
   -4.3498   -2.6064    1.9289 H   0  0  0  0  0  0  0  0  0  0  0  0
   -4.1701   -3.0371    0.2103 H   0  0  0  0  0  0  0  0  0  0  0  0
   -2.3349   -2.4759    1.1844 C   0  0  0  0  0  0  0  0  0  0  0  0
   -1.3449   -3.1445    1.4318 O   0  0  0  0  0  0  0  0  0  0  0  0
   -2.1912   -1.1339    0.8936 N   0  0  0  0  0  0  0  0  0  0  0  0
   -3.0448   -0.5855    0.7970 H   0  0  0  0  0  0  0  0  0  0  0  0
   -0.9206   -0.4010    1.0150 C   0  0  1  0  0  0  0  0  0  0  0  0
   -0.2339   -0.9444    1.6736 H   0  0  0  0  0  0  0  0  0  0  0  0
   -0.2754   -0.3657   -0.4007 C   0  0  0  0  0  0  0  0  0  0  0  0
    0.2957   -1.2931   -0.5186 H   0  0  0  0  0  0  0  0  0  0  0  0
   -1.0859   -0.4046   -1.1369 H   0  0  0  0  0  0  0  0  0  0  0  0
    0.6322    0.8138   -0.8272 C   0  0  0  0  0  0  0  0  0  0  0  0
    1.5159    0.8373   -0.1799 H   0  0  0  0  0  0  0  0  0  0  0  0
    0.9821    0.5944   -1.8420 H   0  0  0  0  0  0  0  0  0  0  0  0
   -0.0336    2.2004   -0.8172 C   0  0  0  0  0  0  0  0  0  0  0  0
   -1.0930    2.0910   -1.0754 H   0  0  0  0  0  0  0  0  0  0  0  0
    0.0386    2.6415    0.1809 H   0  0  0  0  0  0  0  0  0  0  0  0
    0.6277    3.1456   -1.8143 C   0  0  0  0  0  0  0  0  0  0  0  0
    1.6840    3.2867   -1.5420 H   0  0  0  0  0  0  0  0  0  0  0  0
    0.6052    2.6929   -2.8166 H   0  0  0  0  0  0  0  0  0  0  0  0
   -0.1146    4.4245   -1.7890 N   0  3  0  0  0  0  0  0  0  0  0  0
   -0.0667    4.8360   -0.8549 H   0  0  0  0  0  0  0  0  0  0  0  0
    0.2834    5.0802   -2.4643 H   0  0  0  0  0  0  0  0  0  0  0  0
   -1.0962    4.2593   -2.0227 H   0  0  0  0  0  0  0  0  0  0  0  0
   -1.1847    0.9467    1.7143 C   0  0  0  0  0  0  0  0  0  0  0  0
   -2.1223    1.6543    1.3579 O   0  0  0  0  0  0  0  0  0  0  0  0
   -0.3487    1.3885    2.7238 N   0  0  0  0  0  0  0  0  0  0  0  0
    0.3165    0.7109    3.0909 H   0  0  0  0  0  0  0  0  0  0  0  0
   -0.6578    2.5540    3.5466 C   0  0  0  0  0  0  0  0  0  0  0  0
   -1.5774    2.3866    4.1180 H   0  0  0  0  0  0  0  0  0  0  0  0
    0.1570    2.7469    4.2518 H   0  0  0  0  0  0  0  0  0  0  0  0
   -0.7896    3.4446    2.9234 H   0  0  0  0  0  0  0  0  0  0  0  0
  1  2  1  0  0  0  0
  2  3  1  0  0  0  0
  2  4  1  0  0  0  0
  2  5  1  0  0  0  0
  5  6  2  0  0  0  0
  5  7  1  0  0  0  0
  7  8  1  0  0  0  0
  7  9  1  0  0  0  0
  9 10  1  0  0  0  0
  9 11  1  0  0  0  0
  9 27  1  0  0  0  0
 11 12  1  0  0  0  0
 11 13  1  0  0  0  0
 11 14  1  0  0  0  0
 14 15  1  0  0  0  0
 14 16  1  0  0  0  0
 14 17  1  0  0  0  0
 17 18  1  0  0  0  0
 17 19  1  0  0  0  0
 17 20  1  0  0  0  0
 20 21  1  0  0  0  0
 20 22  1  0  0  0  0
 20 23  1  0  0  0  0
 23 24  1  0  0  0  0
 23 25  1  0  0  0  0
 23 26  1  0  0  0  0
 27 28  2  0  0  0  0
 27 29  1  0  0  0  0
 29 30  1  0  0  0  0
 29 31  1  0  0  0  0
 31 32  1  0  0  0  0
 31 33  1  0  0  0  0
 31 34  1  0  0  0  0
M  CHG  1  23   1
M  END
$$$$

  -OEChem-02102214153D

 34 33  0     1  0  0  0  0  0999 V2000
   -3.6192   -4.2007    1.4967 H   0  0  0  0  0  0  0  0  0  0  0  0
   -3.7019   -3.1520    1.1970 C   0  0  0  0  0  0  0  0  0  0  0  0
   -4.3655   -2.6391    1.8973 H   0  0  0  0  0  0  0  0  0  0  0  0
   -4.1342   -3.1058    0.1947 H   0  0  0  0  0  0  0  0  0  0  0  0
   -2.3328   -2.4989    1.2029 C   0  0  0  0  0  0  0  0  0  0  0  0
   -1.3362   -3.1592    1.4458 O   0  0  0  0  0  0  0  0  0  0  0  0
   -2.2041   -1.1499    0.9384 N   0  0  0  0  0  0  0  0  0  0  0  0
   -3.0629   -0.6110    0.8334 H   0  0  0  0  0  0  0  0  0  0  0  0
   -0.9400   -0.4051    1.0601 C   0  0  1  0  0  0  0  0  0  0  0  0
   -0.2419   -0.9507    1.7048 H   0  0  0  0  0  0  0  0  0  0  0  0
   -0.3113   -0.3631   -0.3672 C   0  0  0  0  0  0  0  0  0  0  0  0
    0.2400   -1.2997   -0.5069 H   0  0  0  0  0  0  0  0  0  0  0  0
   -1.1459   -0.3877   -1.0769 H   0  0  0  0  0  0  0  0  0  0  0  0
    0.5904    0.7992   -0.8604 C   0  0  0  0  0  0  0  0  0  0  0  0
    1.5839    0.6711   -0.4166 H   0  0  0  0  0  0  0  0  0  0  0  0
    0.7048    0.6755   -1.9432 H   0  0  0  0  0  0  0  0  0  0  0  0
    0.1208    2.2317   -0.5684 C   0  0  0  0  0  0  0  0  0  0  0  0
   -0.9611    2.2878   -0.7301 H   0  0  0  0  0  0  0  0  0  0  0  0
    0.3420    2.4990    0.4680 H   0  0  0  0  0  0  0  0  0  0  0  0
    0.8067    3.2364   -1.4873 C   0  0  0  0  0  0  0  0  0  0  0  0
    1.8908    3.2263   -1.3015 H   0  0  0  0  0  0  0  0  0  0  0  0
    0.6517    2.9374   -2.5344 H   0  0  0  0  0  0  0  0  0  0  0  0
    0.2214    4.5683   -1.2209 N   0  3  0  0  0  0  0  0  0  0  0  0
    0.3984    4.8395   -0.2519 H   0  0  0  0  0  0  0  0  0  0  0  0
    0.6304    5.2675   -1.8440 H   0  0  0  0  0  0  0  0  0  0  0  0
   -0.7898    4.5377   -1.3715 H   0  0  0  0  0  0  0  0  0  0  0  0
   -1.2197    0.9232    1.7905 C   0  0  0  0  0  0  0  0  0  0  0  0
   -2.1590    1.6347    1.4489 O   0  0  0  0  0  0  0  0  0  0  0  0
   -0.3802    1.3546    2.8028 N   0  0  0  0  0  0  0  0  0  0  0  0
    0.2860    0.6706    3.1565 H   0  0  0  0  0  0  0  0  0  0  0  0
   -0.7108    2.4864    3.6636 C   0  0  0  0  0  0  0  0  0  0  0  0
   -1.6304    2.2847    4.2238 H   0  0  0  0  0  0  0  0  0  0  0  0
    0.0972    2.6670    4.3797 H   0  0  0  0  0  0  0  0  0  0  0  0
   -0.8537    3.3958    3.0710 H   0  0  0  0  0  0  0  0  0  0  0  0
  1  2  1  0  0  0  0
  2  3  1  0  0  0  0
  2  4  1  0  0  0  0
  2  5  1  0  0  0  0
  5  6  2  0  0  0  0
  5  7  1  0  0  0  0
  7  8  1  0  0  0  0
  7  9  1  0  0  0  0
  9 10  1  0  0  0  0
  9 11  1  0  0  0  0
  9 27  1  0  0  0  0
 11 12  1  0  0  0  0
 11 13  1  0  0  0  0
 11 14  1  0  0  0  0
 14 15  1  0  0  0  0
 14 16  1  0  0  0  0
 14 17  1  0  0  0  0
 17 18  1  0  0  0  0
 17 19  1  0  0  0  0
 17 20  1  0  0  0  0
 20 21  1  0  0  0  0
 20 22  1  0  0  0  0
 20 23  1  0  0  0  0
 23 24  1  0  0  0  0
 23 25  1  0  0  0  0
 23 26  1  0  0  0  0
 27 28  2  0  0  0  0
 27 29  1  0  0  0  0
 29 30  1  0  0  0  0
 29 31  1  0  0  0  0
 31 32  1  0  0  0  0
 31 33  1  0  0  0  0
 31 34  1  0  0  0  0
M  CHG  1  23   1
M  END
$$$$

  -OEChem-02102214153D

 34 33  0     1  0  0  0  0  0999 V2000
   -3.3850   -4.0506    1.7252 H   0  0  0  0  0  0  0  0  0  0  0  0
   -3.5322   -3.0298    1.3603 C   0  0  0  0  0  0  0  0  0  0  0  0
   -4.2607   -2.5298    2.0032 H   0  0  0  0  0  0  0  0  0  0  0  0
   -3.9252   -3.0753    0.3418 H   0  0  0  0  0  0  0  0  0  0  0  0
   -2.2166   -2.2750    1.3776 C   0  0  0  0  0  0  0  0  0  0  0  0
   -1.1973   -2.8200    1.7671 O   0  0  0  0  0  0  0  0  0  0  0  0
   -2.1605   -0.9572    0.9646 N   0  0  0  0  0  0  0  0  0  0  0  0
   -3.0318   -0.5278    0.6576 H   0  0  0  0  0  0  0  0  0  0  0  0
   -0.9294   -0.1467    0.9458 C   0  0  1  0  0  0  0  0  0  0  0  0
   -0.2023   -0.5881    1.6363 H   0  0  0  0  0  0  0  0  0  0  0  0
   -0.3413   -0.3954   -0.4888 C   0  0  0  0  0  0  0  0  0  0  0  0
    0.2119   -1.3405   -0.4398 H   0  0  0  0  0  0  0  0  0  0  0  0
   -1.2089   -0.5877   -1.1311 H   0  0  0  0  0  0  0  0  0  0  0  0
    0.5062    0.5776   -1.3568 C   0  0  0  0  0  0  0  0  0  0  0  0
    1.5627    0.3730   -1.1513 H   0  0  0  0  0  0  0  0  0  0  0  0
    0.3369    0.3010   -2.4042 H   0  0  0  0  0  0  0  0  0  0  0  0
    0.2971    2.0912   -1.2341 C   0  0  0  0  0  0  0  0  0  0  0  0
   -0.7799    2.2683   -1.1555 H   0  0  0  0  0  0  0  0  0  0  0  0
    0.6105    2.5482   -2.1793 H   0  0  0  0  0  0  0  0  0  0  0  0
    1.0678    2.7964   -0.1292 C   0  0  0  0  0  0  0  0  0  0  0  0
    1.2724    2.0961    0.6907 H   0  0  0  0  0  0  0  0  0  0  0  0
    2.0400    3.1410   -0.5110 H   0  0  0  0  0  0  0  0  0  0  0  0
    0.2101    3.9162    0.3135 N   0  3  0  0  0  0  0  0  0  0  0  0
    0.6535    4.4295    1.0742 H   0  0  0  0  0  0  0  0  0  0  0  0
    0.0248    4.5508   -0.4637 H   0  0  0  0  0  0  0  0  0  0  0  0
   -0.6894    3.5305    0.6464 H   0  0  0  0  0  0  0  0  0  0  0  0
   -1.1680    1.2611    1.5312 C   0  0  0  0  0  0  0  0  0  0  0  0
   -1.9628    2.0608    1.0499 O   0  0  0  0  0  0  0  0  0  0  0  0
   -0.2485    1.7720    2.4347 N   0  0  0  0  0  0  0  0  0  0  0  0
    0.3706    1.0624    2.8280 H   0  0  0  0  0  0  0  0  0  0  0  0
   -0.6239    2.8450    3.3579 C   0  0  0  0  0  0  0  0  0  0  0  0
   -1.3985    2.4945    4.0495 H   0  0  0  0  0  0  0  0  0  0  0  0
    0.2451    3.1573    3.9466 H   0  0  0  0  0  0  0  0  0  0  0  0
   -1.0097    3.7215    2.8281 H   0  0  0  0  0  0  0  0  0  0  0  0
  1  2  1  0  0  0  0
  2  3  1  0  0  0  0
  2  4  1  0  0  0  0
  2  5  1  0  0  0  0
  5  6  2  0  0  0  0
  5  7  1  0  0  0  0
  7  8  1  0  0  0  0
  7  9  1  0  0  0  0
  9 10  1  0  0  0  0
  9 11  1  0  0  0  0
  9 27  1  0  0  0  0
 11 12  1  0  0  0  0
 11 13  1  0  0  0  0
 11 14  1  0  0  0  0
 14 15  1  0  0  0  0
 14 16  1  0  0  0  0
 14 17  1  0  0  0  0
 17 18  1  0  0  0  0
 17 19  1  0  0  0  0
 17 20  1  0  0  0  0
 20 21  1  0  0  0  0
 20 22  1  0  0  0  0
 20 23  1  0  0  0  0
 23 24  1  0  0  0  0
 23 25  1  0  0  0  0
 23 26  1  0  0  0  0
 27 28  2  0  0  0  0
 27 29  1  0  0  0  0
 29 30  1  0  0  0  0
 29 31  1  0  0  0  0
 31 32  1  0  0  0  0
 31 33  1  0  0  0  0
 31 34  1  0  0  0  0
M  CHG  1  23   1
M  END
$$$$

  -OEChem-02102214153D

 34 33  0     1  0  0  0  0  0999 V2000
   -3.6264   -4.2547    1.4528 H   0  0  0  0  0  0  0  0  0  0  0  0
   -3.7084   -3.2036    1.1616 C   0  0  0  0  0  0  0  0  0  0  0  0
   -4.4132   -2.7077    1.8333 H   0  0  0  0  0  0  0  0  0  0  0  0
   -4.0909   -3.1510    0.1395 H   0  0  0  0  0  0  0  0  0  0  0  0
   -2.3506   -2.5323    1.2428 C   0  0  0  0  0  0  0  0  0  0  0  0
   -1.3605   -3.1761    1.5494 O   0  0  0  0  0  0  0  0  0  0  0  0
   -2.2241   -1.1838    0.9769 N   0  0  0  0  0  0  0  0  0  0  0  0
   -3.0800   -0.6556    0.8095 H   0  0  0  0  0  0  0  0  0  0  0  0
   -0.9693   -0.4281    1.1268 C   0  0  1  0  0  0  0  0  0  0  0  0
   -0.2664   -0.9603    1.7771 H   0  0  0  0  0  0  0  0  0  0  0  0
   -0.3499   -0.3735   -0.3074 C   0  0  0  0  0  0  0  0  0  0  0  0
    0.1863   -1.3169   -0.4606 H   0  0  0  0  0  0  0  0  0  0  0  0
   -1.1974   -0.3920   -1.0026 H   0  0  0  0  0  0  0  0  0  0  0  0
    0.5499    0.7757   -0.8478 C   0  0  0  0  0  0  0  0  0  0  0  0
    1.5728    0.3841   -0.8840 H   0  0  0  0  0  0  0  0  0  0  0  0
    0.2489    0.9654   -1.8845 H   0  0  0  0  0  0  0  0  0  0  0  0
    0.6102    2.1158   -0.1074 C   0  0  0  0  0  0  0  0  0  0  0  0
   -0.4003    2.5257   -0.0239 H   0  0  0  0  0  0  0  0  0  0  0  0
    1.0307    1.9726    0.8917 H   0  0  0  0  0  0  0  0  0  0  0  0
    1.4693    3.1126   -0.8795 C   0  0  0  0  0  0  0  0  0  0  0  0
    2.5080    2.7527   -0.9167 H   0  0  0  0  0  0  0  0  0  0  0  0
    1.1084    3.1734   -1.9169 H   0  0  0  0  0  0  0  0  0  0  0  0
    1.3723    4.4269   -0.2084 N   0  3  0  0  0  0  0  0  0  0  0  0
    1.7424    4.3625    0.7415 H   0  0  0  0  0  0  0  0  0  0  0  0
    1.9040    5.1292   -0.7270 H   0  0  0  0  0  0  0  0  0  0  0  0
    0.3931    4.7188   -0.1614 H   0  0  0  0  0  0  0  0  0  0  0  0
   -1.3144    0.8913    1.8473 C   0  0  0  0  0  0  0  0  0  0  0  0
   -2.2410    1.5894    1.4519 O   0  0  0  0  0  0  0  0  0  0  0  0
   -0.5270    1.3484    2.8910 N   0  0  0  0  0  0  0  0  0  0  0  0
    0.1072    0.6629    3.2966 H   0  0  0  0  0  0  0  0  0  0  0  0
   -0.9414    2.4637    3.7378 C   0  0  0  0  0  0  0  0  0  0  0  0
   -1.8758    2.2228    4.2568 H   0  0  0  0  0  0  0  0  0  0  0  0
   -0.1743    2.6759    4.4894 H   0  0  0  0  0  0  0  0  0  0  0  0
   -1.0972    3.3683    3.1410 H   0  0  0  0  0  0  0  0  0  0  0  0
  1  2  1  0  0  0  0
  2  3  1  0  0  0  0
  2  4  1  0  0  0  0
  2  5  1  0  0  0  0
  5  6  2  0  0  0  0
  5  7  1  0  0  0  0
  7  8  1  0  0  0  0
  7  9  1  0  0  0  0
  9 10  1  0  0  0  0
  9 11  1  0  0  0  0
  9 27  1  0  0  0  0
 11 12  1  0  0  0  0
 11 13  1  0  0  0  0
 11 14  1  0  0  0  0
 14 15  1  0  0  0  0
 14 16  1  0  0  0  0
 14 17  1  0  0  0  0
 17 18  1  0  0  0  0
 17 19  1  0  0  0  0
 17 20  1  0  0  0  0
 20 21  1  0  0  0  0
 20 22  1  0  0  0  0
 20 23  1  0  0  0  0
 23 24  1  0  0  0  0
 23 25  1  0  0  0  0
 23 26  1  0  0  0  0
 27 28  2  0  0  0  0
 27 29  1  0  0  0  0
 29 30  1  0  0  0  0
 29 31  1  0  0  0  0
 31 32  1  0  0  0  0
 31 33  1  0  0  0  0
 31 34  1  0  0  0  0
M  CHG  1  23   1
M  END
$$$$

  -OEChem-02102214153D

 34 33  0     1  0  0  0  0  0999 V2000
   -3.6213   -4.2737    1.4122 H   0  0  0  0  0  0  0  0  0  0  0  0
   -3.7009   -3.2253    1.1104 C   0  0  0  0  0  0  0  0  0  0  0  0
   -4.4381   -2.7315    1.7480 H   0  0  0  0  0  0  0  0  0  0  0  0
   -4.0395   -3.1832    0.0724 H   0  0  0  0  0  0  0  0  0  0  0  0
   -2.3545   -2.5405    1.2452 C   0  0  0  0  0  0  0  0  0  0  0  0
   -1.3781   -3.1676    1.6228 O   0  0  0  0  0  0  0  0  0  0  0  0
   -2.2217   -1.1984    0.9513 N   0  0  0  0  0  0  0  0  0  0  0  0
   -3.0668   -0.6812    0.7100 H   0  0  0  0  0  0  0  0  0  0  0  0
   -0.9757   -0.4358    1.1343 C   0  0  1  0  0  0  0  0  0  0  0  0
   -0.2863   -0.9489    1.8132 H   0  0  0  0  0  0  0  0  0  0  0  0
   -0.3295   -0.3836   -0.2863 C   0  0  0  0  0  0  0  0  0  0  0  0
    0.2305   -1.3180   -0.4036 H   0  0  0  0  0  0  0  0  0  0  0  0
   -1.1504   -0.4329   -1.0114 H   0  0  0  0  0  0  0  0  0  0  0  0
    0.5756    0.7719   -0.8031 C   0  0  0  0  0  0  0  0  0  0  0  0
    1.5289    0.3172   -1.0955 H   0  0  0  0  0  0  0  0  0  0  0  0
    0.1176    1.1590   -1.7207 H   0  0  0  0  0  0  0  0  0  0  0  0
    0.8905    1.9699    0.1006 C   0  0  0  0  0  0  0  0  0  0  0  0
   -0.0285    2.5265    0.3045 H   0  0  0  0  0  0  0  0  0  0  0  0
    1.3222    1.6213    1.0441 H   0  0  0  0  0  0  0  0  0  0  0  0
    1.8724    2.9048   -0.6013 C   0  0  0  0  0  0  0  0  0  0  0  0
    2.8293    2.3842   -0.7529 H   0  0  0  0  0  0  0  0  0  0  0  0
    1.4791    3.1571   -1.5971 H   0  0  0  0  0  0  0  0  0  0  0  0
    2.0434    4.1218    0.2208 N   0  3  0  0  0  0  0  0  0  0  0  0
    2.4375    3.8769    1.1306 H   0  0  0  0  0  0  0  0  0  0  0  0
    2.6706    4.7788   -0.2482 H   0  0  0  0  0  0  0  0  0  0  0  0
    1.1366    4.5727    0.3630 H   0  0  0  0  0  0  0  0  0  0  0  0
   -1.3628    0.8963    1.8074 C   0  0  0  0  0  0  0  0  0  0  0  0
   -2.2452    1.5961    1.3252 O   0  0  0  0  0  0  0  0  0  0  0  0
   -0.6267    1.3845    2.8746 N   0  0  0  0  0  0  0  0  0  0  0  0
   -0.0416    0.6998    3.3491 H   0  0  0  0  0  0  0  0  0  0  0  0
   -1.0785    2.5346    3.6534 C   0  0  0  0  0  0  0  0  0  0  0  0
   -2.0458    2.3228    4.1223 H   0  0  0  0  0  0  0  0  0  0  0  0
   -0.3564    2.7661    4.4426 H   0  0  0  0  0  0  0  0  0  0  0  0
   -1.1861    3.4179    3.0151 H   0  0  0  0  0  0  0  0  0  0  0  0
  1  2  1  0  0  0  0
  2  3  1  0  0  0  0
  2  4  1  0  0  0  0
  2  5  1  0  0  0  0
  5  6  2  0  0  0  0
  5  7  1  0  0  0  0
  7  8  1  0  0  0  0
  7  9  1  0  0  0  0
  9 10  1  0  0  0  0
  9 11  1  0  0  0  0
  9 27  1  0  0  0  0
 11 12  1  0  0  0  0
 11 13  1  0  0  0  0
 11 14  1  0  0  0  0
 14 15  1  0  0  0  0
 14 16  1  0  0  0  0
 14 17  1  0  0  0  0
 17 18  1  0  0  0  0
 17 19  1  0  0  0  0
 17 20  1  0  0  0  0
 20 21  1  0  0  0  0
 20 22  1  0  0  0  0
 20 23  1  0  0  0  0
 23 24  1  0  0  0  0
 23 25  1  0  0  0  0
 23 26  1  0  0  0  0
 27 28  2  0  0  0  0
 27 29  1  0  0  0  0
 29 30  1  0  0  0  0
 29 31  1  0  0  0  0
 31 32  1  0  0  0  0
 31 33  1  0  0  0  0
 31 34  1  0  0  0  0
M  CHG  1  23   1
M  END
$$$$

  -OEChem-02102214153D

 34 33  0     1  0  0  0  0  0999 V2000
   -3.6227   -4.2624    1.4332 H   0  0  0  0  0  0  0  0  0  0  0  0
   -3.6956   -3.2198    1.1104 C   0  0  0  0  0  0  0  0  0  0  0  0
   -4.4473   -2.7146    1.7218 H   0  0  0  0  0  0  0  0  0  0  0  0
   -4.0109   -3.1971    0.0644 H   0  0  0  0  0  0  0  0  0  0  0  0
   -2.3528   -2.5315    1.2630 C   0  0  0  0  0  0  0  0  0  0  0  0
   -1.3862   -3.1476    1.6821 O   0  0  0  0  0  0  0  0  0  0  0  0
   -2.2133   -1.1971    0.9399 N   0  0  0  0  0  0  0  0  0  0  0  0
   -3.0511   -0.6883    0.6585 H   0  0  0  0  0  0  0  0  0  0  0  0
   -0.9722   -0.4295    1.1292 C   0  0  1  0  0  0  0  0  0  0  0  0
   -0.2869   -0.9288    1.8225 H   0  0  0  0  0  0  0  0  0  0  0  0
   -0.3230   -0.3891   -0.2882 C   0  0  0  0  0  0  0  0  0  0  0  0
    0.2625   -1.3112   -0.3735 H   0  0  0  0  0  0  0  0  0  0  0  0
   -1.1251   -0.4701   -1.0313 H   0  0  0  0  0  0  0  0  0  0  0  0
    0.5757    0.7746   -0.7881 C   0  0  0  0  0  0  0  0  0  0  0  0
    1.4080    0.3196   -1.3370 H   0  0  0  0  0  0  0  0  0  0  0  0
   -0.0081    1.3489   -1.5171 H   0  0  0  0  0  0  0  0  0  0  0  0
    1.1449    1.7762    0.2243 C   0  0  0  0  0  0  0  0  0  0  0  0
    0.3481    2.4401    0.5705 H   0  0  0  0  0  0  0  0  0  0  0  0
    1.5685    1.2416    1.0809 H   0  0  0  0  0  0  0  0  0  0  0  0
    2.2218    2.6267   -0.4453 C   0  0  0  0  0  0  0  0  0  0  0  0
    3.0558    1.9807   -0.7568 H   0  0  0  0  0  0  0  0  0  0  0  0
    1.8053    3.0804   -1.3570 H   0  0  0  0  0  0  0  0  0  0  0  0
    2.6715    3.6674    0.5036 N   0  3  0  0  0  0  0  0  0  0  0  0
    3.0720    3.2322    1.3362 H   0  0  0  0  0  0  0  0  0  0  0  0
    3.3791    4.2610    0.0651 H   0  0  0  0  0  0  0  0  0  0  0  0
    1.8776    4.2482    0.7818 H   0  0  0  0  0  0  0  0  0  0  0  0
   -1.3671    0.9197    1.7620 C   0  0  0  0  0  0  0  0  0  0  0  0
   -2.2066    1.6275    1.2206 O   0  0  0  0  0  0  0  0  0  0  0  0
   -0.6479    1.4298    2.8313 N   0  0  0  0  0  0  0  0  0  0  0  0
   -0.1079    0.7454    3.3567 H   0  0  0  0  0  0  0  0  0  0  0  0
   -1.0862    2.6269    3.5445 C   0  0  0  0  0  0  0  0  0  0  0  0
   -2.0731    2.4663    3.9923 H   0  0  0  0  0  0  0  0  0  0  0  0
   -0.3804    2.8725    4.3439 H   0  0  0  0  0  0  0  0  0  0  0  0
   -1.1476    3.4835    2.8650 H   0  0  0  0  0  0  0  0  0  0  0  0
  1  2  1  0  0  0  0
  2  3  1  0  0  0  0
  2  4  1  0  0  0  0
  2  5  1  0  0  0  0
  5  6  2  0  0  0  0
  5  7  1  0  0  0  0
  7  8  1  0  0  0  0
  7  9  1  0  0  0  0
  9 10  1  0  0  0  0
  9 11  1  0  0  0  0
  9 27  1  0  0  0  0
 11 12  1  0  0  0  0
 11 13  1  0  0  0  0
 11 14  1  0  0  0  0
 14 15  1  0  0  0  0
 14 16  1  0  0  0  0
 14 17  1  0  0  0  0
 17 18  1  0  0  0  0
 17 19  1  0  0  0  0
 17 20  1  0  0  0  0
 20 21  1  0  0  0  0
 20 22  1  0  0  0  0
 20 23  1  0  0  0  0
 23 24  1  0  0  0  0
 23 25  1  0  0  0  0
 23 26  1  0  0  0  0
 27 28  2  0  0  0  0
 27 29  1  0  0  0  0
 29 30  1  0  0  0  0
 29 31  1  0  0  0  0
 31 32  1  0  0  0  0
 31 33  1  0  0  0  0
 31 34  1  0  0  0  0
M  CHG  1  23   1
M  END
$$$$

  -OEChem-02102214153D

 34 33  0     1  0  0  0  0  0999 V2000
   -3.9553   -3.7949    1.6079 H   0  0  0  0  0  0  0  0  0  0  0  0
   -3.8763   -2.7788    1.2105 C   0  0  0  0  0  0  0  0  0  0  0  0
   -4.5560   -2.1298    1.7680 H   0  0  0  0  0  0  0  0  0  0  0  0
   -4.1735   -2.7894    0.1591 H   0  0  0  0  0  0  0  0  0  0  0  0
   -2.4517   -2.2763    1.3437 C   0  0  0  0  0  0  0  0  0  0  0  0
   -1.5927   -2.9793    1.8504 O   0  0  0  0  0  0  0  0  0  0  0  0
   -2.1154   -1.0082    0.9132 N   0  0  0  0  0  0  0  0  0  0  0  0
   -2.8607   -0.4247    0.5352 H   0  0  0  0  0  0  0  0  0  0  0  0
   -0.7653   -0.4333    1.0242 C   0  0  1  0  0  0  0  0  0  0  0  0
   -0.1449   -0.9876    1.7368 H   0  0  0  0  0  0  0  0  0  0  0  0
   -0.1762   -0.6141   -0.4087 C   0  0  0  0  0  0  0  0  0  0  0  0
    0.2652   -1.6169   -0.4273 H   0  0  0  0  0  0  0  0  0  0  0  0
   -1.0018   -0.6301   -1.1301 H   0  0  0  0  0  0  0  0  0  0  0  0
    0.8684    0.3584   -1.0071 C   0  0  0  0  0  0  0  0  0  0  0  0
    1.4572   -0.2061   -1.7395 H   0  0  0  0  0  0  0  0  0  0  0  0
    0.3186    1.1162   -1.5776 H   0  0  0  0  0  0  0  0  0  0  0  0
    1.8420    1.0650   -0.0513 C   0  0  0  0  0  0  0  0  0  0  0  0
    2.8643    0.9255   -0.4197 H   0  0  0  0  0  0  0  0  0  0  0  0
    1.8022    0.6111    0.9418 H   0  0  0  0  0  0  0  0  0  0  0  0
    1.5328    2.5648   -0.0126 C   0  0  0  0  0  0  0  0  0  0  0  0
    1.7947    3.0127   -0.9823 H   0  0  0  0  0  0  0  0  0  0  0  0
    0.4509    2.7119    0.1233 H   0  0  0  0  0  0  0  0  0  0  0  0
    2.2840    3.1899    1.0924 N   0  3  0  0  0  0  0  0  0  0  0  0
    3.2798    2.9822    1.0033 H   0  0  0  0  0  0  0  0  0  0  0  0
    2.1491    4.2027    1.0757 H   0  0  0  0  0  0  0  0  0  0  0  0
    1.9396    2.8226    1.9816 H   0  0  0  0  0  0  0  0  0  0  0  0
   -0.8968    1.0108    1.5532 C   0  0  0  0  0  0  0  0  0  0  0  0
   -1.5585    1.8359    0.9381 O   0  0  0  0  0  0  0  0  0  0  0  0
   -0.0654    1.4708    2.5663 N   0  0  0  0  0  0  0  0  0  0  0  0
    0.3255    0.7209    3.1368 H   0  0  0  0  0  0  0  0  0  0  0  0
   -0.3947    2.7100    3.2724 C   0  0  0  0  0  0  0  0  0  0  0  0
   -1.3860    2.6338    3.7336 H   0  0  0  0  0  0  0  0  0  0  0  0
    0.3362    2.9046    4.0638 H   0  0  0  0  0  0  0  0  0  0  0  0
   -0.3987    3.5648    2.5877 H   0  0  0  0  0  0  0  0  0  0  0  0
  1  2  1  0  0  0  0
  2  3  1  0  0  0  0
  2  4  1  0  0  0  0
  2  5  1  0  0  0  0
  5  6  2  0  0  0  0
  5  7  1  0  0  0  0
  7  8  1  0  0  0  0
  7  9  1  0  0  0  0
  9 10  1  0  0  0  0
  9 11  1  0  0  0  0
  9 27  1  0  0  0  0
 11 12  1  0  0  0  0
 11 13  1  0  0  0  0
 11 14  1  0  0  0  0
 14 15  1  0  0  0  0
 14 16  1  0  0  0  0
 14 17  1  0  0  0  0
 17 18  1  0  0  0  0
 17 19  1  0  0  0  0
 17 20  1  0  0  0  0
 20 21  1  0  0  0  0
 20 22  1  0  0  0  0
 20 23  1  0  0  0  0
 23 24  1  0  0  0  0
 23 25  1  0  0  0  0
 23 26  1  0  0  0  0
 27 28  2  0  0  0  0
 27 29  1  0  0  0  0
 29 30  1  0  0  0  0
 29 31  1  0  0  0  0
 31 32  1  0  0  0  0
 31 33  1  0  0  0  0
 31 34  1  0  0  0  0
M  CHG  1  23   1
M  END
$$$$

  -OEChem-02102214153D

 34 33  0     1  0  0  0  0  0999 V2000
   -3.6353   -4.1840    1.4926 H   0  0  0  0  0  0  0  0  0  0  0  0
   -3.6892   -3.1536    1.1295 C   0  0  0  0  0  0  0  0  0  0  0  0
   -4.4353   -2.6131    1.7170 H   0  0  0  0  0  0  0  0  0  0  0  0
   -3.9989   -3.1659    0.0818 H   0  0  0  0  0  0  0  0  0  0  0  0
   -2.3360   -2.4820    1.2631 C   0  0  0  0  0  0  0  0  0  0  0  0
   -1.3802   -3.0994    1.7056 O   0  0  0  0  0  0  0  0  0  0  0  0
   -2.1717   -1.1620    0.8954 N   0  0  0  0  0  0  0  0  0  0  0  0
   -2.9994   -0.6454    0.5980 H   0  0  0  0  0  0  0  0  0  0  0  0
   -0.9203   -0.4107    1.0801 C   0  0  1  0  0  0  0  0  0  0  0  0
   -0.2388   -0.9017    1.7828 H   0  0  0  0  0  0  0  0  0  0  0  0
   -0.2860   -0.3766   -0.3392 C   0  0  0  0  0  0  0  0  0  0  0  0
    0.2935   -1.2998   -0.4468 H   0  0  0  0  0  0  0  0  0  0  0  0
   -1.0895   -0.4234   -1.0837 H   0  0  0  0  0  0  0  0  0  0  0  0
    0.6098    0.8039   -0.7709 C   0  0  0  0  0  0  0  0  0  0  0  0
    1.1067    0.5095   -1.7021 H   0  0  0  0  0  0  0  0  0  0  0  0
   -0.0348    1.6593   -1.0056 H   0  0  0  0  0  0  0  0  0  0  0  0
    1.6625    1.2599    0.2502 C   0  0  0  0  0  0  0  0  0  0  0  0
    1.2005    1.8651    1.0299 H   0  0  0  0  0  0  0  0  0  0  0  0
    2.1261    0.3827    0.7147 H   0  0  0  0  0  0  0  0  0  0  0  0
    2.7239    2.0993   -0.4588 C   0  0  0  0  0  0  0  0  0  0  0  0
    3.1887    1.4974   -1.2537 H   0  0  0  0  0  0  0  0  0  0  0  0
    2.2370    2.9572   -0.9464 H   0  0  0  0  0  0  0  0  0  0  0  0
    3.7323    2.5491    0.5252 N   0  3  0  0  0  0  0  0  0  0  0  0
    4.1748    1.7410    0.9670 H   0  0  0  0  0  0  0  0  0  0  0  0
    4.4515    3.1072    0.0596 H   0  0  0  0  0  0  0  0  0  0  0  0
    3.2859    3.1195    1.2459 H   0  0  0  0  0  0  0  0  0  0  0  0
   -1.3011    0.9684    1.6604 C   0  0  0  0  0  0  0  0  0  0  0  0
   -2.1260    1.6619    1.0802 O   0  0  0  0  0  0  0  0  0  0  0  0
   -0.5983    1.5106    2.7236 N   0  0  0  0  0  0  0  0  0  0  0  0
   -0.0859    0.8435    3.2954 H   0  0  0  0  0  0  0  0  0  0  0  0
   -1.0120    2.7616    3.3546 C   0  0  0  0  0  0  0  0  0  0  0  0
   -2.0220    2.6664    3.7685 H   0  0  0  0  0  0  0  0  0  0  0  0
   -0.3282    3.0216    4.1685 H   0  0  0  0  0  0  0  0  0  0  0  0
   -1.0089    3.5814    2.6282 H   0  0  0  0  0  0  0  0  0  0  0  0
  1  2  1  0  0  0  0
  2  3  1  0  0  0  0
  2  4  1  0  0  0  0
  2  5  1  0  0  0  0
  5  6  2  0  0  0  0
  5  7  1  0  0  0  0
  7  8  1  0  0  0  0
  7  9  1  0  0  0  0
  9 10  1  0  0  0  0
  9 11  1  0  0  0  0
  9 27  1  0  0  0  0
 11 12  1  0  0  0  0
 11 13  1  0  0  0  0
 11 14  1  0  0  0  0
 14 15  1  0  0  0  0
 14 16  1  0  0  0  0
 14 17  1  0  0  0  0
 17 18  1  0  0  0  0
 17 19  1  0  0  0  0
 17 20  1  0  0  0  0
 20 21  1  0  0  0  0
 20 22  1  0  0  0  0
 20 23  1  0  0  0  0
 23 24  1  0  0  0  0
 23 25  1  0  0  0  0
 23 26  1  0  0  0  0
 27 28  2  0  0  0  0
 27 29  1  0  0  0  0
 29 30  1  0  0  0  0
 29 31  1  0  0  0  0
 31 32  1  0  0  0  0
 31 33  1  0  0  0  0
 31 34  1  0  0  0  0
M  CHG  1  23   1
M  END
$$$$

  -OEChem-02102214153D

 34 33  0     1  0  0  0  0  0999 V2000
   -3.7082   -4.1050    1.6190 H   0  0  0  0  0  0  0  0  0  0  0  0
   -3.7338   -3.0841    1.2272 C   0  0  0  0  0  0  0  0  0  0  0  0
   -4.4548   -2.5031    1.8073 H   0  0  0  0  0  0  0  0  0  0  0  0
   -4.0573   -3.1161    0.1840 H   0  0  0  0  0  0  0  0  0  0  0  0
   -2.3582   -2.4529    1.3249 C   0  0  0  0  0  0  0  0  0  0  0  0
   -1.4213   -3.0795    1.7945 O   0  0  0  0  0  0  0  0  0  0  0  0
   -2.1529   -1.1604    0.8875 N   0  0  0  0  0  0  0  0  0  0  0  0
   -2.9666   -0.6325    0.5719 H   0  0  0  0  0  0  0  0  0  0  0  0
   -0.8760   -0.4429    1.0165 C   0  0  1  0  0  0  0  0  0  0  0  0
   -0.2051   -0.9238    1.7360 H   0  0  0  0  0  0  0  0  0  0  0  0
   -0.2429   -0.4849   -0.4010 C   0  0  0  0  0  0  0  0  0  0  0  0
    0.3073   -1.4272   -0.4964 H   0  0  0  0  0  0  0  0  0  0  0  0
   -1.0504   -0.5144   -1.1418 H   0  0  0  0  0  0  0  0  0  0  0  0
    0.6754    0.6784   -0.8214 C   0  0  0  0  0  0  0  0  0  0  0  0
    1.0065    0.4945   -1.8497 H   0  0  0  0  0  0  0  0  0  0  0  0
    0.0955    1.6084   -0.8328 H   0  0  0  0  0  0  0  0  0  0  0  0
    1.9070    0.8487    0.0797 C   0  0  0  0  0  0  0  0  0  0  0  0
    1.6131    1.0375    1.1131 H   0  0  0  0  0  0  0  0  0  0  0  0
    2.4925   -0.0772    0.0611 H   0  0  0  0  0  0  0  0  0  0  0  0
    2.7493    2.0136   -0.4360 C   0  0  0  0  0  0  0  0  0  0  0  0
    2.9965    1.8389   -1.4937 H   0  0  0  0  0  0  0  0  0  0  0  0
    2.1518    2.9367   -0.3924 H   0  0  0  0  0  0  0  0  0  0  0  0
    3.9761    2.1311    0.3817 N   0  3  0  0  0  0  0  0  0  0  0  0
    4.5100    1.2607    0.3369 H   0  0  0  0  0  0  0  0  0  0  0  0
    4.5587    2.8952    0.0319 H   0  0  0  0  0  0  0  0  0  0  0  0
    3.7308    2.3207    1.3550 H   0  0  0  0  0  0  0  0  0  0  0  0
   -1.1888    0.9814    1.5285 C   0  0  0  0  0  0  0  0  0  0  0  0
   -2.0128    1.6683    0.9392 O   0  0  0  0  0  0  0  0  0  0  0  0
   -0.4467    1.5539    2.5482 N   0  0  0  0  0  0  0  0  0  0  0  0
    0.0499    0.9003    3.1485 H   0  0  0  0  0  0  0  0  0  0  0  0
   -0.7995    2.8540    3.1148 C   0  0  0  0  0  0  0  0  0  0  0  0
   -1.8074    2.8253    3.5438 H   0  0  0  0  0  0  0  0  0  0  0  0
   -0.0952    3.1285    3.9063 H   0  0  0  0  0  0  0  0  0  0  0  0
   -0.7705    3.6326    2.3448 H   0  0  0  0  0  0  0  0  0  0  0  0
  1  2  1  0  0  0  0
  2  3  1  0  0  0  0
  2  4  1  0  0  0  0
  2  5  1  0  0  0  0
  5  6  2  0  0  0  0
  5  7  1  0  0  0  0
  7  8  1  0  0  0  0
  7  9  1  0  0  0  0
  9 10  1  0  0  0  0
  9 11  1  0  0  0  0
  9 27  1  0  0  0  0
 11 12  1  0  0  0  0
 11 13  1  0  0  0  0
 11 14  1  0  0  0  0
 14 15  1  0  0  0  0
 14 16  1  0  0  0  0
 14 17  1  0  0  0  0
 17 18  1  0  0  0  0
 17 19  1  0  0  0  0
 17 20  1  0  0  0  0
 20 21  1  0  0  0  0
 20 22  1  0  0  0  0
 20 23  1  0  0  0  0
 23 24  1  0  0  0  0
 23 25  1  0  0  0  0
 23 26  1  0  0  0  0
 27 28  2  0  0  0  0
 27 29  1  0  0  0  0
 29 30  1  0  0  0  0
 29 31  1  0  0  0  0
 31 32  1  0  0  0  0
 31 33  1  0  0  0  0
 31 34  1  0  0  0  0
M  CHG  1  23   1
M  END
$$$$

  -OEChem-02102214153D

 34 33  0     1  0  0  0  0  0999 V2000
   -3.6726   -4.1030    1.6841 H   0  0  0  0  0  0  0  0  0  0  0  0
   -3.7161   -3.0848    1.2870 C   0  0  0  0  0  0  0  0  0  0  0  0
   -4.4080   -2.4992    1.8975 H   0  0  0  0  0  0  0  0  0  0  0  0
   -4.0900   -3.1233    0.2609 H   0  0  0  0  0  0  0  0  0  0  0  0
   -2.3367   -2.4543    1.3142 C   0  0  0  0  0  0  0  0  0  0  0  0
   -1.3774   -3.0808    1.7366 O   0  0  0  0  0  0  0  0  0  0  0  0
   -2.1537   -1.1616    0.8675 N   0  0  0  0  0  0  0  0  0  0  0  0
   -2.9831   -0.6347    0.5942 H   0  0  0  0  0  0  0  0  0  0  0  0
   -0.8806   -0.4323    0.9582 C   0  0  1  0  0  0  0  0  0  0  0  0
   -0.2047   -0.9070    1.6765 H   0  0  0  0  0  0  0  0  0  0  0  0
   -0.2360   -0.4930   -0.4516 C   0  0  0  0  0  0  0  0  0  0  0  0
    0.3163   -1.4340   -0.5481 H   0  0  0  0  0  0  0  0  0  0  0  0
   -1.0455   -0.5255   -1.1899 H   0  0  0  0  0  0  0  0  0  0  0  0
    0.6640    0.6900   -0.8581 C   0  0  0  0  0  0  0  0  0  0  0  0
    0.8283    0.6280   -1.9398 H   0  0  0  0  0  0  0  0  0  0  0  0
    0.1643    1.6466   -0.6720 H   0  0  0  0  0  0  0  0  0  0  0  0
    2.0254    0.6406   -0.1548 C   0  0  0  0  0  0  0  0  0  0  0  0
    1.8870    0.6888    0.9299 H   0  0  0  0  0  0  0  0  0  0  0  0
    2.5209   -0.3073   -0.3926 H   0  0  0  0  0  0  0  0  0  0  0  0
    2.8834    1.8135   -0.6237 C   0  0  0  0  0  0  0  0  0  0  0  0
    2.9532    1.7929   -1.7215 H   0  0  0  0  0  0  0  0  0  0  0  0
    2.3865    2.7562   -0.3495 H   0  0  0  0  0  0  0  0  0  0  0  0
    4.2237    1.7140   -0.0062 N   0  3  0  0  0  0  0  0  0  0  0  0
    4.6704    0.8370   -0.2822 H   0  0  0  0  0  0  0  0  0  0  0  0
    4.8101    2.4943   -0.3113 H   0  0  0  0  0  0  0  0  0  0  0  0
    4.1426    1.7387    1.0117 H   0  0  0  0  0  0  0  0  0  0  0  0
   -1.1571    0.9965    1.4715 C   0  0  0  0  0  0  0  0  0  0  0  0
   -2.0117    1.6818    0.9262 O   0  0  0  0  0  0  0  0  0  0  0  0
   -0.3662    1.5577    2.4596 N   0  0  0  0  0  0  0  0  0  0  0  0
    0.1547    0.9010    3.0350 H   0  0  0  0  0  0  0  0  0  0  0  0
   -0.6767    2.8634    3.0364 C   0  0  0  0  0  0  0  0  0  0  0  0
   -1.6631    2.8470    3.5130 H   0  0  0  0  0  0  0  0  0  0  0  0
    0.0677    3.1339    3.7916 H   0  0  0  0  0  0  0  0  0  0  0  0
   -0.6766    3.6378    2.2616 H   0  0  0  0  0  0  0  0  0  0  0  0
  1  2  1  0  0  0  0
  2  3  1  0  0  0  0
  2  4  1  0  0  0  0
  2  5  1  0  0  0  0
  5  6  2  0  0  0  0
  5  7  1  0  0  0  0
  7  8  1  0  0  0  0
  7  9  1  0  0  0  0
  9 10  1  0  0  0  0
  9 11  1  0  0  0  0
  9 27  1  0  0  0  0
 11 12  1  0  0  0  0
 11 13  1  0  0  0  0
 11 14  1  0  0  0  0
 14 15  1  0  0  0  0
 14 16  1  0  0  0  0
 14 17  1  0  0  0  0
 17 18  1  0  0  0  0
 17 19  1  0  0  0  0
 17 20  1  0  0  0  0
 20 21  1  0  0  0  0
 20 22  1  0  0  0  0
 20 23  1  0  0  0  0
 23 24  1  0  0  0  0
 23 25  1  0  0  0  0
 23 26  1  0  0  0  0
 27 28  2  0  0  0  0
 27 29  1  0  0  0  0
 29 30  1  0  0  0  0
 29 31  1  0  0  0  0
 31 32  1  0  0  0  0
 31 33  1  0  0  0  0
 31 34  1  0  0  0  0
M  CHG  1  23   1
M  END
$$$$

  -OEChem-02102214153D

 34 33  0     1  0  0  0  0  0999 V2000
   -3.6454   -4.1032    1.6980 H   0  0  0  0  0  0  0  0  0  0  0  0
   -3.7001   -3.0844    1.3038 C   0  0  0  0  0  0  0  0  0  0  0  0
   -4.3782   -2.5014    1.9319 H   0  0  0  0  0  0  0  0  0  0  0  0
   -4.0982   -3.1219    0.2869 H   0  0  0  0  0  0  0  0  0  0  0  0
   -2.3214   -2.4519    1.2991 C   0  0  0  0  0  0  0  0  0  0  0  0
   -1.3504   -3.0828    1.6870 O   0  0  0  0  0  0  0  0  0  0  0  0
   -2.1508   -1.1556    0.8580 N   0  0  0  0  0  0  0  0  0  0  0  0
   -2.9880   -0.6259    0.6154 H   0  0  0  0  0  0  0  0  0  0  0  0
   -0.8805   -0.4208    0.9430 C   0  0  1  0  0  0  0  0  0  0  0  0
   -0.2032   -0.8939    1.6615 H   0  0  0  0  0  0  0  0  0  0  0  0
   -0.2301   -0.4825   -0.4641 C   0  0  0  0  0  0  0  0  0  0  0  0
    0.3119   -1.4288   -0.5661 H   0  0  0  0  0  0  0  0  0  0  0  0
   -1.0443   -0.5091   -1.1976 H   0  0  0  0  0  0  0  0  0  0  0  0
    0.6688    0.7029   -0.8788 C   0  0  0  0  0  0  0  0  0  0  0  0
    0.6286    0.7831   -1.9712 H   0  0  0  0  0  0  0  0  0  0  0  0
    0.3041    1.6571   -0.4877 H   0  0  0  0  0  0  0  0  0  0  0  0
    2.1265    0.4636   -0.4699 C   0  0  0  0  0  0  0  0  0  0  0  0
    2.1876    0.3571    0.6186 H   0  0  0  0  0  0  0  0  0  0  0  0
    2.4834   -0.4674   -0.9244 H   0  0  0  0  0  0  0  0  0  0  0  0
    2.9913    1.6346   -0.9313 C   0  0  0  0  0  0  0  0  0  0  0  0
    2.8661    1.7703   -2.0158 H   0  0  0  0  0  0  0  0  0  0  0  0
    2.6377    2.5574   -0.4480 H   0  0  0  0  0  0  0  0  0  0  0  0
    4.4042    1.3584   -0.5917 N   0  3  0  0  0  0  0  0  0  0  0  0
    4.7138    0.5029   -1.0575 H   0  0  0  0  0  0  0  0  0  0  0  0
    4.9969    2.1339   -0.8961 H   0  0  0  0  0  0  0  0  0  0  0  0
    4.5052    1.2405    0.4180 H   0  0  0  0  0  0  0  0  0  0  0  0
   -1.1591    1.0031    1.4666 C   0  0  0  0  0  0  0  0  0  0  0  0
   -2.0269    1.6846    0.9374 O   0  0  0  0  0  0  0  0  0  0  0  0
   -0.3613    1.5599    2.4508 N   0  0  0  0  0  0  0  0  0  0  0  0
    0.1920    0.9088    3.0015 H   0  0  0  0  0  0  0  0  0  0  0  0
   -0.6555    2.8663    3.0338 C   0  0  0  0  0  0  0  0  0  0  0  0
   -1.6319    2.8538    3.5305 H   0  0  0  0  0  0  0  0  0  0  0  0
    0.1057    3.1337    3.7733 H   0  0  0  0  0  0  0  0  0  0  0  0
   -0.6680    3.6404    2.2590 H   0  0  0  0  0  0  0  0  0  0  0  0
  1  2  1  0  0  0  0
  2  3  1  0  0  0  0
  2  4  1  0  0  0  0
  2  5  1  0  0  0  0
  5  6  2  0  0  0  0
  5  7  1  0  0  0  0
  7  8  1  0  0  0  0
  7  9  1  0  0  0  0
  9 10  1  0  0  0  0
  9 11  1  0  0  0  0
  9 27  1  0  0  0  0
 11 12  1  0  0  0  0
 11 13  1  0  0  0  0
 11 14  1  0  0  0  0
 14 15  1  0  0  0  0
 14 16  1  0  0  0  0
 14 17  1  0  0  0  0
 17 18  1  0  0  0  0
 17 19  1  0  0  0  0
 17 20  1  0  0  0  0
 20 21  1  0  0  0  0
 20 22  1  0  0  0  0
 20 23  1  0  0  0  0
 23 24  1  0  0  0  0
 23 25  1  0  0  0  0
 23 26  1  0  0  0  0
 27 28  2  0  0  0  0
 27 29  1  0  0  0  0
 29 30  1  0  0  0  0
 29 31  1  0  0  0  0
 31 32  1  0  0  0  0
 31 33  1  0  0  0  0
 31 34  1  0  0  0  0
M  CHG  1  23   1
M  END
$$$$

  -OEChem-02102214153D

 34 33  0     1  0  0  0  0  0999 V2000
   -3.6311   -4.0944    1.6948 H   0  0  0  0  0  0  0  0  0  0  0  0
   -3.6854   -3.0734    1.3064 C   0  0  0  0  0  0  0  0  0  0  0  0
   -4.3542   -2.4903    1.9441 H   0  0  0  0  0  0  0  0  0  0  0  0
   -4.0936   -3.1038    0.2934 H   0  0  0  0  0  0  0  0  0  0  0  0
   -2.3045   -2.4463    1.2916 C   0  0  0  0  0  0  0  0  0  0  0  0
   -1.3319   -3.0822    1.6671 O   0  0  0  0  0  0  0  0  0  0  0  0
   -2.1350   -1.1483    0.8551 N   0  0  0  0  0  0  0  0  0  0  0  0
   -2.9740   -0.6142    0.6278 H   0  0  0  0  0  0  0  0  0  0  0  0
   -0.8648   -0.4130    0.9445 C   0  0  1  0  0  0  0  0  0  0  0  0
   -0.1845   -0.8858    1.6606 H   0  0  0  0  0  0  0  0  0  0  0  0
   -0.2196   -0.4650   -0.4664 C   0  0  0  0  0  0  0  0  0  0  0  0
    0.3148   -1.4151   -0.5715 H   0  0  0  0  0  0  0  0  0  0  0  0
   -1.0373   -0.4902   -1.1963 H   0  0  0  0  0  0  0  0  0  0  0  0
    0.6826    0.7196   -0.8889 C   0  0  0  0  0  0  0  0  0  0  0  0
    0.4298    0.9841   -1.9221 H   0  0  0  0  0  0  0  0  0  0  0  0
    0.5089    1.6162   -0.2886 H   0  0  0  0  0  0  0  0  0  0  0  0
    2.1641    0.3271   -0.8361 C   0  0  0  0  0  0  0  0  0  0  0  0
    2.4284    0.0403    0.1878 H   0  0  0  0  0  0  0  0  0  0  0  0
    2.3332   -0.5383   -1.4868 H   0  0  0  0  0  0  0  0  0  0  0  0
    3.0318    1.4977   -1.2939 C   0  0  0  0  0  0  0  0  0  0  0  0
    2.7145    1.8103   -2.2998 H   0  0  0  0  0  0  0  0  0  0  0  0
    2.8679    2.3541   -0.6233 H   0  0  0  0  0  0  0  0  0  0  0  0
    4.4505    1.0789   -1.2918 N   0  3  0  0  0  0  0  0  0  0  0  0
    4.5823    0.2909   -1.9294 H   0  0  0  0  0  0  0  0  0  0  0  0
    5.0461    1.8529   -1.5948 H   0  0  0  0  0  0  0  0  0  0  0  0
    4.7302    0.7937   -0.3513 H   0  0  0  0  0  0  0  0  0  0  0  0
   -1.1609    1.0055    1.4739 C   0  0  0  0  0  0  0  0  0  0  0  0
   -2.0369    1.6782    0.9464 O   0  0  0  0  0  0  0  0  0  0  0  0
   -0.3741    1.5660    2.4645 N   0  0  0  0  0  0  0  0  0  0  0  0
    0.2067    0.9248    2.9983 H   0  0  0  0  0  0  0  0  0  0  0  0
   -0.6840    2.8634    3.0585 C   0  0  0  0  0  0  0  0  0  0  0  0
   -1.6649    2.8376    3.5457 H   0  0  0  0  0  0  0  0  0  0  0  0
    0.0678    3.1279    3.8086 H   0  0  0  0  0  0  0  0  0  0  0  0
   -0.6943    3.6463    2.2923 H   0  0  0  0  0  0  0  0  0  0  0  0
  1  2  1  0  0  0  0
  2  3  1  0  0  0  0
  2  4  1  0  0  0  0
  2  5  1  0  0  0  0
  5  6  2  0  0  0  0
  5  7  1  0  0  0  0
  7  8  1  0  0  0  0
  7  9  1  0  0  0  0
  9 10  1  0  0  0  0
  9 11  1  0  0  0  0
  9 27  1  0  0  0  0
 11 12  1  0  0  0  0
 11 13  1  0  0  0  0
 11 14  1  0  0  0  0
 14 15  1  0  0  0  0
 14 16  1  0  0  0  0
 14 17  1  0  0  0  0
 17 18  1  0  0  0  0
 17 19  1  0  0  0  0
 17 20  1  0  0  0  0
 20 21  1  0  0  0  0
 20 22  1  0  0  0  0
 20 23  1  0  0  0  0
 23 24  1  0  0  0  0
 23 25  1  0  0  0  0
 23 26  1  0  0  0  0
 27 28  2  0  0  0  0
 27 29  1  0  0  0  0
 29 30  1  0  0  0  0
 29 31  1  0  0  0  0
 31 32  1  0  0  0  0
 31 33  1  0  0  0  0
 31 34  1  0  0  0  0
M  CHG  1  23   1
M  END
$$$$

  -OEChem-02102214153D

 34 33  0     1  0  0  0  0  0999 V2000
   -3.6365   -4.0845    1.6893 H   0  0  0  0  0  0  0  0  0  0  0  0
   -3.6852   -3.0627    1.3019 C   0  0  0  0  0  0  0  0  0  0  0  0
   -4.3495   -2.4763    1.9416 H   0  0  0  0  0  0  0  0  0  0  0  0
   -4.0955   -3.0897    0.2895 H   0  0  0  0  0  0  0  0  0  0  0  0
   -2.3006   -2.4440    1.2847 C   0  0  0  0  0  0  0  0  0  0  0  0
   -1.3307   -3.0883    1.6524 O   0  0  0  0  0  0  0  0  0  0  0  0
   -2.1236   -1.1466    0.8499 N   0  0  0  0  0  0  0  0  0  0  0  0
   -2.9599   -0.6053    0.6302 H   0  0  0  0  0  0  0  0  0  0  0  0
   -0.8495   -0.4188    0.9417 C   0  0  1  0  0  0  0  0  0  0  0  0
   -0.1672   -0.8954    1.6534 H   0  0  0  0  0  0  0  0  0  0  0  0
   -0.2157   -0.4619   -0.4738 C   0  0  0  0  0  0  0  0  0  0  0  0
    0.3258   -1.4094   -0.5680 H   0  0  0  0  0  0  0  0  0  0  0  0
   -1.0275   -0.4968   -1.2096 H   0  0  0  0  0  0  0  0  0  0  0  0
    0.6897    0.7254   -0.8846 C   0  0  0  0  0  0  0  0  0  0  0  0
    0.2523    1.2093   -1.7656 H   0  0  0  0  0  0  0  0  0  0  0  0
    0.7510    1.4852   -0.1016 H   0  0  0  0  0  0  0  0  0  0  0  0
    2.1102    0.2459   -1.2090 C   0  0  0  0  0  0  0  0  0  0  0  0
    2.5476   -0.2252   -0.3216 H   0  0  0  0  0  0  0  0  0  0  0  0
    2.0644   -0.5049   -2.0061 H   0  0  0  0  0  0  0  0  0  0  0  0
    2.9721    1.4251   -1.6558 C   0  0  0  0  0  0  0  0  0  0  0  0
    2.4943    1.9159   -2.5166 H   0  0  0  0  0  0  0  0  0  0  0  0
    3.0184    2.1676   -0.8455 H   0  0  0  0  0  0  0  0  0  0  0  0
    4.3218    0.9324   -2.0074 N   0  3  0  0  0  0  0  0  0  0  0  0
    4.2577    0.2536   -2.7688 H   0  0  0  0  0  0  0  0  0  0  0  0
    4.9134    1.7108   -2.3067 H   0  0  0  0  0  0  0  0  0  0  0  0
    4.7516    0.4813   -1.1975 H   0  0  0  0  0  0  0  0  0  0  0  0
   -1.1472    0.9994    1.4731 C   0  0  0  0  0  0  0  0  0  0  0  0
   -2.0203    1.6731    0.9416 O   0  0  0  0  0  0  0  0  0  0  0  0
   -0.3647    1.5595    2.4673 N   0  0  0  0  0  0  0  0  0  0  0  0
    0.2283    0.9229    2.9934 H   0  0  0  0  0  0  0  0  0  0  0  0
   -0.6717    2.8583    3.0597 C   0  0  0  0  0  0  0  0  0  0  0  0
   -1.6573    2.8387    3.5374 H   0  0  0  0  0  0  0  0  0  0  0  0
    0.0749    3.1164    3.8172 H   0  0  0  0  0  0  0  0  0  0  0  0
   -0.6695    3.6421    2.2947 H   0  0  0  0  0  0  0  0  0  0  0  0
  1  2  1  0  0  0  0
  2  3  1  0  0  0  0
  2  4  1  0  0  0  0
  2  5  1  0  0  0  0
  5  6  2  0  0  0  0
  5  7  1  0  0  0  0
  7  8  1  0  0  0  0
  7  9  1  0  0  0  0
  9 10  1  0  0  0  0
  9 11  1  0  0  0  0
  9 27  1  0  0  0  0
 11 12  1  0  0  0  0
 11 13  1  0  0  0  0
 11 14  1  0  0  0  0
 14 15  1  0  0  0  0
 14 16  1  0  0  0  0
 14 17  1  0  0  0  0
 17 18  1  0  0  0  0
 17 19  1  0  0  0  0
 17 20  1  0  0  0  0
 20 21  1  0  0  0  0
 20 22  1  0  0  0  0
 20 23  1  0  0  0  0
 23 24  1  0  0  0  0
 23 25  1  0  0  0  0
 23 26  1  0  0  0  0
 27 28  2  0  0  0  0
 27 29  1  0  0  0  0
 29 30  1  0  0  0  0
 29 31  1  0  0  0  0
 31 32  1  0  0  0  0
 31 33  1  0  0  0  0
 31 34  1  0  0  0  0
M  CHG  1  23   1
M  END
$$$$

  -OEChem-02102214153D

 34 33  0     1  0  0  0  0  0999 V2000
   -3.6577   -4.0694    1.7212 H   0  0  0  0  0  0  0  0  0  0  0  0
   -3.6997   -3.0557    1.3130 C   0  0  0  0  0  0  0  0  0  0  0  0
   -4.3538   -2.4499    1.9449 H   0  0  0  0  0  0  0  0  0  0  0  0
   -4.1170   -3.0995    0.3041 H   0  0  0  0  0  0  0  0  0  0  0  0
   -2.3092   -2.4515    1.2738 C   0  0  0  0  0  0  0  0  0  0  0  0
   -1.3402   -3.1073    1.6226 O   0  0  0  0  0  0  0  0  0  0  0  0
   -2.1256   -1.1560    0.8361 N   0  0  0  0  0  0  0  0  0  0  0  0
   -2.9604   -0.6059    0.6337 H   0  0  0  0  0  0  0  0  0  0  0  0
   -0.8457   -0.4379    0.9229 C   0  0  1  0  0  0  0  0  0  0  0  0
   -0.1622   -0.9217    1.6289 H   0  0  0  0  0  0  0  0  0  0  0  0
   -0.2241   -0.4754   -0.4956 C   0  0  0  0  0  0  0  0  0  0  0  0
    0.3324   -1.4151   -0.5773 H   0  0  0  0  0  0  0  0  0  0  0  0
   -1.0274   -0.5207   -1.2398 H   0  0  0  0  0  0  0  0  0  0  0  0
    0.6799    0.7176   -0.8787 C   0  0  0  0  0  0  0  0  0  0  0  0
    0.1206    1.3965   -1.5329 H   0  0  0  0  0  0  0  0  0  0  0  0
    0.9761    1.2841    0.0089 H   0  0  0  0  0  0  0  0  0  0  0  0
    1.9635    0.2332   -1.5634 C   0  0  0  0  0  0  0  0  0  0  0  0
    2.5250   -0.4085   -0.8751 H   0  0  0  0  0  0  0  0  0  0  0  0
    1.6983   -0.3618   -2.4448 H   0  0  0  0  0  0  0  0  0  0  0  0
    2.8180    1.4281   -1.9800 C   0  0  0  0  0  0  0  0  0  0  0  0
    2.2299    2.0787   -2.6441 H   0  0  0  0  0  0  0  0  0  0  0  0
    3.0711    2.0205   -1.0885 H   0  0  0  0  0  0  0  0  0  0  0  0
    4.0364    0.9355   -2.6586 N   0  3  0  0  0  0  0  0  0  0  0  0
    3.7801    0.4035   -3.4928 H   0  0  0  0  0  0  0  0  0  0  0  0
    4.6270    1.7224   -2.9362 H   0  0  0  0  0  0  0  0  0  0  0  0
    4.5659    0.3289   -2.0295 H   0  0  0  0  0  0  0  0  0  0  0  0
   -1.1229    0.9859    1.4526 C   0  0  0  0  0  0  0  0  0  0  0  0
   -1.9869    1.6703    0.9196 O   0  0  0  0  0  0  0  0  0  0  0  0
   -0.3297    1.5399    2.4418 N   0  0  0  0  0  0  0  0  0  0  0  0
    0.2677    0.9022    2.9615 H   0  0  0  0  0  0  0  0  0  0  0  0
   -0.6061    2.8507    3.0225 C   0  0  0  0  0  0  0  0  0  0  0  0
   -1.5938    2.8601    3.4964 H   0  0  0  0  0  0  0  0  0  0  0  0
    0.1437    3.0958    3.7812 H   0  0  0  0  0  0  0  0  0  0  0  0
   -0.5803    3.6277    2.2509 H   0  0  0  0  0  0  0  0  0  0  0  0
  1  2  1  0  0  0  0
  2  3  1  0  0  0  0
  2  4  1  0  0  0  0
  2  5  1  0  0  0  0
  5  6  2  0  0  0  0
  5  7  1  0  0  0  0
  7  8  1  0  0  0  0
  7  9  1  0  0  0  0
  9 10  1  0  0  0  0
  9 11  1  0  0  0  0
  9 27  1  0  0  0  0
 11 12  1  0  0  0  0
 11 13  1  0  0  0  0
 11 14  1  0  0  0  0
 14 15  1  0  0  0  0
 14 16  1  0  0  0  0
 14 17  1  0  0  0  0
 17 18  1  0  0  0  0
 17 19  1  0  0  0  0
 17 20  1  0  0  0  0
 20 21  1  0  0  0  0
 20 22  1  0  0  0  0
 20 23  1  0  0  0  0
 23 24  1  0  0  0  0
 23 25  1  0  0  0  0
 23 26  1  0  0  0  0
 27 28  2  0  0  0  0
 27 29  1  0  0  0  0
 29 30  1  0  0  0  0
 29 31  1  0  0  0  0
 31 32  1  0  0  0  0
 31 33  1  0  0  0  0
 31 34  1  0  0  0  0
M  CHG  1  23   1
M  END
$$$$

  -OEChem-02102214153D

 34 33  0     1  0  0  0  0  0999 V2000
   -3.6886   -4.0532    1.7473 H   0  0  0  0  0  0  0  0  0  0  0  0
   -3.7233   -3.0423    1.3308 C   0  0  0  0  0  0  0  0  0  0  0  0
   -4.3601   -2.4226    1.9668 H   0  0  0  0  0  0  0  0  0  0  0  0
   -4.1560   -3.0890    0.3285 H   0  0  0  0  0  0  0  0  0  0  0  0
   -2.3262   -2.4558    1.2671 C   0  0  0  0  0  0  0  0  0  0  0  0
   -1.3609   -3.1227    1.6044 O   0  0  0  0  0  0  0  0  0  0  0  0
   -2.1336   -1.1639    0.8226 N   0  0  0  0  0  0  0  0  0  0  0  0
   -2.9655   -0.6044    0.6343 H   0  0  0  0  0  0  0  0  0  0  0  0
   -0.8474   -0.4563    0.9018 C   0  0  1  0  0  0  0  0  0  0  0  0
   -0.1668   -0.9452    1.6073 H   0  0  0  0  0  0  0  0  0  0  0  0
   -0.2273   -0.4973   -0.5155 C   0  0  0  0  0  0  0  0  0  0  0  0
    0.3367   -1.4331   -0.5927 H   0  0  0  0  0  0  0  0  0  0  0  0
   -1.0249   -0.5405   -1.2657 H   0  0  0  0  0  0  0  0  0  0  0  0
    0.6776    0.6988   -0.8710 C   0  0  0  0  0  0  0  0  0  0  0  0
    0.0629    1.5086   -1.2818 H   0  0  0  0  0  0  0  0  0  0  0  0
    1.1728    1.0758    0.0300 H   0  0  0  0  0  0  0  0  0  0  0  0
    1.7678    0.2790   -1.8639 C   0  0  0  0  0  0  0  0  0  0  0  0
    2.4068   -0.4839   -1.4053 H   0  0  0  0  0  0  0  0  0  0  0  0
    1.2960   -0.1595   -2.7506 H   0  0  0  0  0  0  0  0  0  0  0  0
    2.6057    1.4900   -2.2676 C   0  0  0  0  0  0  0  0  0  0  0  0
    1.9451    2.2620   -2.6895 H   0  0  0  0  0  0  0  0  0  0  0  0
    3.0756    1.9216   -1.3716 H   0  0  0  0  0  0  0  0  0  0  0  0
    3.6235    1.0641   -3.2530 N   0  3  0  0  0  0  0  0  0  0  0  0
    3.1660    0.6810   -4.0828 H   0  0  0  0  0  0  0  0  0  0  0  0
    4.1999    1.8616   -3.5311 H   0  0  0  0  0  0  0  0  0  0  0  0
    4.2255    0.3455   -2.8459 H   0  0  0  0  0  0  0  0  0  0  0  0
   -1.1006    0.9740    1.4254 C   0  0  0  0  0  0  0  0  0  0  0  0
   -1.9636    1.6645    0.8981 O   0  0  0  0  0  0  0  0  0  0  0  0
   -0.2944    1.5225    2.4069 N   0  0  0  0  0  0  0  0  0  0  0  0
    0.3041    0.8812    2.9214 H   0  0  0  0  0  0  0  0  0  0  0  0
   -0.5526    2.8376    2.9860 C   0  0  0  0  0  0  0  0  0  0  0  0
   -1.5351    2.8580    3.4699 H   0  0  0  0  0  0  0  0  0  0  0  0
    0.2072    3.0784    3.7361 H   0  0  0  0  0  0  0  0  0  0  0  0
   -0.5281    3.6115    2.2114 H   0  0  0  0  0  0  0  0  0  0  0  0
  1  2  1  0  0  0  0
  2  3  1  0  0  0  0
  2  4  1  0  0  0  0
  2  5  1  0  0  0  0
  5  6  2  0  0  0  0
  5  7  1  0  0  0  0
  7  8  1  0  0  0  0
  7  9  1  0  0  0  0
  9 10  1  0  0  0  0
  9 11  1  0  0  0  0
  9 27  1  0  0  0  0
 11 12  1  0  0  0  0
 11 13  1  0  0  0  0
 11 14  1  0  0  0  0
 14 15  1  0  0  0  0
 14 16  1  0  0  0  0
 14 17  1  0  0  0  0
 17 18  1  0  0  0  0
 17 19  1  0  0  0  0
 17 20  1  0  0  0  0
 20 21  1  0  0  0  0
 20 22  1  0  0  0  0
 20 23  1  0  0  0  0
 23 24  1  0  0  0  0
 23 25  1  0  0  0  0
 23 26  1  0  0  0  0
 27 28  2  0  0  0  0
 27 29  1  0  0  0  0
 29 30  1  0  0  0  0
 29 31  1  0  0  0  0
 31 32  1  0  0  0  0
 31 33  1  0  0  0  0
 31 34  1  0  0  0  0
M  CHG  1  23   1
M  END
$$$$

  -OEChem-02102214153D

 34 33  0     1  0  0  0  0  0999 V2000
   -3.7010   -4.0498    1.7659 H   0  0  0  0  0  0  0  0  0  0  0  0
   -3.7360   -3.0412    1.3437 C   0  0  0  0  0  0  0  0  0  0  0  0
   -4.3680   -2.4164    1.9797 H   0  0  0  0  0  0  0  0  0  0  0  0
   -4.1741   -3.0927    0.3440 H   0  0  0  0  0  0  0  0  0  0  0  0
   -2.3377   -2.4587    1.2682 C   0  0  0  0  0  0  0  0  0  0  0  0
   -1.3717   -3.1279    1.5985 O   0  0  0  0  0  0  0  0  0  0  0  0
   -2.1463   -1.1677    0.8204 N   0  0  0  0  0  0  0  0  0  0  0  0
   -2.9791   -0.6061    0.6440 H   0  0  0  0  0  0  0  0  0  0  0  0
   -0.8580   -0.4628    0.8858 C   0  0  1  0  0  0  0  0  0  0  0  0
   -0.1771   -0.9530    1.5899 H   0  0  0  0  0  0  0  0  0  0  0  0
   -0.2379   -0.5145   -0.5312 C   0  0  0  0  0  0  0  0  0  0  0  0
    0.3293   -1.4482   -0.6116 H   0  0  0  0  0  0  0  0  0  0  0  0
   -1.0391   -0.5562   -1.2776 H   0  0  0  0  0  0  0  0  0  0  0  0
    0.6640    0.6825   -0.8818 C   0  0  0  0  0  0  0  0  0  0  0  0
    0.0428    1.5682   -1.0606 H   0  0  0  0  0  0  0  0  0  0  0  0
    1.3317    0.8995   -0.0405 H   0  0  0  0  0  0  0  0  0  0  0  0
    1.5107    0.3760   -2.1223 C   0  0  0  0  0  0  0  0  0  0  0  0
    2.1679   -0.4761   -1.9159 H   0  0  0  0  0  0  0  0  0  0  0  0
    0.8494    0.1023   -2.9521 H   0  0  0  0  0  0  0  0  0  0  0  0
    2.3405    1.5996   -2.5034 C   0  0  0  0  0  0  0  0  0  0  0  0
    1.6673    2.4540   -2.6691 H   0  0  0  0  0  0  0  0  0  0  0  0
    3.0014    1.8657   -1.6653 H   0  0  0  0  0  0  0  0  0  0  0  0
    3.1199    1.2928   -3.7225 N   0  3  0  0  0  0  0  0  0  0  0  0
    2.4871    1.0605   -4.4908 H   0  0  0  0  0  0  0  0  0  0  0  0
    3.6851    2.1011   -3.9920 H   0  0  0  0  0  0  0  0  0  0  0  0
    3.7383    0.4975   -3.5514 H   0  0  0  0  0  0  0  0  0  0  0  0
   -1.0913    0.9706    1.4092 C   0  0  0  0  0  0  0  0  0  0  0  0
   -1.9607    1.6657    0.8986 O   0  0  0  0  0  0  0  0  0  0  0  0
   -0.2671    1.5124    2.3788 N   0  0  0  0  0  0  0  0  0  0  0  0
    0.3416    0.8689    2.8785 H   0  0  0  0  0  0  0  0  0  0  0  0
   -0.4986    2.8324    2.9576 C   0  0  0  0  0  0  0  0  0  0  0  0
   -1.4707    2.8659    3.4615 H   0  0  0  0  0  0  0  0  0  0  0  0
    0.2794    3.0672    3.6907 H   0  0  0  0  0  0  0  0  0  0  0  0
   -0.4806    3.6030    2.1796 H   0  0  0  0  0  0  0  0  0  0  0  0
  1  2  1  0  0  0  0
  2  3  1  0  0  0  0
  2  4  1  0  0  0  0
  2  5  1  0  0  0  0
  5  6  2  0  0  0  0
  5  7  1  0  0  0  0
  7  8  1  0  0  0  0
  7  9  1  0  0  0  0
  9 10  1  0  0  0  0
  9 11  1  0  0  0  0
  9 27  1  0  0  0  0
 11 12  1  0  0  0  0
 11 13  1  0  0  0  0
 11 14  1  0  0  0  0
 14 15  1  0  0  0  0
 14 16  1  0  0  0  0
 14 17  1  0  0  0  0
 17 18  1  0  0  0  0
 17 19  1  0  0  0  0
 17 20  1  0  0  0  0
 20 21  1  0  0  0  0
 20 22  1  0  0  0  0
 20 23  1  0  0  0  0
 23 24  1  0  0  0  0
 23 25  1  0  0  0  0
 23 26  1  0  0  0  0
 27 28  2  0  0  0  0
 27 29  1  0  0  0  0
 29 30  1  0  0  0  0
 29 31  1  0  0  0  0
 31 32  1  0  0  0  0
 31 33  1  0  0  0  0
 31 34  1  0  0  0  0
M  CHG  1  23   1
M  END
$$$$

  -OEChem-02102214153D

 34 33  0     1  0  0  0  0  0999 V2000
   -3.7125   -4.0508    1.7607 H   0  0  0  0  0  0  0  0  0  0  0  0
   -3.7410   -3.0417    1.3395 C   0  0  0  0  0  0  0  0  0  0  0  0
   -4.3788   -2.4166    1.9692 H   0  0  0  0  0  0  0  0  0  0  0  0
   -4.1685   -3.0914    0.3352 H   0  0  0  0  0  0  0  0  0  0  0  0
   -2.3411   -2.4614    1.2796 C   0  0  0  0  0  0  0  0  0  0  0  0
   -1.3807   -3.1291    1.6284 O   0  0  0  0  0  0  0  0  0  0  0  0
   -2.1416   -1.1755    0.8204 N   0  0  0  0  0  0  0  0  0  0  0  0
   -2.9712   -0.6158    0.6242 H   0  0  0  0  0  0  0  0  0  0  0  0
   -0.8525   -0.4724    0.8886 C   0  0  1  0  0  0  0  0  0  0  0  0
   -0.1739   -0.9644    1.5936 H   0  0  0  0  0  0  0  0  0  0  0  0
   -0.2392   -0.5299   -0.5265 C   0  0  0  0  0  0  0  0  0  0  0  0
    0.0970   -1.5551   -0.7170 H   0  0  0  0  0  0  0  0  0  0  0  0
   -1.0237   -0.2984   -1.2558 H   0  0  0  0  0  0  0  0  0  0  0  0
    0.9270    0.4488   -0.7480 C   0  0  0  0  0  0  0  0  0  0  0  0
    0.5874    1.4789   -0.5925 H   0  0  0  0  0  0  0  0  0  0  0  0
    1.7226    0.2393   -0.0243 H   0  0  0  0  0  0  0  0  0  0  0  0
    1.4658    0.3150   -2.1771 C   0  0  0  0  0  0  0  0  0  0  0  0
    1.8442   -0.7020   -2.3294 H   0  0  0  0  0  0  0  0  0  0  0  0
    0.6495    0.4842   -2.8885 H   0  0  0  0  0  0  0  0  0  0  0  0
    2.5801    1.3304   -2.4181 C   0  0  0  0  0  0  0  0  0  0  0  0
    2.1956    2.3421   -2.2208 H   0  0  0  0  0  0  0  0  0  0  0  0
    3.3971    1.1490   -1.7045 H   0  0  0  0  0  0  0  0  0  0  0  0
    3.0509    1.2037   -3.8145 N   0  3  0  0  0  0  0  0  0  0  0  0
    2.2782    1.3807   -4.4596 H   0  0  0  0  0  0  0  0  0  0  0  0
    3.7967    1.8785   -3.9977 H   0  0  0  0  0  0  0  0  0  0  0  0
    3.4090    0.2607   -3.9783 H   0  0  0  0  0  0  0  0  0  0  0  0
   -1.0740    0.9682    1.3938 C   0  0  0  0  0  0  0  0  0  0  0  0
   -1.9228    1.6690    0.8573 O   0  0  0  0  0  0  0  0  0  0  0  0
   -0.2501    1.5144    2.3614 N   0  0  0  0  0  0  0  0  0  0  0  0
    0.3426    0.8701    2.8789 H   0  0  0  0  0  0  0  0  0  0  0  0
   -0.4714    2.8456    2.9181 C   0  0  0  0  0  0  0  0  0  0  0  0
   -1.4466    2.8972    3.4145 H   0  0  0  0  0  0  0  0  0  0  0  0
    0.3037    3.0837    3.6533 H   0  0  0  0  0  0  0  0  0  0  0  0
   -0.4399    3.6039    2.1286 H   0  0  0  0  0  0  0  0  0  0  0  0
  1  2  1  0  0  0  0
  2  3  1  0  0  0  0
  2  4  1  0  0  0  0
  2  5  1  0  0  0  0
  5  6  2  0  0  0  0
  5  7  1  0  0  0  0
  7  8  1  0  0  0  0
  7  9  1  0  0  0  0
  9 10  1  0  0  0  0
  9 11  1  0  0  0  0
  9 27  1  0  0  0  0
 11 12  1  0  0  0  0
 11 13  1  0  0  0  0
 11 14  1  0  0  0  0
 14 15  1  0  0  0  0
 14 16  1  0  0  0  0
 14 17  1  0  0  0  0
 17 18  1  0  0  0  0
 17 19  1  0  0  0  0
 17 20  1  0  0  0  0
 20 21  1  0  0  0  0
 20 22  1  0  0  0  0
 20 23  1  0  0  0  0
 23 24  1  0  0  0  0
 23 25  1  0  0  0  0
 23 26  1  0  0  0  0
 27 28  2  0  0  0  0
 27 29  1  0  0  0  0
 29 30  1  0  0  0  0
 29 31  1  0  0  0  0
 31 32  1  0  0  0  0
 31 33  1  0  0  0  0
 31 34  1  0  0  0  0
M  CHG  1  23   1
M  END
$$$$

  -OEChem-02102214153D

 34 33  0     1  0  0  0  0  0999 V2000
   -3.7125   -4.0471    1.7482 H   0  0  0  0  0  0  0  0  0  0  0  0
   -3.7380   -3.0366    1.3301 C   0  0  0  0  0  0  0  0  0  0  0  0
   -4.3765   -2.4126    1.9600 H   0  0  0  0  0  0  0  0  0  0  0  0
   -4.1628   -3.0827    0.3244 H   0  0  0  0  0  0  0  0  0  0  0  0
   -2.3371   -2.4576    1.2762 C   0  0  0  0  0  0  0  0  0  0  0  0
   -1.3785   -3.1273    1.6254 O   0  0  0  0  0  0  0  0  0  0  0  0
   -2.1359   -1.1692    0.8247 N   0  0  0  0  0  0  0  0  0  0  0  0
   -2.9650   -0.6088    0.6297 H   0  0  0  0  0  0  0  0  0  0  0  0
   -0.8466   -0.4666    0.8977 C   0  0  1  0  0  0  0  0  0  0  0  0
   -0.1672   -0.9608    1.6005 H   0  0  0  0  0  0  0  0  0  0  0  0
   -0.2351   -0.5212   -0.5199 C   0  0  0  0  0  0  0  0  0  0  0  0
    0.0906   -1.5464   -0.7276 H   0  0  0  0  0  0  0  0  0  0  0  0
   -1.0317   -0.2801   -1.2328 H   0  0  0  0  0  0  0  0  0  0  0  0
    0.9362    0.4508   -0.7637 C   0  0  0  0  0  0  0  0  0  0  0  0
    0.6981    1.4479   -0.3799 H   0  0  0  0  0  0  0  0  0  0  0  0
    1.8252    0.0898   -0.2347 H   0  0  0  0  0  0  0  0  0  0  0  0
    1.2130    0.5781   -2.2669 C   0  0  0  0  0  0  0  0  0  0  0  0
    1.4846   -0.4041   -2.6696 H   0  0  0  0  0  0  0  0  0  0  0  0
    0.3025    0.9146   -2.7756 H   0  0  0  0  0  0  0  0  0  0  0  0
    2.3389    1.5785   -2.5162 C   0  0  0  0  0  0  0  0  0  0  0  0
    2.0703    2.5440   -2.0625 H   0  0  0  0  0  0  0  0  0  0  0  0
    3.2542    1.2285   -2.0166 H   0  0  0  0  0  0  0  0  0  0  0  0
    2.5420    1.7162   -3.9747 N   0  3  0  0  0  0  0  0  0  0  0  0
    1.6789    2.0395   -4.4167 H   0  0  0  0  0  0  0  0  0  0  0  0
    3.2849    2.3921   -4.1650 H   0  0  0  0  0  0  0  0  0  0  0  0
    2.8023    0.8141   -4.3781 H   0  0  0  0  0  0  0  0  0  0  0  0
   -1.0773    0.9692    1.4115 C   0  0  0  0  0  0  0  0  0  0  0  0
   -1.9189    1.6736    0.8680 O   0  0  0  0  0  0  0  0  0  0  0  0
   -0.2588    1.5128    2.3849 N   0  0  0  0  0  0  0  0  0  0  0  0
    0.3357    0.8678    2.9000 H   0  0  0  0  0  0  0  0  0  0  0  0
   -0.4846    2.8408    2.9474 C   0  0  0  0  0  0  0  0  0  0  0  0
   -1.4636    2.8883    3.4364 H   0  0  0  0  0  0  0  0  0  0  0  0
    0.2849    3.0750    3.6898 H   0  0  0  0  0  0  0  0  0  0  0  0
   -0.4476    3.6041    2.1627 H   0  0  0  0  0  0  0  0  0  0  0  0
  1  2  1  0  0  0  0
  2  3  1  0  0  0  0
  2  4  1  0  0  0  0
  2  5  1  0  0  0  0
  5  6  2  0  0  0  0
  5  7  1  0  0  0  0
  7  8  1  0  0  0  0
  7  9  1  0  0  0  0
  9 10  1  0  0  0  0
  9 11  1  0  0  0  0
  9 27  1  0  0  0  0
 11 12  1  0  0  0  0
 11 13  1  0  0  0  0
 11 14  1  0  0  0  0
 14 15  1  0  0  0  0
 14 16  1  0  0  0  0
 14 17  1  0  0  0  0
 17 18  1  0  0  0  0
 17 19  1  0  0  0  0
 17 20  1  0  0  0  0
 20 21  1  0  0  0  0
 20 22  1  0  0  0  0
 20 23  1  0  0  0  0
 23 24  1  0  0  0  0
 23 25  1  0  0  0  0
 23 26  1  0  0  0  0
 27 28  2  0  0  0  0
 27 29  1  0  0  0  0
 29 30  1  0  0  0  0
 29 31  1  0  0  0  0
 31 32  1  0  0  0  0
 31 33  1  0  0  0  0
 31 34  1  0  0  0  0
M  CHG  1  23   1
M  END
$$$$

  -OEChem-02102214153D

 34 33  0     1  0  0  0  0  0999 V2000
   -3.7149   -4.0455    1.7436 H   0  0  0  0  0  0  0  0  0  0  0  0
   -3.7381   -3.0343    1.3275 C   0  0  0  0  0  0  0  0  0  0  0  0
   -4.3823   -2.4120    1.9534 H   0  0  0  0  0  0  0  0  0  0  0  0
   -4.1542   -3.0786    0.3183 H   0  0  0  0  0  0  0  0  0  0  0  0
   -2.3371   -2.4551    1.2862 C   0  0  0  0  0  0  0  0  0  0  0  0
   -1.3815   -3.1236    1.6456 O   0  0  0  0  0  0  0  0  0  0  0  0
   -2.1323   -1.1674    0.8346 N   0  0  0  0  0  0  0  0  0  0  0  0
   -2.9595   -0.6077    0.6299 H   0  0  0  0  0  0  0  0  0  0  0  0
   -0.8406   -0.4681    0.9068 C   0  0  1  0  0  0  0  0  0  0  0  0
   -0.1575   -0.9633    1.6055 H   0  0  0  0  0  0  0  0  0  0  0  0
   -0.2408   -0.5217   -0.5171 C   0  0  0  0  0  0  0  0  0  0  0  0
    0.0736   -1.5482   -0.7354 H   0  0  0  0  0  0  0  0  0  0  0  0
   -1.0500   -0.2778   -1.2145 H   0  0  0  0  0  0  0  0  0  0  0  0
    0.9360    0.4424   -0.7848 C   0  0  0  0  0  0  0  0  0  0  0  0
    0.8485    1.3523   -0.1850 H   0  0  0  0  0  0  0  0  0  0  0  0
    1.8747   -0.0477   -0.5028 H   0  0  0  0  0  0  0  0  0  0  0  0
    0.9613    0.8577   -2.2613 C   0  0  0  0  0  0  0  0  0  0  0  0
    1.0868   -0.0320   -2.8887 H   0  0  0  0  0  0  0  0  0  0  0  0
    0.0046    1.3251   -2.5208 H   0  0  0  0  0  0  0  0  0  0  0  0
    2.0972    1.8450   -2.5140 C   0  0  0  0  0  0  0  0  0  0  0  0
    1.9855    2.7031   -1.8347 H   0  0  0  0  0  0  0  0  0  0  0  0
    3.0575    1.3644   -2.2759 H   0  0  0  0  0  0  0  0  0  0  0  0
    2.0488    2.2783   -3.9272 N   0  3  0  0  0  0  0  0  0  0  0  0
    1.1453    2.7133   -4.1265 H   0  0  0  0  0  0  0  0  0  0  0  0
    2.7911    2.9559   -4.1138 H   0  0  0  0  0  0  0  0  0  0  0  0
    2.1712    1.4729   -4.5441 H   0  0  0  0  0  0  0  0  0  0  0  0
   -1.0762    0.9675    1.4214 C   0  0  0  0  0  0  0  0  0  0  0  0
   -1.9026    1.6781    0.8618 O   0  0  0  0  0  0  0  0  0  0  0  0
   -0.2604    1.5122    2.3967 N   0  0  0  0  0  0  0  0  0  0  0  0
    0.3247    0.8649    2.9197 H   0  0  0  0  0  0  0  0  0  0  0  0
   -0.4862    2.8414    2.9563 C   0  0  0  0  0  0  0  0  0  0  0  0
   -1.4679    2.8929    3.4398 H   0  0  0  0  0  0  0  0  0  0  0  0
    0.2793    3.0738    3.7033 H   0  0  0  0  0  0  0  0  0  0  0  0
   -0.4418    3.6033    2.1708 H   0  0  0  0  0  0  0  0  0  0  0  0
  1  2  1  0  0  0  0
  2  3  1  0  0  0  0
  2  4  1  0  0  0  0
  2  5  1  0  0  0  0
  5  6  2  0  0  0  0
  5  7  1  0  0  0  0
  7  8  1  0  0  0  0
  7  9  1  0  0  0  0
  9 10  1  0  0  0  0
  9 11  1  0  0  0  0
  9 27  1  0  0  0  0
 11 12  1  0  0  0  0
 11 13  1  0  0  0  0
 11 14  1  0  0  0  0
 14 15  1  0  0  0  0
 14 16  1  0  0  0  0
 14 17  1  0  0  0  0
 17 18  1  0  0  0  0
 17 19  1  0  0  0  0
 17 20  1  0  0  0  0
 20 21  1  0  0  0  0
 20 22  1  0  0  0  0
 20 23  1  0  0  0  0
 23 24  1  0  0  0  0
 23 25  1  0  0  0  0
 23 26  1  0  0  0  0
 27 28  2  0  0  0  0
 27 29  1  0  0  0  0
 29 30  1  0  0  0  0
 29 31  1  0  0  0  0
 31 32  1  0  0  0  0
 31 33  1  0  0  0  0
 31 34  1  0  0  0  0
M  CHG  1  23   1
M  END
$$$$

  -OEChem-02102214153D

 34 33  0     1  0  0  0  0  0999 V2000
   -3.7243   -4.0431    1.7558 H   0  0  0  0  0  0  0  0  0  0  0  0
   -3.7443   -3.0332    1.3363 C   0  0  0  0  0  0  0  0  0  0  0  0
   -4.3947   -2.4093    1.9540 H   0  0  0  0  0  0  0  0  0  0  0  0
   -4.1509   -3.0815    0.3233 H   0  0  0  0  0  0  0  0  0  0  0  0
   -2.3433   -2.4535    1.3066 C   0  0  0  0  0  0  0  0  0  0  0  0
   -1.3931   -3.1169    1.6885 O   0  0  0  0  0  0  0  0  0  0  0  0
   -2.1327   -1.1712    0.8419 N   0  0  0  0  0  0  0  0  0  0  0  0
   -2.9562   -0.6151    0.6155 H   0  0  0  0  0  0  0  0  0  0  0  0
   -0.8375   -0.4778    0.9077 C   0  0  1  0  0  0  0  0  0  0  0  0
   -0.1507   -0.9710    1.6037 H   0  0  0  0  0  0  0  0  0  0  0  0
   -0.2532   -0.5348   -0.5222 C   0  0  0  0  0  0  0  0  0  0  0  0
    0.0615   -1.5626   -0.7338 H   0  0  0  0  0  0  0  0  0  0  0  0
   -1.0681   -0.3036   -1.2177 H   0  0  0  0  0  0  0  0  0  0  0  0
    0.9274    0.4236   -0.8025 C   0  0  0  0  0  0  0  0  0  0  0  0
    1.0276    1.1811   -0.0210 H   0  0  0  0  0  0  0  0  0  0  0  0
    1.8588   -0.1534   -0.8072 H   0  0  0  0  0  0  0  0  0  0  0  0
    0.7362    1.1307   -2.1504 C   0  0  0  0  0  0  0  0  0  0  0  0
    0.7045    0.3856   -2.9534 H   0  0  0  0  0  0  0  0  0  0  0  0
   -0.2221    1.6633   -2.1403 H   0  0  0  0  0  0  0  0  0  0  0  0
    1.8675    2.1239   -2.3979 C   0  0  0  0  0  0  0  0  0  0  0  0
    1.9282    2.8193   -1.5477 H   0  0  0  0  0  0  0  0  0  0  0  0
    2.8242    1.5832   -2.4455 H   0  0  0  0  0  0  0  0  0  0  0  0
    1.5945    2.8498   -3.6570 N   0  3  0  0  0  0  0  0  0  0  0  0
    0.6955    3.3323   -3.5908 H   0  0  0  0  0  0  0  0  0  0  0  0
    2.3286    3.5390   -3.8334 H   0  0  0  0  0  0  0  0  0  0  0  0
    1.5601    2.1927   -4.4388 H   0  0  0  0  0  0  0  0  0  0  0  0
   -1.0681    0.9640    1.4084 C   0  0  0  0  0  0  0  0  0  0  0  0
   -1.8717    1.6822    0.8248 O   0  0  0  0  0  0  0  0  0  0  0  0
   -0.2504    1.5135    2.3796 N   0  0  0  0  0  0  0  0  0  0  0  0
    0.3201    0.8645    2.9171 H   0  0  0  0  0  0  0  0  0  0  0  0
   -0.4700    2.8490    2.9268 C   0  0  0  0  0  0  0  0  0  0  0  0
   -1.4526    2.9099    3.4070 H   0  0  0  0  0  0  0  0  0  0  0  0
    0.2946    3.0833    3.6741 H   0  0  0  0  0  0  0  0  0  0  0  0
   -0.4190    3.6040    2.1353 H   0  0  0  0  0  0  0  0  0  0  0  0
  1  2  1  0  0  0  0
  2  3  1  0  0  0  0
  2  4  1  0  0  0  0
  2  5  1  0  0  0  0
  5  6  2  0  0  0  0
  5  7  1  0  0  0  0
  7  8  1  0  0  0  0
  7  9  1  0  0  0  0
  9 10  1  0  0  0  0
  9 11  1  0  0  0  0
  9 27  1  0  0  0  0
 11 12  1  0  0  0  0
 11 13  1  0  0  0  0
 11 14  1  0  0  0  0
 14 15  1  0  0  0  0
 14 16  1  0  0  0  0
 14 17  1  0  0  0  0
 17 18  1  0  0  0  0
 17 19  1  0  0  0  0
 17 20  1  0  0  0  0
 20 21  1  0  0  0  0
 20 22  1  0  0  0  0
 20 23  1  0  0  0  0
 23 24  1  0  0  0  0
 23 25  1  0  0  0  0
 23 26  1  0  0  0  0
 27 28  2  0  0  0  0
 27 29  1  0  0  0  0
 29 30  1  0  0  0  0
 29 31  1  0  0  0  0
 31 32  1  0  0  0  0
 31 33  1  0  0  0  0
 31 34  1  0  0  0  0
M  CHG  1  23   1
M  END
$$$$

  -OEChem-02102214153D

 34 33  0     1  0  0  0  0  0999 V2000
   -3.7348   -4.0419    1.7733 H   0  0  0  0  0  0  0  0  0  0  0  0
   -3.7529   -3.0365    1.3428 C   0  0  0  0  0  0  0  0  0  0  0  0
   -4.4163   -2.4099    1.9438 H   0  0  0  0  0  0  0  0  0  0  0  0
   -4.1437   -3.0980    0.3244 H   0  0  0  0  0  0  0  0  0  0  0  0
   -2.3541   -2.4499    1.3276 C   0  0  0  0  0  0  0  0  0  0  0  0
   -1.4075   -3.1030    1.7348 O   0  0  0  0  0  0  0  0  0  0  0  0
   -2.1404   -1.1739    0.8464 N   0  0  0  0  0  0  0  0  0  0  0  0
   -2.9615   -0.6258    0.5940 H   0  0  0  0  0  0  0  0  0  0  0  0
   -0.8436   -0.4822    0.8994 C   0  0  1  0  0  0  0  0  0  0  0  0
   -0.1534   -0.9714    1.5952 H   0  0  0  0  0  0  0  0  0  0  0  0
   -0.2690   -0.5514   -0.5333 C   0  0  0  0  0  0  0  0  0  0  0  0
    0.0614   -1.5798   -0.7177 H   0  0  0  0  0  0  0  0  0  0  0  0
   -1.0792   -0.3502   -1.2435 H   0  0  0  0  0  0  0  0  0  0  0  0
    0.9097    0.4088   -0.8127 C   0  0  0  0  0  0  0  0  0  0  0  0
    1.1971    0.9664    0.0831 H   0  0  0  0  0  0  0  0  0  0  0  0
    1.7830   -0.1839   -1.1072 H   0  0  0  0  0  0  0  0  0  0  0  0
    0.5488    1.3768   -1.9473 C   0  0  0  0  0  0  0  0  0  0  0  0
    0.3724    0.8101   -2.8683 H   0  0  0  0  0  0  0  0  0  0  0  0
   -0.3795    1.8983   -1.6856 H   0  0  0  0  0  0  0  0  0  0  0  0
    1.6587    2.3998   -2.1637 C   0  0  0  0  0  0  0  0  0  0  0  0
    1.8668    2.9134   -1.2135 H   0  0  0  0  0  0  0  0  0  0  0  0
    2.5818    1.8831   -2.4649 H   0  0  0  0  0  0  0  0  0  0  0  0
    1.2120    3.3578   -3.1977 N   0  3  0  0  0  0  0  0  0  0  0  0
    0.3405    3.8037   -2.9017 H   0  0  0  0  0  0  0  0  0  0  0  0
    1.9215    4.0789   -3.3427 H   0  0  0  0  0  0  0  0  0  0  0  0
    1.0489    2.8687   -4.0798 H   0  0  0  0  0  0  0  0  0  0  0  0
   -1.0568    0.9692    1.3817 C   0  0  0  0  0  0  0  0  0  0  0  0
   -1.8419    1.6967    0.7835 O   0  0  0  0  0  0  0  0  0  0  0  0
   -0.2259    1.5198    2.3413 N   0  0  0  0  0  0  0  0  0  0  0  0
    0.3278    0.8656    2.8904 H   0  0  0  0  0  0  0  0  0  0  0  0
   -0.4272    2.8621    2.8789 C   0  0  0  0  0  0  0  0  0  0  0  0
   -1.4005    2.9343    3.3762 H   0  0  0  0  0  0  0  0  0  0  0  0
    0.3525    3.0977    3.6102 H   0  0  0  0  0  0  0  0  0  0  0  0
   -0.3853    3.6099    2.0802 H   0  0  0  0  0  0  0  0  0  0  0  0
  1  2  1  0  0  0  0
  2  3  1  0  0  0  0
  2  4  1  0  0  0  0
  2  5  1  0  0  0  0
  5  6  2  0  0  0  0
  5  7  1  0  0  0  0
  7  8  1  0  0  0  0
  7  9  1  0  0  0  0
  9 10  1  0  0  0  0
  9 11  1  0  0  0  0
  9 27  1  0  0  0  0
 11 12  1  0  0  0  0
 11 13  1  0  0  0  0
 11 14  1  0  0  0  0
 14 15  1  0  0  0  0
 14 16  1  0  0  0  0
 14 17  1  0  0  0  0
 17 18  1  0  0  0  0
 17 19  1  0  0  0  0
 17 20  1  0  0  0  0
 20 21  1  0  0  0  0
 20 22  1  0  0  0  0
 20 23  1  0  0  0  0
 23 24  1  0  0  0  0
 23 25  1  0  0  0  0
 23 26  1  0  0  0  0
 27 28  2  0  0  0  0
 27 29  1  0  0  0  0
 29 30  1  0  0  0  0
 29 31  1  0  0  0  0
 31 32  1  0  0  0  0
 31 33  1  0  0  0  0
 31 34  1  0  0  0  0
M  CHG  1  23   1
M  END
$$$$

  -OEChem-02102214153D

 34 33  0     1  0  0  0  0  0999 V2000
   -3.7138   -4.0430    1.7984 H   0  0  0  0  0  0  0  0  0  0  0  0
   -3.7449   -3.0368    1.3703 C   0  0  0  0  0  0  0  0  0  0  0  0
   -4.4025   -2.4151    1.9828 H   0  0  0  0  0  0  0  0  0  0  0  0
   -4.1508   -3.0983    0.3576 H   0  0  0  0  0  0  0  0  0  0  0  0
   -2.3503   -2.4411    1.3348 C   0  0  0  0  0  0  0  0  0  0  0  0
   -1.3937   -3.0876    1.7290 O   0  0  0  0  0  0  0  0  0  0  0  0
   -2.1535   -1.1625    0.8532 N   0  0  0  0  0  0  0  0  0  0  0  0
   -2.9824   -0.6219    0.6104 H   0  0  0  0  0  0  0  0  0  0  0  0
   -0.8611   -0.4618    0.8813 C   0  0  1  0  0  0  0  0  0  0  0  0
   -0.1669   -0.9465    1.5765 H   0  0  0  0  0  0  0  0  0  0  0  0
   -0.2842   -0.5537   -0.5495 C   0  0  0  0  0  0  0  0  0  0  0  0
    0.0659   -1.5812   -0.6988 H   0  0  0  0  0  0  0  0  0  0  0  0
   -1.0866   -0.3853   -1.2764 H   0  0  0  0  0  0  0  0  0  0  0  0
    0.8835    0.4118   -0.8409 C   0  0  0  0  0  0  0  0  0  0  0  0
    1.3331    0.7707    0.0907 H   0  0  0  0  0  0  0  0  0  0  0  0
    1.6640   -0.1360   -1.3810 H   0  0  0  0  0  0  0  0  0  0  0  0
    0.4141    1.5852   -1.7147 C   0  0  0  0  0  0  0  0  0  0  0  0
    0.1037    1.2049   -2.6943 H   0  0  0  0  0  0  0  0  0  0  0  0
   -0.4554    2.0615   -1.2517 H   0  0  0  0  0  0  0  0  0  0  0  0
    1.5211    2.6195   -1.8825 C   0  0  0  0  0  0  0  0  0  0  0  0
    1.8756    2.9341   -0.8901 H   0  0  0  0  0  0  0  0  0  0  0  0
    2.3746    2.1638   -2.4057 H   0  0  0  0  0  0  0  0  0  0  0  0
    0.9703    3.7659   -2.6368 N   0  3  0  0  0  0  0  0  0  0  0  0
    0.1644    4.1513   -2.1385 H   0  0  0  0  0  0  0  0  0  0  0  0
    1.6782    4.4956   -2.7397 H   0  0  0  0  0  0  0  0  0  0  0  0
    0.6683    3.4611   -3.5641 H   0  0  0  0  0  0  0  0  0  0  0  0
   -1.0595    0.9888    1.3701 C   0  0  0  0  0  0  0  0  0  0  0  0
   -1.8983    1.7059    0.8361 O   0  0  0  0  0  0  0  0  0  0  0  0
   -0.2041    1.5362    2.3096 N   0  0  0  0  0  0  0  0  0  0  0  0
    0.3774    0.8795    2.8265 H   0  0  0  0  0  0  0  0  0  0  0  0
   -0.4305    2.8524    2.8985 C   0  0  0  0  0  0  0  0  0  0  0  0
   -1.3908    2.8762    3.4253 H   0  0  0  0  0  0  0  0  0  0  0  0
    0.3622    3.0890    3.6151 H   0  0  0  0  0  0  0  0  0  0  0  0
   -0.4360    3.6269    2.1248 H   0  0  0  0  0  0  0  0  0  0  0  0
  1  2  1  0  0  0  0
  2  3  1  0  0  0  0
  2  4  1  0  0  0  0
  2  5  1  0  0  0  0
  5  6  2  0  0  0  0
  5  7  1  0  0  0  0
  7  8  1  0  0  0  0
  7  9  1  0  0  0  0
  9 10  1  0  0  0  0
  9 11  1  0  0  0  0
  9 27  1  0  0  0  0
 11 12  1  0  0  0  0
 11 13  1  0  0  0  0
 11 14  1  0  0  0  0
 14 15  1  0  0  0  0
 14 16  1  0  0  0  0
 14 17  1  0  0  0  0
 17 18  1  0  0  0  0
 17 19  1  0  0  0  0
 17 20  1  0  0  0  0
 20 21  1  0  0  0  0
 20 22  1  0  0  0  0
 20 23  1  0  0  0  0
 23 24  1  0  0  0  0
 23 25  1  0  0  0  0
 23 26  1  0  0  0  0
 27 28  2  0  0  0  0
 27 29  1  0  0  0  0
 29 30  1  0  0  0  0
 29 31  1  0  0  0  0
 31 32  1  0  0  0  0
 31 33  1  0  0  0  0
 31 34  1  0  0  0  0
M  CHG  1  23   1
M  END
$$$$

  -OEChem-02102214153D

 34 33  0     1  0  0  0  0  0999 V2000
   -3.6314   -4.1296    1.7043 H   0  0  0  0  0  0  0  0  0  0  0  0
   -3.7051   -3.0929    1.3635 C   0  0  0  0  0  0  0  0  0  0  0  0
   -4.3372   -2.5381    2.0610 H   0  0  0  0  0  0  0  0  0  0  0  0
   -4.1677   -3.0810    0.3739 H   0  0  0  0  0  0  0  0  0  0  0  0
   -2.3257   -2.4657    1.3000 C   0  0  0  0  0  0  0  0  0  0  0  0
   -1.3420   -3.1069    1.6316 O   0  0  0  0  0  0  0  0  0  0  0  0
   -2.1725   -1.1627    0.8704 N   0  0  0  0  0  0  0  0  0  0  0  0
   -3.0212   -0.6272    0.6913 H   0  0  0  0  0  0  0  0  0  0  0  0
   -0.8974   -0.4308    0.9086 C   0  0  1  0  0  0  0  0  0  0  0  0
   -0.1930   -0.9209    1.5894 H   0  0  0  0  0  0  0  0  0  0  0  0
   -0.3075   -0.4822   -0.5209 C   0  0  0  0  0  0  0  0  0  0  0  0
    0.0640   -1.5006   -0.6809 H   0  0  0  0  0  0  0  0  0  0  0  0
   -1.1107   -0.3203   -1.2482 H   0  0  0  0  0  0  0  0  0  0  0  0
    0.8398    0.5059   -0.8213 C   0  0  0  0  0  0  0  0  0  0  0  0
    1.4485    0.6531    0.0776 H   0  0  0  0  0  0  0  0  0  0  0  0
    1.4862    0.0485   -1.5788 H   0  0  0  0  0  0  0  0  0  0  0  0
    0.3434    1.8576   -1.3641 C   0  0  0  0  0  0  0  0  0  0  0  0
   -0.2787    1.6833   -2.2491 H   0  0  0  0  0  0  0  0  0  0  0  0
   -0.2709    2.3678   -0.6207 H   0  0  0  0  0  0  0  0  0  0  0  0
    1.5202    2.7559   -1.7290 C   0  0  0  0  0  0  0  0  0  0  0  0
    2.1513    2.9050   -0.8407 H   0  0  0  0  0  0  0  0  0  0  0  0
    2.1398    2.2589   -2.4898 H   0  0  0  0  0  0  0  0  0  0  0  0
    0.9842    4.0415   -2.2260 N   0  3  0  0  0  0  0  0  0  0  0  0
    0.3780    4.4612   -1.5175 H   0  0  0  0  0  0  0  0  0  0  0  0
    1.7483    4.6871   -2.4362 H   0  0  0  0  0  0  0  0  0  0  0  0
    0.4369    3.8858   -3.0748 H   0  0  0  0  0  0  0  0  0  0  0  0
   -1.1309    0.9884    1.4628 C   0  0  0  0  0  0  0  0  0  0  0  0
   -2.0414    1.6787    1.0184 O   0  0  0  0  0  0  0  0  0  0  0  0
   -0.2780    1.5218    2.4127 N   0  0  0  0  0  0  0  0  0  0  0  0
    0.3510    0.8654    2.8706 H   0  0  0  0  0  0  0  0  0  0  0  0
   -0.5647    2.7778    3.0999 C   0  0  0  0  0  0  0  0  0  0  0  0
   -1.4763    2.6859    3.7005 H   0  0  0  0  0  0  0  0  0  0  0  0
    0.2626    3.0434    3.7656 H   0  0  0  0  0  0  0  0  0  0  0  0
   -0.7002    3.5922    2.3805 H   0  0  0  0  0  0  0  0  0  0  0  0
  1  2  1  0  0  0  0
  2  3  1  0  0  0  0
  2  4  1  0  0  0  0
  2  5  1  0  0  0  0
  5  6  2  0  0  0  0
  5  7  1  0  0  0  0
  7  8  1  0  0  0  0
  7  9  1  0  0  0  0
  9 10  1  0  0  0  0
  9 11  1  0  0  0  0
  9 27  1  0  0  0  0
 11 12  1  0  0  0  0
 11 13  1  0  0  0  0
 11 14  1  0  0  0  0
 14 15  1  0  0  0  0
 14 16  1  0  0  0  0
 14 17  1  0  0  0  0
 17 18  1  0  0  0  0
 17 19  1  0  0  0  0
 17 20  1  0  0  0  0
 20 21  1  0  0  0  0
 20 22  1  0  0  0  0
 20 23  1  0  0  0  0
 23 24  1  0  0  0  0
 23 25  1  0  0  0  0
 23 26  1  0  0  0  0
 27 28  2  0  0  0  0
 27 29  1  0  0  0  0
 29 30  1  0  0  0  0
 29 31  1  0  0  0  0
 31 32  1  0  0  0  0
 31 33  1  0  0  0  0
 31 34  1  0  0  0  0
M  CHG  1  23   1
M  END
$$$$

  -OEChem-02102214153D

 34 33  0     1  0  0  0  0  0999 V2000
   -3.6537   -4.1547    1.4925 H   0  0  0  0  0  0  0  0  0  0  0  0
   -3.7124   -3.1061    1.1872 C   0  0  0  0  0  0  0  0  0  0  0  0
   -4.3907   -2.5810    1.8641 H   0  0  0  0  0  0  0  0  0  0  0  0
   -4.1120   -3.0584    0.1715 H   0  0  0  0  0  0  0  0  0  0  0  0
   -2.3356   -2.4713    1.2349 C   0  0  0  0  0  0  0  0  0  0  0  0
   -1.3692   -3.1209    1.5991 O   0  0  0  0  0  0  0  0  0  0  0  0
   -2.1660   -1.1507    0.8697 N   0  0  0  0  0  0  0  0  0  0  0  0
   -3.0055   -0.6135    0.6573 H   0  0  0  0  0  0  0  0  0  0  0  0
   -0.8980   -0.4169    1.0017 C   0  0  1  0  0  0  0  0  0  0  0  0
   -0.2217   -0.9317    1.6927 H   0  0  0  0  0  0  0  0  0  0  0  0
   -0.2519   -0.4184   -0.4059 C   0  0  0  0  0  0  0  0  0  0  0  0
    0.1167   -1.4338   -0.5899 H   0  0  0  0  0  0  0  0  0  0  0  0
   -1.0318   -0.2262   -1.1509 H   0  0  0  0  0  0  0  0  0  0  0  0
    0.9088    0.5660   -0.6712 C   0  0  0  0  0  0  0  0  0  0  0  0
    1.6449    0.4955    0.1372 H   0  0  0  0  0  0  0  0  0  0  0  0
    1.4043    0.2358   -1.5911 H   0  0  0  0  0  0  0  0  0  0  0  0
    0.4619    2.0292   -0.8500 C   0  0  0  0  0  0  0  0  0  0  0  0
   -0.4988    2.0522   -1.3767 H   0  0  0  0  0  0  0  0  0  0  0  0
    0.3268    2.5039    0.1250 H   0  0  0  0  0  0  0  0  0  0  0  0
    1.4908    2.8281   -1.6425 C   0  0  0  0  0  0  0  0  0  0  0  0
    2.4480    2.8331   -1.1009 H   0  0  0  0  0  0  0  0  0  0  0  0
    1.6658    2.3383   -2.6116 H   0  0  0  0  0  0  0  0  0  0  0  0
    0.9650    4.1984   -1.8240 N   0  3  0  0  0  0  0  0  0  0  0  0
    0.8120    4.6361   -0.9133 H   0  0  0  0  0  0  0  0  0  0  0  0
    1.6258    4.7644   -2.3601 H   0  0  0  0  0  0  0  0  0  0  0  0
    0.0738    4.1639   -2.3236 H   0  0  0  0  0  0  0  0  0  0  0  0
   -1.1715    0.9744    1.6034 C   0  0  0  0  0  0  0  0  0  0  0  0
   -2.0253    1.7009    1.1061 O   0  0  0  0  0  0  0  0  0  0  0  0
   -0.3702    1.4671    2.6182 N   0  0  0  0  0  0  0  0  0  0  0  0
    0.2231    0.7885    3.0914 H   0  0  0  0  0  0  0  0  0  0  0  0
   -0.6759    2.7089    3.3227 C   0  0  0  0  0  0  0  0  0  0  0  0
   -1.6259    2.6198    3.8610 H   0  0  0  0  0  0  0  0  0  0  0  0
    0.1122    2.9372    4.0473 H   0  0  0  0  0  0  0  0  0  0  0  0
   -0.7484    3.5463    2.6210 H   0  0  0  0  0  0  0  0  0  0  0  0
  1  2  1  0  0  0  0
  2  3  1  0  0  0  0
  2  4  1  0  0  0  0
  2  5  1  0  0  0  0
  5  6  2  0  0  0  0
  5  7  1  0  0  0  0
  7  8  1  0  0  0  0
  7  9  1  0  0  0  0
  9 10  1  0  0  0  0
  9 11  1  0  0  0  0
  9 27  1  0  0  0  0
 11 12  1  0  0  0  0
 11 13  1  0  0  0  0
 11 14  1  0  0  0  0
 14 15  1  0  0  0  0
 14 16  1  0  0  0  0
 14 17  1  0  0  0  0
 17 18  1  0  0  0  0
 17 19  1  0  0  0  0
 17 20  1  0  0  0  0
 20 21  1  0  0  0  0
 20 22  1  0  0  0  0
 20 23  1  0  0  0  0
 23 24  1  0  0  0  0
 23 25  1  0  0  0  0
 23 26  1  0  0  0  0
 27 28  2  0  0  0  0
 27 29  1  0  0  0  0
 29 30  1  0  0  0  0
 29 31  1  0  0  0  0
 31 32  1  0  0  0  0
 31 33  1  0  0  0  0
 31 34  1  0  0  0  0
M  CHG  1  23   1
M  END
$$$$

  -OEChem-02102214153D

 34 33  0     1  0  0  0  0  0999 V2000
   -3.6679   -4.1530    1.4476 H   0  0  0  0  0  0  0  0  0  0  0  0
   -3.7190   -3.1065    1.1337 C   0  0  0  0  0  0  0  0  0  0  0  0
   -4.4166   -2.5776    1.7875 H   0  0  0  0  0  0  0  0  0  0  0  0
   -4.0891   -3.0657    0.1065 H   0  0  0  0  0  0  0  0  0  0  0  0
   -2.3449   -2.4698    1.2167 C   0  0  0  0  0  0  0  0  0  0  0  0
   -1.3831   -3.1247    1.5832 O   0  0  0  0  0  0  0  0  0  0  0  0
   -2.1727   -1.1405    0.8862 N   0  0  0  0  0  0  0  0  0  0  0  0
   -3.0089   -0.6011    0.6659 H   0  0  0  0  0  0  0  0  0  0  0  0
   -0.9077   -0.4084    1.0560 C   0  0  1  0  0  0  0  0  0  0  0  0
   -0.2425   -0.9345    1.7494 H   0  0  0  0  0  0  0  0  0  0  0  0
   -0.2445   -0.4100   -0.3483 C   0  0  0  0  0  0  0  0  0  0  0  0
    0.0990   -1.4318   -0.5451 H   0  0  0  0  0  0  0  0  0  0  0  0
   -1.0263   -0.1921   -1.0844 H   0  0  0  0  0  0  0  0  0  0  0  0
    0.9281    0.5497   -0.6578 C   0  0  0  0  0  0  0  0  0  0  0  0
    1.7735    0.3014   -0.0064 H   0  0  0  0  0  0  0  0  0  0  0  0
    1.2427    0.3462   -1.6876 H   0  0  0  0  0  0  0  0  0  0  0  0
    0.6110    2.0481   -0.5200 C   0  0  0  0  0  0  0  0  0  0  0  0
   -0.4162    2.2275   -0.8567 H   0  0  0  0  0  0  0  0  0  0  0  0
    0.6947    2.3572    0.5245 H   0  0  0  0  0  0  0  0  0  0  0  0
    1.5645    2.8918   -1.3594 C   0  0  0  0  0  0  0  0  0  0  0  0
    2.5935    2.7558   -0.9954 H   0  0  0  0  0  0  0  0  0  0  0  0
    1.5381    2.5418   -2.4019 H   0  0  0  0  0  0  0  0  0  0  0  0
    1.1350    4.3034   -1.2604 N   0  3  0  0  0  0  0  0  0  0  0  0
    1.1945    4.6184   -0.2905 H   0  0  0  0  0  0  0  0  0  0  0  0
    1.7296    4.8974   -1.8418 H   0  0  0  0  0  0  0  0  0  0  0  0
    0.1658    4.3928   -1.5744 H   0  0  0  0  0  0  0  0  0  0  0  0
   -1.2069    0.9649    1.6878 C   0  0  0  0  0  0  0  0  0  0  0  0
   -2.0509    1.7019    1.1900 O   0  0  0  0  0  0  0  0  0  0  0  0
   -0.4296    1.4372    2.7312 N   0  0  0  0  0  0  0  0  0  0  0  0
    0.1528    0.7469    3.2013 H   0  0  0  0  0  0  0  0  0  0  0  0
   -0.7718    2.6488    3.4705 C   0  0  0  0  0  0  0  0  0  0  0  0
   -1.7356    2.5287    3.9774 H   0  0  0  0  0  0  0  0  0  0  0  0
   -0.0081    2.8606    4.2256 H   0  0  0  0  0  0  0  0  0  0  0  0
   -0.8357    3.5094    2.7968 H   0  0  0  0  0  0  0  0  0  0  0  0
  1  2  1  0  0  0  0
  2  3  1  0  0  0  0
  2  4  1  0  0  0  0
  2  5  1  0  0  0  0
  5  6  2  0  0  0  0
  5  7  1  0  0  0  0
  7  8  1  0  0  0  0
  7  9  1  0  0  0  0
  9 10  1  0  0  0  0
  9 11  1  0  0  0  0
  9 27  1  0  0  0  0
 11 12  1  0  0  0  0
 11 13  1  0  0  0  0
 11 14  1  0  0  0  0
 14 15  1  0  0  0  0
 14 16  1  0  0  0  0
 14 17  1  0  0  0  0
 17 18  1  0  0  0  0
 17 19  1  0  0  0  0
 17 20  1  0  0  0  0
 20 21  1  0  0  0  0
 20 22  1  0  0  0  0
 20 23  1  0  0  0  0
 23 24  1  0  0  0  0
 23 25  1  0  0  0  0
 23 26  1  0  0  0  0
 27 28  2  0  0  0  0
 27 29  1  0  0  0  0
 29 30  1  0  0  0  0
 29 31  1  0  0  0  0
 31 32  1  0  0  0  0
 31 33  1  0  0  0  0
 31 34  1  0  0  0  0
M  CHG  1  23   1
M  END
$$$$

  -OEChem-02102214153D

 34 33  0     1  0  0  0  0  0999 V2000
   -3.6678   -4.1742    1.4352 H   0  0  0  0  0  0  0  0  0  0  0  0
   -3.7177   -3.1294    1.1160 C   0  0  0  0  0  0  0  0  0  0  0  0
   -4.4379   -2.6037    1.7474 H   0  0  0  0  0  0  0  0  0  0  0  0
   -4.0582   -3.0948    0.0785 H   0  0  0  0  0  0  0  0  0  0  0  0
   -2.3516   -2.4820    1.2357 C   0  0  0  0  0  0  0  0  0  0  0  0
   -1.3912   -3.1322    1.6149 O   0  0  0  0  0  0  0  0  0  0  0  0
   -2.1842   -1.1482    0.9218 N   0  0  0  0  0  0  0  0  0  0  0  0
   -3.0189   -0.6128    0.6854 H   0  0  0  0  0  0  0  0  0  0  0  0
   -0.9223   -0.4128    1.1015 C   0  0  1  0  0  0  0  0  0  0  0  0
   -0.2501   -0.9404    1.7867 H   0  0  0  0  0  0  0  0  0  0  0  0
   -0.2762   -0.4071   -0.3144 C   0  0  0  0  0  0  0  0  0  0  0  0
    0.0404   -1.4328   -0.5355 H   0  0  0  0  0  0  0  0  0  0  0  0
   -1.0771   -0.1650   -1.0224 H   0  0  0  0  0  0  0  0  0  0  0  0
    0.8953    0.5361   -0.6838 C   0  0  0  0  0  0  0  0  0  0  0  0
    1.8127    0.1245   -0.2484 H   0  0  0  0  0  0  0  0  0  0  0  0
    1.0090    0.4924   -1.7730 H   0  0  0  0  0  0  0  0  0  0  0  0
    0.7800    2.0035   -0.2505 C   0  0  0  0  0  0  0  0  0  0  0  0
   -0.2409    2.3518   -0.4395 H   0  0  0  0  0  0  0  0  0  0  0  0
    0.9989    2.0987    0.8153 H   0  0  0  0  0  0  0  0  0  0  0  0
    1.7520    2.8773   -1.0366 C   0  0  0  0  0  0  0  0  0  0  0  0
    2.7849    2.5739   -0.8110 H   0  0  0  0  0  0  0  0  0  0  0  0
    1.5928    2.7177   -2.1133 H   0  0  0  0  0  0  0  0  0  0  0  0
    1.5078    4.2885   -0.6680 N   0  3  0  0  0  0  0  0  0  0  0  0
    1.7043    4.4292    0.3244 H   0  0  0  0  0  0  0  0  0  0  0  0
    2.1070    4.9074   -1.2181 H   0  0  0  0  0  0  0  0  0  0  0  0
    0.5295    4.5277   -0.8462 H   0  0  0  0  0  0  0  0  0  0  0  0
   -1.2497    0.9471    1.7508 C   0  0  0  0  0  0  0  0  0  0  0  0
   -2.1023    1.6762    1.2571 O   0  0  0  0  0  0  0  0  0  0  0  0
   -0.4904    1.4216    2.8070 N   0  0  0  0  0  0  0  0  0  0  0  0
    0.0914    0.7313    3.2779 H   0  0  0  0  0  0  0  0  0  0  0  0
   -0.8813    2.6041    3.5698 C   0  0  0  0  0  0  0  0  0  0  0  0
   -1.8534    2.4455    4.0498 H   0  0  0  0  0  0  0  0  0  0  0  0
   -0.1420    2.8148    4.3491 H   0  0  0  0  0  0  0  0  0  0  0  0
   -0.9526    3.4810    2.9182 H   0  0  0  0  0  0  0  0  0  0  0  0
  1  2  1  0  0  0  0
  2  3  1  0  0  0  0
  2  4  1  0  0  0  0
  2  5  1  0  0  0  0
  5  6  2  0  0  0  0
  5  7  1  0  0  0  0
  7  8  1  0  0  0  0
  7  9  1  0  0  0  0
  9 10  1  0  0  0  0
  9 11  1  0  0  0  0
  9 27  1  0  0  0  0
 11 12  1  0  0  0  0
 11 13  1  0  0  0  0
 11 14  1  0  0  0  0
 14 15  1  0  0  0  0
 14 16  1  0  0  0  0
 14 17  1  0  0  0  0
 17 18  1  0  0  0  0
 17 19  1  0  0  0  0
 17 20  1  0  0  0  0
 20 21  1  0  0  0  0
 20 22  1  0  0  0  0
 20 23  1  0  0  0  0
 23 24  1  0  0  0  0
 23 25  1  0  0  0  0
 23 26  1  0  0  0  0
 27 28  2  0  0  0  0
 27 29  1  0  0  0  0
 29 30  1  0  0  0  0
 29 31  1  0  0  0  0
 31 32  1  0  0  0  0
 31 33  1  0  0  0  0
 31 34  1  0  0  0  0
M  CHG  1  23   1
M  END
$$$$

  -OEChem-02102214153D

 34 33  0     1  0  0  0  0  0999 V2000
   -3.6755   -4.2023    1.4104 H   0  0  0  0  0  0  0  0  0  0  0  0
   -3.7239   -3.1567    1.0933 C   0  0  0  0  0  0  0  0  0  0  0  0
   -4.4648   -2.6379    1.7063 H   0  0  0  0  0  0  0  0  0  0  0  0
   -4.0369   -3.1208    0.0471 H   0  0  0  0  0  0  0  0  0  0  0  0
   -2.3657   -2.5005    1.2513 C   0  0  0  0  0  0  0  0  0  0  0  0
   -1.4131   -3.1418    1.6638 O   0  0  0  0  0  0  0  0  0  0  0  0
   -2.1963   -1.1684    0.9328 N   0  0  0  0  0  0  0  0  0  0  0  0
   -3.0254   -0.6397    0.6630 H   0  0  0  0  0  0  0  0  0  0  0  0
   -0.9407   -0.4265    1.1292 C   0  0  1  0  0  0  0  0  0  0  0  0
   -0.2697   -0.9446    1.8229 H   0  0  0  0  0  0  0  0  0  0  0  0
   -0.2905   -0.4140   -0.2857 C   0  0  0  0  0  0  0  0  0  0  0  0
    0.0171   -1.4400   -0.5170 H   0  0  0  0  0  0  0  0  0  0  0  0
   -1.0959   -0.1633   -0.9860 H   0  0  0  0  0  0  0  0  0  0  0  0
    0.8803    0.5263   -0.6737 C   0  0  0  0  0  0  0  0  0  0  0  0
    1.8118   -0.0133   -0.4688 H   0  0  0  0  0  0  0  0  0  0  0  0
    0.8302    0.6758   -1.7582 H   0  0  0  0  0  0  0  0  0  0  0  0
    0.9847    1.8916    0.0135 C   0  0  0  0  0  0  0  0  0  0  0  0
    0.0160    2.3982   -0.0434 H   0  0  0  0  0  0  0  0  0  0  0  0
    1.2640    1.7594    1.0621 H   0  0  0  0  0  0  0  0  0  0  0  0
    2.0302    2.7572   -0.6834 C   0  0  0  0  0  0  0  0  0  0  0  0
    3.0213    2.2917   -0.5792 H   0  0  0  0  0  0  0  0  0  0  0  0
    1.8033    2.8018   -1.7590 H   0  0  0  0  0  0  0  0  0  0  0  0
    1.9975    4.1074   -0.0813 N   0  3  0  0  0  0  0  0  0  0  0  0
    2.2430    4.0550    0.9087 H   0  0  0  0  0  0  0  0  0  0  0  0
    2.6603    4.7230   -0.5573 H   0  0  0  0  0  0  0  0  0  0  0  0
    1.0574    4.5011   -0.1674 H   0  0  0  0  0  0  0  0  0  0  0  0
   -1.3046    0.9313    1.7644 C   0  0  0  0  0  0  0  0  0  0  0  0
   -2.1461    1.6488    1.2372 O   0  0  0  0  0  0  0  0  0  0  0  0
   -0.5796    1.4267    2.8355 N   0  0  0  0  0  0  0  0  0  0  0  0
   -0.0202    0.7415    3.3398 H   0  0  0  0  0  0  0  0  0  0  0  0
   -1.0096    2.6139    3.5695 C   0  0  0  0  0  0  0  0  0  0  0  0
   -1.9965    2.4505    4.0164 H   0  0  0  0  0  0  0  0  0  0  0  0
   -0.3008    2.8421    4.3717 H   0  0  0  0  0  0  0  0  0  0  0  0
   -1.0679    3.4819    2.9048 H   0  0  0  0  0  0  0  0  0  0  0  0
  1  2  1  0  0  0  0
  2  3  1  0  0  0  0
  2  4  1  0  0  0  0
  2  5  1  0  0  0  0
  5  6  2  0  0  0  0
  5  7  1  0  0  0  0
  7  8  1  0  0  0  0
  7  9  1  0  0  0  0
  9 10  1  0  0  0  0
  9 11  1  0  0  0  0
  9 27  1  0  0  0  0
 11 12  1  0  0  0  0
 11 13  1  0  0  0  0
 11 14  1  0  0  0  0
 14 15  1  0  0  0  0
 14 16  1  0  0  0  0
 14 17  1  0  0  0  0
 17 18  1  0  0  0  0
 17 19  1  0  0  0  0
 17 20  1  0  0  0  0
 20 21  1  0  0  0  0
 20 22  1  0  0  0  0
 20 23  1  0  0  0  0
 23 24  1  0  0  0  0
 23 25  1  0  0  0  0
 23 26  1  0  0  0  0
 27 28  2  0  0  0  0
 27 29  1  0  0  0  0
 29 30  1  0  0  0  0
 29 31  1  0  0  0  0
 31 32  1  0  0  0  0
 31 33  1  0  0  0  0
 31 34  1  0  0  0  0
M  CHG  1  23   1
M  END
$$$$

  -OEChem-02102214153D

 34 33  0     1  0  0  0  0  0999 V2000
   -3.6727   -4.2223    1.4158 H   0  0  0  0  0  0  0  0  0  0  0  0
   -3.7238   -3.1804    1.0867 C   0  0  0  0  0  0  0  0  0  0  0  0
   -4.4838   -2.6622    1.6766 H   0  0  0  0  0  0  0  0  0  0  0  0
   -4.0122   -3.1586    0.0330 H   0  0  0  0  0  0  0  0  0  0  0  0
   -2.3765   -2.5090    1.2704 C   0  0  0  0  0  0  0  0  0  0  0  0
   -1.4322   -3.1323    1.7278 O   0  0  0  0  0  0  0  0  0  0  0  0
   -2.2073   -1.1823    0.9298 N   0  0  0  0  0  0  0  0  0  0  0  0
   -3.0286   -0.6666    0.6147 H   0  0  0  0  0  0  0  0  0  0  0  0
   -0.9595   -0.4314    1.1397 C   0  0  1  0  0  0  0  0  0  0  0  0
   -0.2937   -0.9342    1.8494 H   0  0  0  0  0  0  0  0  0  0  0  0
   -0.2960   -0.4248   -0.2689 C   0  0  0  0  0  0  0  0  0  0  0  0
    0.0190   -1.4515   -0.4870 H   0  0  0  0  0  0  0  0  0  0  0  0
   -1.0954   -0.1890   -0.9813 H   0  0  0  0  0  0  0  0  0  0  0  0
    0.8751    0.5185   -0.6551 C   0  0  0  0  0  0  0  0  0  0  0  0
    1.7789   -0.0999   -0.6980 H   0  0  0  0  0  0  0  0  0  0  0  0
    0.6880    0.8769   -1.6740 H   0  0  0  0  0  0  0  0  0  0  0  0
    1.1911    1.7219    0.2380 C   0  0  0  0  0  0  0  0  0  0  0  0
    0.3094    2.3674    0.3001 H   0  0  0  0  0  0  0  0  0  0  0  0
    1.4621    1.3792    1.2412 H   0  0  0  0  0  0  0  0  0  0  0  0
    2.3435    2.5257   -0.3587 C   0  0  0  0  0  0  0  0  0  0  0  0
    3.2542    1.9090   -0.3693 H   0  0  0  0  0  0  0  0  0  0  0  0
    2.1067    2.7727   -1.4042 H   0  0  0  0  0  0  0  0  0  0  0  0
    2.5304    3.7538    0.4432 N   0  3  0  0  0  0  0  0  0  0  0  0
    2.7768    3.5104    1.4041 H   0  0  0  0  0  0  0  0  0  0  0  0
    3.2765    4.3264    0.0426 H   0  0  0  0  0  0  0  0  0  0  0  0
    1.6636    4.2963    0.4511 H   0  0  0  0  0  0  0  0  0  0  0  0
   -1.3485    0.9352    1.7408 C   0  0  0  0  0  0  0  0  0  0  0  0
   -2.1609    1.6471    1.1641 O   0  0  0  0  0  0  0  0  0  0  0  0
   -0.6527    1.4556    2.8201 N   0  0  0  0  0  0  0  0  0  0  0  0
   -0.1355    0.7738    3.3714 H   0  0  0  0  0  0  0  0  0  0  0  0
   -1.1005    2.6670    3.5026 C   0  0  0  0  0  0  0  0  0  0  0  0
   -2.1051    2.5240    3.9164 H   0  0  0  0  0  0  0  0  0  0  0  0
   -0.4213    2.9142    4.3245 H   0  0  0  0  0  0  0  0  0  0  0  0
   -1.1264    3.5156    2.8108 H   0  0  0  0  0  0  0  0  0  0  0  0
  1  2  1  0  0  0  0
  2  3  1  0  0  0  0
  2  4  1  0  0  0  0
  2  5  1  0  0  0  0
  5  6  2  0  0  0  0
  5  7  1  0  0  0  0
  7  8  1  0  0  0  0
  7  9  1  0  0  0  0
  9 10  1  0  0  0  0
  9 11  1  0  0  0  0
  9 27  1  0  0  0  0
 11 12  1  0  0  0  0
 11 13  1  0  0  0  0
 11 14  1  0  0  0  0
 14 15  1  0  0  0  0
 14 16  1  0  0  0  0
 14 17  1  0  0  0  0
 17 18  1  0  0  0  0
 17 19  1  0  0  0  0
 17 20  1  0  0  0  0
 20 21  1  0  0  0  0
 20 22  1  0  0  0  0
 20 23  1  0  0  0  0
 23 24  1  0  0  0  0
 23 25  1  0  0  0  0
 23 26  1  0  0  0  0
 27 28  2  0  0  0  0
 27 29  1  0  0  0  0
 29 30  1  0  0  0  0
 29 31  1  0  0  0  0
 31 32  1  0  0  0  0
 31 33  1  0  0  0  0
 31 34  1  0  0  0  0
M  CHG  1  23   1
M  END
$$$$

  -OEChem-02102214153D

 34 33  0     1  0  0  0  0  0999 V2000
   -3.6595   -4.2253    1.4565 H   0  0  0  0  0  0  0  0  0  0  0  0
   -3.7126   -3.1906    1.1058 C   0  0  0  0  0  0  0  0  0  0  0  0
   -4.4783   -2.6639    1.6803 H   0  0  0  0  0  0  0  0  0  0  0  0
   -3.9948   -3.1919    0.0503 H   0  0  0  0  0  0  0  0  0  0  0  0
   -2.3692   -2.5098    1.2841 C   0  0  0  0  0  0  0  0  0  0  0  0
   -1.4259   -3.1186    1.7632 O   0  0  0  0  0  0  0  0  0  0  0  0
   -2.2031   -1.1889    0.9201 N   0  0  0  0  0  0  0  0  0  0  0  0
   -3.0224   -0.6833    0.5836 H   0  0  0  0  0  0  0  0  0  0  0  0
   -0.9622   -0.4275    1.1307 C   0  0  1  0  0  0  0  0  0  0  0  0
   -0.2958   -0.9144    1.8503 H   0  0  0  0  0  0  0  0  0  0  0  0
   -0.2981   -0.4231   -0.2759 C   0  0  0  0  0  0  0  0  0  0  0  0
    0.0405   -1.4472   -0.4699 H   0  0  0  0  0  0  0  0  0  0  0  0
   -1.0919   -0.2177   -1.0039 H   0  0  0  0  0  0  0  0  0  0  0  0
    0.8657    0.5316   -0.6530 C   0  0  0  0  0  0  0  0  0  0  0  0
    1.7031   -0.1000   -0.9712 H   0  0  0  0  0  0  0  0  0  0  0  0
    0.5534    1.1088   -1.5311 H   0  0  0  0  0  0  0  0  0  0  0  0
    1.3877    1.5141    0.4001 C   0  0  0  0  0  0  0  0  0  0  0  0
    0.6215    2.2686    0.6012 H   0  0  0  0  0  0  0  0  0  0  0  0
    1.6210    0.9789    1.3262 H   0  0  0  0  0  0  0  0  0  0  0  0
    2.6383    2.2159   -0.1236 C   0  0  0  0  0  0  0  0  0  0  0  0
    3.4317    1.4722   -0.2898 H   0  0  0  0  0  0  0  0  0  0  0  0
    2.4126    2.6728   -1.0986 H   0  0  0  0  0  0  0  0  0  0  0  0
    3.0581    3.2415    0.8554 N   0  3  0  0  0  0  0  0  0  0  0  0
    3.2887    2.8004    1.7473 H   0  0  0  0  0  0  0  0  0  0  0  0
    3.8798    3.7423    0.5098 H   0  0  0  0  0  0  0  0  0  0  0  0
    2.2996    3.9111    1.0025 H   0  0  0  0  0  0  0  0  0  0  0  0
   -1.3645    0.9488    1.7010 C   0  0  0  0  0  0  0  0  0  0  0  0
   -2.1662    1.6471    1.0947 O   0  0  0  0  0  0  0  0  0  0  0  0
   -0.6846    1.4937    2.7789 N   0  0  0  0  0  0  0  0  0  0  0  0
   -0.1935    0.8213    3.3638 H   0  0  0  0  0  0  0  0  0  0  0  0
   -1.1343    2.7303    3.4145 C   0  0  0  0  0  0  0  0  0  0  0  0
   -2.1456    2.6073    3.8182 H   0  0  0  0  0  0  0  0  0  0  0  0
   -0.4651    3.0008    4.2372 H   0  0  0  0  0  0  0  0  0  0  0  0
   -1.1452    3.5558    2.6945 H   0  0  0  0  0  0  0  0  0  0  0  0
  1  2  1  0  0  0  0
  2  3  1  0  0  0  0
  2  4  1  0  0  0  0
  2  5  1  0  0  0  0
  5  6  2  0  0  0  0
  5  7  1  0  0  0  0
  7  8  1  0  0  0  0
  7  9  1  0  0  0  0
  9 10  1  0  0  0  0
  9 11  1  0  0  0  0
  9 27  1  0  0  0  0
 11 12  1  0  0  0  0
 11 13  1  0  0  0  0
 11 14  1  0  0  0  0
 14 15  1  0  0  0  0
 14 16  1  0  0  0  0
 14 17  1  0  0  0  0
 17 18  1  0  0  0  0
 17 19  1  0  0  0  0
 17 20  1  0  0  0  0
 20 21  1  0  0  0  0
 20 22  1  0  0  0  0
 20 23  1  0  0  0  0
 23 24  1  0  0  0  0
 23 25  1  0  0  0  0
 23 26  1  0  0  0  0
 27 28  2  0  0  0  0
 27 29  1  0  0  0  0
 29 30  1  0  0  0  0
 29 31  1  0  0  0  0
 31 32  1  0  0  0  0
 31 33  1  0  0  0  0
 31 34  1  0  0  0  0
M  CHG  1  23   1
M  END
$$$$

  -OEChem-02102214153D

 34 33  0     1  0  0  0  0  0999 V2000
   -4.0126   -3.7788    1.4896 H   0  0  0  0  0  0  0  0  0  0  0  0
   -3.9053   -2.7574    1.1130 C   0  0  0  0  0  0  0  0  0  0  0  0
   -4.6085   -2.1113    1.6441 H   0  0  0  0  0  0  0  0  0  0  0  0
   -4.1467   -2.7497    0.0473 H   0  0  0  0  0  0  0  0  0  0  0  0
   -2.4857   -2.2694    1.3286 C   0  0  0  0  0  0  0  0  0  0  0  0
   -1.6649   -2.9799    1.8857 O   0  0  0  0  0  0  0  0  0  0  0  0
   -2.1099   -1.0071    0.9136 N   0  0  0  0  0  0  0  0  0  0  0  0
   -2.8229   -0.4204    0.4821 H   0  0  0  0  0  0  0  0  0  0  0  0
   -0.7545   -0.4575    1.0748 C   0  0  1  0  0  0  0  0  0  0  0  0
   -0.1628   -1.0340    1.7936 H   0  0  0  0  0  0  0  0  0  0  0  0
   -0.1513   -0.6380   -0.3490 C   0  0  0  0  0  0  0  0  0  0  0  0
    0.0196   -1.7137   -0.4717 H   0  0  0  0  0  0  0  0  0  0  0  0
   -0.9218   -0.3617   -1.0787 H   0  0  0  0  0  0  0  0  0  0  0  0
    1.1399    0.0809   -0.8154 C   0  0  0  0  0  0  0  0  0  0  0  0
    1.7368   -0.6630   -1.3561 H   0  0  0  0  0  0  0  0  0  0  0  0
    0.8573    0.8360   -1.5583 H   0  0  0  0  0  0  0  0  0  0  0  0
    2.0512    0.7289    0.2357 C   0  0  0  0  0  0  0  0  0  0  0  0
    3.0955    0.5274   -0.0269 H   0  0  0  0  0  0  0  0  0  0  0  0
    1.8804    0.2872    1.2205 H   0  0  0  0  0  0  0  0  0  0  0  0
    1.8299    2.2452    0.2298 C   0  0  0  0  0  0  0  0  0  0  0  0
    2.2213    2.6624   -0.7094 H   0  0  0  0  0  0  0  0  0  0  0  0
    0.7502    2.4578    0.2450 H   0  0  0  0  0  0  0  0  0  0  0  0
    2.4930    2.8435    1.4038 N   0  3  0  0  0  0  0  0  0  0  0  0
    3.4718    2.5548    1.4418 H   0  0  0  0  0  0  0  0  0  0  0  0
    2.4446    3.8628    1.3490 H   0  0  0  0  0  0  0  0  0  0  0  0
    2.0139    2.5327    2.2516 H   0  0  0  0  0  0  0  0  0  0  0  0
   -0.8628    0.9881    1.6019 C   0  0  0  0  0  0  0  0  0  0  0  0
   -1.4458    1.8388    0.9447 O   0  0  0  0  0  0  0  0  0  0  0  0
   -0.0519    1.4201    2.6437 N   0  0  0  0  0  0  0  0  0  0  0  0
    0.2602    0.6575    3.2453 H   0  0  0  0  0  0  0  0  0  0  0  0
   -0.3532    2.6847    3.3171 C   0  0  0  0  0  0  0  0  0  0  0  0
   -1.3712    2.6679    3.7231 H   0  0  0  0  0  0  0  0  0  0  0  0
    0.3421    2.8519    4.1459 H   0  0  0  0  0  0  0  0  0  0  0  0
   -0.2737    3.5286    2.6232 H   0  0  0  0  0  0  0  0  0  0  0  0
  1  2  1  0  0  0  0
  2  3  1  0  0  0  0
  2  4  1  0  0  0  0
  2  5  1  0  0  0  0
  5  6  2  0  0  0  0
  5  7  1  0  0  0  0
  7  8  1  0  0  0  0
  7  9  1  0  0  0  0
  9 10  1  0  0  0  0
  9 11  1  0  0  0  0
  9 27  1  0  0  0  0
 11 12  1  0  0  0  0
 11 13  1  0  0  0  0
 11 14  1  0  0  0  0
 14 15  1  0  0  0  0
 14 16  1  0  0  0  0
 14 17  1  0  0  0  0
 17 18  1  0  0  0  0
 17 19  1  0  0  0  0
 17 20  1  0  0  0  0
 20 21  1  0  0  0  0
 20 22  1  0  0  0  0
 20 23  1  0  0  0  0
 23 24  1  0  0  0  0
 23 25  1  0  0  0  0
 23 26  1  0  0  0  0
 27 28  2  0  0  0  0
 27 29  1  0  0  0  0
 29 30  1  0  0  0  0
 29 31  1  0  0  0  0
 31 32  1  0  0  0  0
 31 33  1  0  0  0  0
 31 34  1  0  0  0  0
M  CHG  1  23   1
M  END
$$$$

  -OEChem-02102214153D

 34 33  0     1  0  0  0  0  0999 V2000
   -3.6536   -4.1807    1.5070 H   0  0  0  0  0  0  0  0  0  0  0  0
   -3.6908   -3.1609    1.1138 C   0  0  0  0  0  0  0  0  0  0  0  0
   -4.4681   -2.6071    1.6458 H   0  0  0  0  0  0  0  0  0  0  0  0
   -3.9446   -3.2027    0.0519 H   0  0  0  0  0  0  0  0  0  0  0  0
   -2.3482   -2.4805    1.2998 C   0  0  0  0  0  0  0  0  0  0  0  0
   -1.4150   -3.0791    1.8116 O   0  0  0  0  0  0  0  0  0  0  0  0
   -2.1681   -1.1733    0.8961 N   0  0  0  0  0  0  0  0  0  0  0  0
   -2.9809   -0.6704    0.5394 H   0  0  0  0  0  0  0  0  0  0  0  0
   -0.9274   -0.4130    1.1075 C   0  0  1  0  0  0  0  0  0  0  0  0
   -0.2653   -0.8856    1.8400 H   0  0  0  0  0  0  0  0  0  0  0  0
   -0.2689   -0.4027   -0.2966 C   0  0  0  0  0  0  0  0  0  0  0  0
    0.0990   -1.4197   -0.4724 H   0  0  0  0  0  0  0  0  0  0  0  0
   -1.0477   -0.2150   -1.0455 H   0  0  0  0  0  0  0  0  0  0  0  0
    0.8873    0.5696   -0.6176 C   0  0  0  0  0  0  0  0  0  0  0  0
    1.4828    0.1153   -1.4176 H   0  0  0  0  0  0  0  0  0  0  0  0
    0.4508    1.4895   -1.0242 H   0  0  0  0  0  0  0  0  0  0  0  0
    1.8046    0.9647    0.5477 C   0  0  0  0  0  0  0  0  0  0  0  0
    1.3127    1.7038    1.1812 H   0  0  0  0  0  0  0  0  0  0  0  0
    2.0368    0.0793    1.1493 H   0  0  0  0  0  0  0  0  0  0  0  0
    3.0924    1.5698   -0.0090 C   0  0  0  0  0  0  0  0  0  0  0  0
    3.5729    0.8418   -0.6794 H   0  0  0  0  0  0  0  0  0  0  0  0
    2.8415    2.4518   -0.6169 H   0  0  0  0  0  0  0  0  0  0  0  0
    3.9891    1.9317    1.1098 N   0  3  0  0  0  0  0  0  0  0  0  0
    4.2192    1.0994    1.6564 H   0  0  0  0  0  0  0  0  0  0  0  0
    4.8542    2.3395    0.7475 H   0  0  0  0  0  0  0  0  0  0  0  0
    3.5308    2.6134    1.7176 H   0  0  0  0  0  0  0  0  0  0  0  0
   -1.3293    0.9856    1.6250 C   0  0  0  0  0  0  0  0  0  0  0  0
   -2.1282    1.6561    0.9850 O   0  0  0  0  0  0  0  0  0  0  0  0
   -0.6734    1.5688    2.6965 N   0  0  0  0  0  0  0  0  0  0  0  0
   -0.2071    0.9226    3.3279 H   0  0  0  0  0  0  0  0  0  0  0  0
   -1.0956    2.8577    3.2405 C   0  0  0  0  0  0  0  0  0  0  0  0
   -2.1358    2.8089    3.5813 H   0  0  0  0  0  0  0  0  0  0  0  0
   -0.4667    3.1370    4.0913 H   0  0  0  0  0  0  0  0  0  0  0  0
   -1.0147    3.6427    2.4808 H   0  0  0  0  0  0  0  0  0  0  0  0
  1  2  1  0  0  0  0
  2  3  1  0  0  0  0
  2  4  1  0  0  0  0
  2  5  1  0  0  0  0
  5  6  2  0  0  0  0
  5  7  1  0  0  0  0
  7  8  1  0  0  0  0
  7  9  1  0  0  0  0
  9 10  1  0  0  0  0
  9 11  1  0  0  0  0
  9 27  1  0  0  0  0
 11 12  1  0  0  0  0
 11 13  1  0  0  0  0
 11 14  1  0  0  0  0
 14 15  1  0  0  0  0
 14 16  1  0  0  0  0
 14 17  1  0  0  0  0
 17 18  1  0  0  0  0
 17 19  1  0  0  0  0
 17 20  1  0  0  0  0
 20 21  1  0  0  0  0
 20 22  1  0  0  0  0
 20 23  1  0  0  0  0
 23 24  1  0  0  0  0
 23 25  1  0  0  0  0
 23 26  1  0  0  0  0
 27 28  2  0  0  0  0
 27 29  1  0  0  0  0
 29 30  1  0  0  0  0
 29 31  1  0  0  0  0
 31 32  1  0  0  0  0
 31 33  1  0  0  0  0
 31 34  1  0  0  0  0
M  CHG  1  23   1
M  END
$$$$

  -OEChem-02102214153D

 34 33  0     1  0  0  0  0  0999 V2000
   -3.7168   -4.1157    1.5997 H   0  0  0  0  0  0  0  0  0  0  0  0
   -3.7322   -3.1029    1.1872 C   0  0  0  0  0  0  0  0  0  0  0  0
   -4.4817   -2.5163    1.7243 H   0  0  0  0  0  0  0  0  0  0  0  0
   -4.0102   -3.1578    0.1320 H   0  0  0  0  0  0  0  0  0  0  0  0
   -2.3664   -2.4592    1.3312 C   0  0  0  0  0  0  0  0  0  0  0  0
   -1.4443   -3.0710    1.8478 O   0  0  0  0  0  0  0  0  0  0  0  0
   -2.1523   -1.1716    0.8839 N   0  0  0  0  0  0  0  0  0  0  0  0
   -2.9550   -0.6544    0.5247 H   0  0  0  0  0  0  0  0  0  0  0  0
   -0.8885   -0.4417    1.0593 C   0  0  1  0  0  0  0  0  0  0  0  0
   -0.2320   -0.9137    1.7975 H   0  0  0  0  0  0  0  0  0  0  0  0
   -0.2364   -0.4623   -0.3449 C   0  0  0  0  0  0  0  0  0  0  0  0
    0.1095   -1.4855   -0.5274 H   0  0  0  0  0  0  0  0  0  0  0  0
   -1.0083   -0.2482   -1.0934 H   0  0  0  0  0  0  0  0  0  0  0  0
    0.9359    0.4974   -0.6273 C   0  0  0  0  0  0  0  0  0  0  0  0
    1.3989    0.1942   -1.5732 H   0  0  0  0  0  0  0  0  0  0  0  0
    0.5292    1.5052   -0.7727 H   0  0  0  0  0  0  0  0  0  0  0  0
    2.0040    0.5554    0.4752 C   0  0  0  0  0  0  0  0  0  0  0  0
    1.6010    0.9910    1.3899 H   0  0  0  0  0  0  0  0  0  0  0  0
    2.3384   -0.4634    0.7011 H   0  0  0  0  0  0  0  0  0  0  0  0
    3.1826    1.3959   -0.0132 C   0  0  0  0  0  0  0  0  0  0  0  0
    3.5428    0.9882   -0.9692 H   0  0  0  0  0  0  0  0  0  0  0  0
    2.8367    2.4217   -0.2098 H   0  0  0  0  0  0  0  0  0  0  0  0
    4.2558    1.3791    1.0042 N   0  3  0  0  0  0  0  0  0  0  0  0
    4.5531    0.4175    1.1820 H   0  0  0  0  0  0  0  0  0  0  0  0
    5.0599    1.9178    0.6742 H   0  0  0  0  0  0  0  0  0  0  0  0
    3.9182    1.7894    1.8764 H   0  0  0  0  0  0  0  0  0  0  0  0
   -1.2392    0.9867    1.5354 C   0  0  0  0  0  0  0  0  0  0  0  0
   -2.0361    1.6539    0.8894 O   0  0  0  0  0  0  0  0  0  0  0  0
   -0.5562    1.5888    2.5788 N   0  0  0  0  0  0  0  0  0  0  0  0
   -0.0990    0.9546    3.2282 H   0  0  0  0  0  0  0  0  0  0  0  0
   -0.9339    2.9094    3.0780 C   0  0  0  0  0  0  0  0  0  0  0  0
   -1.9670    2.9015    3.4429 H   0  0  0  0  0  0  0  0  0  0  0  0
   -0.2787    3.2081    3.9023 H   0  0  0  0  0  0  0  0  0  0  0  0
   -0.8508    3.6600    2.2844 H   0  0  0  0  0  0  0  0  0  0  0  0
  1  2  1  0  0  0  0
  2  3  1  0  0  0  0
  2  4  1  0  0  0  0
  2  5  1  0  0  0  0
  5  6  2  0  0  0  0
  5  7  1  0  0  0  0
  7  8  1  0  0  0  0
  7  9  1  0  0  0  0
  9 10  1  0  0  0  0
  9 11  1  0  0  0  0
  9 27  1  0  0  0  0
 11 12  1  0  0  0  0
 11 13  1  0  0  0  0
 11 14  1  0  0  0  0
 14 15  1  0  0  0  0
 14 16  1  0  0  0  0
 14 17  1  0  0  0  0
 17 18  1  0  0  0  0
 17 19  1  0  0  0  0
 17 20  1  0  0  0  0
 20 21  1  0  0  0  0
 20 22  1  0  0  0  0
 20 23  1  0  0  0  0
 23 24  1  0  0  0  0
 23 25  1  0  0  0  0
 23 26  1  0  0  0  0
 27 28  2  0  0  0  0
 27 29  1  0  0  0  0
 29 30  1  0  0  0  0
 29 31  1  0  0  0  0
 31 32  1  0  0  0  0
 31 33  1  0  0  0  0
 31 34  1  0  0  0  0
M  CHG  1  23   1
M  END
$$$$

  -OEChem-02102214153D

 34 33  0     1  0  0  0  0  0999 V2000
   -3.6846   -4.1145    1.6756 H   0  0  0  0  0  0  0  0  0  0  0  0
   -3.7194   -3.1030    1.2613 C   0  0  0  0  0  0  0  0  0  0  0  0
   -4.4405   -2.5139    1.8331 H   0  0  0  0  0  0  0  0  0  0  0  0
   -4.0493   -3.1606    0.2211 H   0  0  0  0  0  0  0  0  0  0  0  0
   -2.3475   -2.4607    1.3365 C   0  0  0  0  0  0  0  0  0  0  0  0
   -1.4031   -3.0713    1.8135 O   0  0  0  0  0  0  0  0  0  0  0  0
   -2.1520   -1.1773    0.8681 N   0  0  0  0  0  0  0  0  0  0  0  0
   -2.9694   -0.6625    0.5406 H   0  0  0  0  0  0  0  0  0  0  0  0
   -0.8829   -0.4463    0.9873 C   0  0  1  0  0  0  0  0  0  0  0  0
   -0.2172   -0.9173    1.7172 H   0  0  0  0  0  0  0  0  0  0  0  0
   -0.2397   -0.4916   -0.4179 C   0  0  0  0  0  0  0  0  0  0  0  0
    0.1047   -1.5141   -0.6073 H   0  0  0  0  0  0  0  0  0  0  0  0
   -1.0152   -0.2704   -1.1606 H   0  0  0  0  0  0  0  0  0  0  0  0
    0.9206    0.4884   -0.6701 C   0  0  0  0  0  0  0  0  0  0  0  0
    1.2588    0.3534   -1.7036 H   0  0  0  0  0  0  0  0  0  0  0  0
    0.5588    1.5194   -0.5814 H   0  0  0  0  0  0  0  0  0  0  0  0
    2.1025    0.2656    0.2847 C   0  0  0  0  0  0  0  0  0  0  0  0
    1.8004    0.4596    1.3175 H   0  0  0  0  0  0  0  0  0  0  0  0
    2.4240   -0.7797    0.2162 H   0  0  0  0  0  0  0  0  0  0  0  0
    3.2545    1.1920   -0.0997 C   0  0  0  0  0  0  0  0  0  0  0  0
    3.4958    1.0445   -1.1629 H   0  0  0  0  0  0  0  0  0  0  0  0
    2.9309    2.2372    0.0161 H   0  0  0  0  0  0  0  0  0  0  0  0
    4.4266    0.8951    0.7529 N   0  3  0  0  0  0  0  0  0  0  0  0
    4.7132   -0.0779    0.6256 H   0  0  0  0  0  0  0  0  0  0  0  0
    5.2075    1.5052    0.5007 H   0  0  0  0  0  0  0  0  0  0  0  0
    4.1929    1.0458    1.7357 H   0  0  0  0  0  0  0  0  0  0  0  0
   -1.1698    0.9948    1.4606 C   0  0  0  0  0  0  0  0  0  0  0  0
   -1.9837    1.6772    0.8537 O   0  0  0  0  0  0  0  0  0  0  0  0
   -0.4124    1.5779    2.4624 N   0  0  0  0  0  0  0  0  0  0  0  0
    0.0608    0.9342    3.0903 H   0  0  0  0  0  0  0  0  0  0  0  0
   -0.7093    2.9178    2.9637 C   0  0  0  0  0  0  0  0  0  0  0  0
   -1.7220    2.9561    3.3805 H   0  0  0  0  0  0  0  0  0  0  0  0
   -0.0009    3.1971    3.7497 H   0  0  0  0  0  0  0  0  0  0  0  0
   -0.6360    3.6564    2.1578 H   0  0  0  0  0  0  0  0  0  0  0  0
  1  2  1  0  0  0  0
  2  3  1  0  0  0  0
  2  4  1  0  0  0  0
  2  5  1  0  0  0  0
  5  6  2  0  0  0  0
  5  7  1  0  0  0  0
  7  8  1  0  0  0  0
  7  9  1  0  0  0  0
  9 10  1  0  0  0  0
  9 11  1  0  0  0  0
  9 27  1  0  0  0  0
 11 12  1  0  0  0  0
 11 13  1  0  0  0  0
 11 14  1  0  0  0  0
 14 15  1  0  0  0  0
 14 16  1  0  0  0  0
 14 17  1  0  0  0  0
 17 18  1  0  0  0  0
 17 19  1  0  0  0  0
 17 20  1  0  0  0  0
 20 21  1  0  0  0  0
 20 22  1  0  0  0  0
 20 23  1  0  0  0  0
 23 24  1  0  0  0  0
 23 25  1  0  0  0  0
 23 26  1  0  0  0  0
 27 28  2  0  0  0  0
 27 29  1  0  0  0  0
 29 30  1  0  0  0  0
 29 31  1  0  0  0  0
 31 32  1  0  0  0  0
 31 33  1  0  0  0  0
 31 34  1  0  0  0  0
M  CHG  1  23   1
M  END
$$$$

  -OEChem-02102214153D

 34 33  0     1  0  0  0  0  0999 V2000
   -3.6600   -4.1036    1.7011 H   0  0  0  0  0  0  0  0  0  0  0  0
   -3.7037   -3.0896    1.2938 C   0  0  0  0  0  0  0  0  0  0  0  0
   -4.4014   -2.5000    1.8936 H   0  0  0  0  0  0  0  0  0  0  0  0
   -4.0699   -3.1393    0.2656 H   0  0  0  0  0  0  0  0  0  0  0  0
   -2.3268   -2.4547    1.3247 C   0  0  0  0  0  0  0  0  0  0  0  0
   -1.3695   -3.0717    1.7666 O   0  0  0  0  0  0  0  0  0  0  0  0
   -2.1419   -1.1703    0.8552 N   0  0  0  0  0  0  0  0  0  0  0  0
   -2.9686   -0.6504    0.5602 H   0  0  0  0  0  0  0  0  0  0  0  0
   -0.8732   -0.4365    0.9549 C   0  0  1  0  0  0  0  0  0  0  0  0
   -0.2041   -0.9035    1.6843 H   0  0  0  0  0  0  0  0  0  0  0  0
   -0.2272   -0.4989   -0.4478 C   0  0  0  0  0  0  0  0  0  0  0  0
    0.1064   -1.5236   -0.6435 H   0  0  0  0  0  0  0  0  0  0  0  0
   -1.0053   -0.2698   -1.1853 H   0  0  0  0  0  0  0  0  0  0  0  0
    0.9287    0.4876   -0.6961 C   0  0  0  0  0  0  0  0  0  0  0  0
    1.1163    0.5173   -1.7751 H   0  0  0  0  0  0  0  0  0  0  0  0
    0.6515    1.5035   -0.3949 H   0  0  0  0  0  0  0  0  0  0  0  0
    2.2124    0.0396    0.0147 C   0  0  0  0  0  0  0  0  0  0  0  0
    2.0552    0.0377    1.0983 H   0  0  0  0  0  0  0  0  0  0  0  0
    2.4581   -0.9824   -0.2950 H   0  0  0  0  0  0  0  0  0  0  0  0
    3.3602    0.9806   -0.3445 C   0  0  0  0  0  0  0  0  0  0  0  0
    3.4472    1.0406   -1.4396 H   0  0  0  0  0  0  0  0  0  0  0  0
    3.1257    1.9930    0.0165 H   0  0  0  0  0  0  0  0  0  0  0  0
    4.6118    0.4707    0.2574 N   0  3  0  0  0  0  0  0  0  0  0  0
    4.8169   -0.4633   -0.1043 H   0  0  0  0  0  0  0  0  0  0  0  0
    5.3907    1.0925    0.0284 H   0  0  0  0  0  0  0  0  0  0  0  0
    4.5170    0.4182    1.2732 H   0  0  0  0  0  0  0  0  0  0  0  0
   -1.1499    1.0033    1.4343 C   0  0  0  0  0  0  0  0  0  0  0  0
   -1.9887    1.6816    0.8575 O   0  0  0  0  0  0  0  0  0  0  0  0
   -0.3706    1.5787    2.4230 N   0  0  0  0  0  0  0  0  0  0  0  0
    0.1420    0.9348    3.0188 H   0  0  0  0  0  0  0  0  0  0  0  0
   -0.6600    2.9097    2.9512 C   0  0  0  0  0  0  0  0  0  0  0  0
   -1.6576    2.9354    3.4033 H   0  0  0  0  0  0  0  0  0  0  0  0
    0.0731    3.1838    3.7161 H   0  0  0  0  0  0  0  0  0  0  0  0
   -0.6193    3.6591    2.1531 H   0  0  0  0  0  0  0  0  0  0  0  0
  1  2  1  0  0  0  0
  2  3  1  0  0  0  0
  2  4  1  0  0  0  0
  2  5  1  0  0  0  0
  5  6  2  0  0  0  0
  5  7  1  0  0  0  0
  7  8  1  0  0  0  0
  7  9  1  0  0  0  0
  9 10  1  0  0  0  0
  9 11  1  0  0  0  0
  9 27  1  0  0  0  0
 11 12  1  0  0  0  0
 11 13  1  0  0  0  0
 11 14  1  0  0  0  0
 14 15  1  0  0  0  0
 14 16  1  0  0  0  0
 14 17  1  0  0  0  0
 17 18  1  0  0  0  0
 17 19  1  0  0  0  0
 17 20  1  0  0  0  0
 20 21  1  0  0  0  0
 20 22  1  0  0  0  0
 20 23  1  0  0  0  0
 23 24  1  0  0  0  0
 23 25  1  0  0  0  0
 23 26  1  0  0  0  0
 27 28  2  0  0  0  0
 27 29  1  0  0  0  0
 29 30  1  0  0  0  0
 29 31  1  0  0  0  0
 31 32  1  0  0  0  0
 31 33  1  0  0  0  0
 31 34  1  0  0  0  0
M  CHG  1  23   1
M  END
$$$$

  -OEChem-02102214153D

 34 33  0     1  0  0  0  0  0999 V2000
   -3.6488   -4.0923    1.7166 H   0  0  0  0  0  0  0  0  0  0  0  0
   -3.6948   -3.0771    1.3125 C   0  0  0  0  0  0  0  0  0  0  0  0
   -4.3764   -2.4847    1.9278 H   0  0  0  0  0  0  0  0  0  0  0  0
   -4.0829   -3.1221    0.2921 H   0  0  0  0  0  0  0  0  0  0  0  0
   -2.3135   -2.4506    1.3160 C   0  0  0  0  0  0  0  0  0  0  0  0
   -1.3495   -3.0779    1.7281 O   0  0  0  0  0  0  0  0  0  0  0  0
   -2.1310   -1.1646    0.8498 N   0  0  0  0  0  0  0  0  0  0  0  0
   -2.9621   -0.6358    0.5842 H   0  0  0  0  0  0  0  0  0  0  0  0
   -0.8603   -0.4330    0.9424 C   0  0  1  0  0  0  0  0  0  0  0  0
   -0.1866   -0.9002    1.6678 H   0  0  0  0  0  0  0  0  0  0  0  0
   -0.2199   -0.4984   -0.4630 C   0  0  0  0  0  0  0  0  0  0  0  0
    0.0956   -1.5268   -0.6699 H   0  0  0  0  0  0  0  0  0  0  0  0
   -1.0050   -0.2563   -1.1890 H   0  0  0  0  0  0  0  0  0  0  0  0
    0.9395    0.4851   -0.7223 C   0  0  0  0  0  0  0  0  0  0  0  0
    0.9545    0.7104   -1.7947 H   0  0  0  0  0  0  0  0  0  0  0  0
    0.7923    1.4371   -0.2039 H   0  0  0  0  0  0  0  0  0  0  0  0
    2.2855   -0.1432   -0.3392 C   0  0  0  0  0  0  0  0  0  0  0  0
    2.2856   -0.3829    0.7298 H   0  0  0  0  0  0  0  0  0  0  0  0
    2.4210   -1.0771   -0.8963 H   0  0  0  0  0  0  0  0  0  0  0  0
    3.4256    0.8211   -0.6597 C   0  0  0  0  0  0  0  0  0  0  0  0
    3.3674    1.1095   -1.7197 H   0  0  0  0  0  0  0  0  0  0  0  0
    3.3008    1.7398   -0.0676 H   0  0  0  0  0  0  0  0  0  0  0  0
    4.7152    0.1602   -0.3607 N   0  3  0  0  0  0  0  0  0  0  0  0
    4.8147   -0.6830   -0.9300 H   0  0  0  0  0  0  0  0  0  0  0  0
    5.4915    0.7927   -0.5679 H   0  0  0  0  0  0  0  0  0  0  0  0
    4.7547   -0.1013    0.6262 H   0  0  0  0  0  0  0  0  0  0  0  0
   -1.1405    1.0036    1.4298 C   0  0  0  0  0  0  0  0  0  0  0  0
   -1.9943    1.6761    0.8682 O   0  0  0  0  0  0  0  0  0  0  0  0
   -0.3583    1.5788    2.4160 N   0  0  0  0  0  0  0  0  0  0  0  0
    0.1905    0.9419    2.9865 H   0  0  0  0  0  0  0  0  0  0  0  0
   -0.6459    2.9049    2.9558 C   0  0  0  0  0  0  0  0  0  0  0  0
   -1.6349    2.9215    3.4267 H   0  0  0  0  0  0  0  0  0  0  0  0
    0.0998    3.1793    3.7083 H   0  0  0  0  0  0  0  0  0  0  0  0
   -0.6245    3.6584    2.1610 H   0  0  0  0  0  0  0  0  0  0  0  0
  1  2  1  0  0  0  0
  2  3  1  0  0  0  0
  2  4  1  0  0  0  0
  2  5  1  0  0  0  0
  5  6  2  0  0  0  0
  5  7  1  0  0  0  0
  7  8  1  0  0  0  0
  7  9  1  0  0  0  0
  9 10  1  0  0  0  0
  9 11  1  0  0  0  0
  9 27  1  0  0  0  0
 11 12  1  0  0  0  0
 11 13  1  0  0  0  0
 11 14  1  0  0  0  0
 14 15  1  0  0  0  0
 14 16  1  0  0  0  0
 14 17  1  0  0  0  0
 17 18  1  0  0  0  0
 17 19  1  0  0  0  0
 17 20  1  0  0  0  0
 20 21  1  0  0  0  0
 20 22  1  0  0  0  0
 20 23  1  0  0  0  0
 23 24  1  0  0  0  0
 23 25  1  0  0  0  0
 23 26  1  0  0  0  0
 27 28  2  0  0  0  0
 27 29  1  0  0  0  0
 29 30  1  0  0  0  0
 29 31  1  0  0  0  0
 31 32  1  0  0  0  0
 31 33  1  0  0  0  0
 31 34  1  0  0  0  0
M  CHG  1  23   1
M  END
$$$$

  -OEChem-02102214153D

 34 33  0     1  0  0  0  0  0999 V2000
   -3.6401   -4.0818    1.7219 H   0  0  0  0  0  0  0  0  0  0  0  0
   -3.6843   -3.0661    1.3189 C   0  0  0  0  0  0  0  0  0  0  0  0
   -4.3552   -2.4697    1.9420 H   0  0  0  0  0  0  0  0  0  0  0  0
   -4.0828   -3.1076    0.3023 H   0  0  0  0  0  0  0  0  0  0  0  0
   -2.2998   -2.4481    1.3081 C   0  0  0  0  0  0  0  0  0  0  0  0
   -1.3345   -3.0836    1.7039 O   0  0  0  0  0  0  0  0  0  0  0  0
   -2.1169   -1.1611    0.8456 N   0  0  0  0  0  0  0  0  0  0  0  0
   -2.9496   -0.6262    0.5979 H   0  0  0  0  0  0  0  0  0  0  0  0
   -0.8441   -0.4325    0.9390 C   0  0  1  0  0  0  0  0  0  0  0  0
   -0.1668   -0.9024    1.6594 H   0  0  0  0  0  0  0  0  0  0  0  0
   -0.2134   -0.4895   -0.4710 C   0  0  0  0  0  0  0  0  0  0  0  0
    0.0941   -1.5197   -0.6803 H   0  0  0  0  0  0  0  0  0  0  0  0
   -1.0023   -0.2449   -1.1919 H   0  0  0  0  0  0  0  0  0  0  0  0
    0.9497    0.4920   -0.7359 C   0  0  0  0  0  0  0  0  0  0  0  0
    0.7998    0.9437   -1.7233 H   0  0  0  0  0  0  0  0  0  0  0  0
    0.9688    1.3114   -0.0118 H   0  0  0  0  0  0  0  0  0  0  0  0
    2.2931   -0.2485   -0.7295 C   0  0  0  0  0  0  0  0  0  0  0  0
    2.4438   -0.7188    0.2487 H   0  0  0  0  0  0  0  0  0  0  0  0
    2.2730   -1.0401   -1.4872 H   0  0  0  0  0  0  0  0  0  0  0  0
    3.4342    0.7214   -1.0262 C   0  0  0  0  0  0  0  0  0  0  0  0
    3.2440    1.2198   -1.9883 H   0  0  0  0  0  0  0  0  0  0  0  0
    3.4549    1.5049   -0.2544 H   0  0  0  0  0  0  0  0  0  0  0  0
    4.7068   -0.0319   -1.0599 N   0  3  0  0  0  0  0  0  0  0  0  0
    4.6725   -0.7414   -1.7949 H   0  0  0  0  0  0  0  0  0  0  0  0
    5.4866    0.6020   -1.2479 H   0  0  0  0  0  0  0  0  0  0  0  0
    4.8638   -0.4942   -0.1624 H   0  0  0  0  0  0  0  0  0  0  0  0
   -1.1312    1.0015    1.4324 C   0  0  0  0  0  0  0  0  0  0  0  0
   -1.9947    1.6683    0.8781 O   0  0  0  0  0  0  0  0  0  0  0  0
   -0.3540    1.5784    2.4216 N   0  0  0  0  0  0  0  0  0  0  0  0
    0.2144    0.9473    2.9797 H   0  0  0  0  0  0  0  0  0  0  0  0
   -0.6521    2.8983    2.9708 C   0  0  0  0  0  0  0  0  0  0  0  0
   -1.6433    2.9051    3.4373 H   0  0  0  0  0  0  0  0  0  0  0  0
    0.0887    3.1713    3.7287 H   0  0  0  0  0  0  0  0  0  0  0  0
   -0.6321    3.6583    2.1823 H   0  0  0  0  0  0  0  0  0  0  0  0
  1  2  1  0  0  0  0
  2  3  1  0  0  0  0
  2  4  1  0  0  0  0
  2  5  1  0  0  0  0
  5  6  2  0  0  0  0
  5  7  1  0  0  0  0
  7  8  1  0  0  0  0
  7  9  1  0  0  0  0
  9 10  1  0  0  0  0
  9 11  1  0  0  0  0
  9 27  1  0  0  0  0
 11 12  1  0  0  0  0
 11 13  1  0  0  0  0
 11 14  1  0  0  0  0
 14 15  1  0  0  0  0
 14 16  1  0  0  0  0
 14 17  1  0  0  0  0
 17 18  1  0  0  0  0
 17 19  1  0  0  0  0
 17 20  1  0  0  0  0
 20 21  1  0  0  0  0
 20 22  1  0  0  0  0
 20 23  1  0  0  0  0
 23 24  1  0  0  0  0
 23 25  1  0  0  0  0
 23 26  1  0  0  0  0
 27 28  2  0  0  0  0
 27 29  1  0  0  0  0
 29 30  1  0  0  0  0
 29 31  1  0  0  0  0
 31 32  1  0  0  0  0
 31 33  1  0  0  0  0
 31 34  1  0  0  0  0
M  CHG  1  23   1
M  END
$$$$

  -OEChem-02102214153D

 34 33  0     1  0  0  0  0  0999 V2000
   -3.6488   -4.0745    1.7320 H   0  0  0  0  0  0  0  0  0  0  0  0
   -3.6898   -3.0618    1.3207 C   0  0  0  0  0  0  0  0  0  0  0  0
   -4.3531   -2.4568    1.9437 H   0  0  0  0  0  0  0  0  0  0  0  0
   -4.0958   -3.1099    0.3073 H   0  0  0  0  0  0  0  0  0  0  0  0
   -2.3014   -2.4518    1.2949 C   0  0  0  0  0  0  0  0  0  0  0  0
   -1.3342   -3.0989    1.6662 O   0  0  0  0  0  0  0  0  0  0  0  0
   -2.1153   -1.1642    0.8355 N   0  0  0  0  0  0  0  0  0  0  0  0
   -2.9486   -0.6199    0.6116 H   0  0  0  0  0  0  0  0  0  0  0  0
   -0.8393   -0.4413    0.9288 C   0  0  1  0  0  0  0  0  0  0  0  0
   -0.1607   -0.9170    1.6442 H   0  0  0  0  0  0  0  0  0  0  0  0
   -0.2160   -0.4907   -0.4831 C   0  0  0  0  0  0  0  0  0  0  0  0
    0.0994   -1.5213   -0.6795 H   0  0  0  0  0  0  0  0  0  0  0  0
   -1.0006   -0.2567   -1.2119 H   0  0  0  0  0  0  0  0  0  0  0  0
    0.9489    0.4922   -0.7349 C   0  0  0  0  0  0  0  0  0  0  0  0
    0.6682    1.1725   -1.5474 H   0  0  0  0  0  0  0  0  0  0  0  0
    1.1498    1.1059    0.1478 H   0  0  0  0  0  0  0  0  0  0  0  0
    2.2271   -0.2693   -1.1089 C   0  0  0  0  0  0  0  0  0  0  0  0
    2.5017   -0.9413   -0.2879 H   0  0  0  0  0  0  0  0  0  0  0  0
    2.0354   -0.8800   -1.9985 H   0  0  0  0  0  0  0  0  0  0  0  0
    3.3663    0.7078   -1.3884 C   0  0  0  0  0  0  0  0  0  0  0  0
    3.0636    1.3966   -2.1910 H   0  0  0  0  0  0  0  0  0  0  0  0
    3.5505    1.3171   -0.4914 H   0  0  0  0  0  0  0  0  0  0  0  0
    4.5718   -0.0595   -1.7708 N   0  3  0  0  0  0  0  0  0  0  0  0
    4.3857   -0.6026   -2.6165 H   0  0  0  0  0  0  0  0  0  0  0  0
    5.3520    0.5763   -1.9506 H   0  0  0  0  0  0  0  0  0  0  0  0
    4.8322   -0.6999   -1.0181 H   0  0  0  0  0  0  0  0  0  0  0  0
   -1.1166    0.9939    1.4265 C   0  0  0  0  0  0  0  0  0  0  0  0
   -1.9819    1.6642    0.8793 O   0  0  0  0  0  0  0  0  0  0  0  0
   -0.3355    1.5664    2.4150 N   0  0  0  0  0  0  0  0  0  0  0  0
    0.2505    0.9379    2.9579 H   0  0  0  0  0  0  0  0  0  0  0  0
   -0.6210    2.8880    2.9670 C   0  0  0  0  0  0  0  0  0  0  0  0
   -1.6138    2.9045    3.4298 H   0  0  0  0  0  0  0  0  0  0  0  0
    0.1200    3.1499    3.7288 H   0  0  0  0  0  0  0  0  0  0  0  0
   -0.5888    3.6502    2.1809 H   0  0  0  0  0  0  0  0  0  0  0  0
  1  2  1  0  0  0  0
  2  3  1  0  0  0  0
  2  4  1  0  0  0  0
  2  5  1  0  0  0  0
  5  6  2  0  0  0  0
  5  7  1  0  0  0  0
  7  8  1  0  0  0  0
  7  9  1  0  0  0  0
  9 10  1  0  0  0  0
  9 11  1  0  0  0  0
  9 27  1  0  0  0  0
 11 12  1  0  0  0  0
 11 13  1  0  0  0  0
 11 14  1  0  0  0  0
 14 15  1  0  0  0  0
 14 16  1  0  0  0  0
 14 17  1  0  0  0  0
 17 18  1  0  0  0  0
 17 19  1  0  0  0  0
 17 20  1  0  0  0  0
 20 21  1  0  0  0  0
 20 22  1  0  0  0  0
 20 23  1  0  0  0  0
 23 24  1  0  0  0  0
 23 25  1  0  0  0  0
 23 26  1  0  0  0  0
 27 28  2  0  0  0  0
 27 29  1  0  0  0  0
 29 30  1  0  0  0  0
 29 31  1  0  0  0  0
 31 32  1  0  0  0  0
 31 33  1  0  0  0  0
 31 34  1  0  0  0  0
M  CHG  1  23   1
M  END
$$$$

  -OEChem-02102214153D

 34 33  0     1  0  0  0  0  0999 V2000
   -3.6856   -4.0622    1.7467 H   0  0  0  0  0  0  0  0  0  0  0  0
   -3.7179   -3.0521    1.3283 C   0  0  0  0  0  0  0  0  0  0  0  0
   -4.3686   -2.4346    1.9523 H   0  0  0  0  0  0  0  0  0  0  0  0
   -4.1331   -3.1024    0.3188 H   0  0  0  0  0  0  0  0  0  0  0  0
   -2.3227   -2.4592    1.2873 C   0  0  0  0  0  0  0  0  0  0  0  0
   -1.3608   -3.1168    1.6531 O   0  0  0  0  0  0  0  0  0  0  0  0
   -2.1260   -1.1742    0.8252 N   0  0  0  0  0  0  0  0  0  0  0  0
   -2.9557   -0.6206    0.6114 H   0  0  0  0  0  0  0  0  0  0  0  0
   -0.8433   -0.4626    0.9131 C   0  0  1  0  0  0  0  0  0  0  0  0
   -0.1663   -0.9458    1.6255 H   0  0  0  0  0  0  0  0  0  0  0  0
   -0.2246   -0.5099   -0.4995 C   0  0  0  0  0  0  0  0  0  0  0  0
    0.1043   -1.5393   -0.6793 H   0  0  0  0  0  0  0  0  0  0  0  0
   -1.0001   -0.2875   -1.2413 H   0  0  0  0  0  0  0  0  0  0  0  0
    0.9423    0.4730   -0.7252 C   0  0  0  0  0  0  0  0  0  0  0  0
    0.5815    1.3344   -1.2995 H   0  0  0  0  0  0  0  0  0  0  0  0
    1.3168    0.8469    0.2331 H   0  0  0  0  0  0  0  0  0  0  0  0
    2.1040   -0.2171   -1.4511 C   0  0  0  0  0  0  0  0  0  0  0  0
    2.4760   -1.0461   -0.8381 H   0  0  0  0  0  0  0  0  0  0  0  0
    1.7415   -0.6307   -2.3990 H   0  0  0  0  0  0  0  0  0  0  0  0
    3.2275    0.7817   -1.7177 C   0  0  0  0  0  0  0  0  0  0  0  0
    2.8305    1.6233   -2.3046 H   0  0  0  0  0  0  0  0  0  0  0  0
    3.5817    1.1926   -0.7608 H   0  0  0  0  0  0  0  0  0  0  0  0
    4.3200    0.0962   -2.4423 N   0  3  0  0  0  0  0  0  0  0  0  0
    3.9740   -0.2655   -3.3334 H   0  0  0  0  0  0  0  0  0  0  0  0
    5.0857    0.7488   -2.6248 H   0  0  0  0  0  0  0  0  0  0  0  0
    4.6744   -0.6834   -1.8845 H   0  0  0  0  0  0  0  0  0  0  0  0
   -1.0959    0.9777    1.4088 C   0  0  0  0  0  0  0  0  0  0  0  0
   -1.9517    1.6605    0.8616 O   0  0  0  0  0  0  0  0  0  0  0  0
   -0.3008    1.5406    2.3916 N   0  0  0  0  0  0  0  0  0  0  0  0
    0.2796    0.9052    2.9329 H   0  0  0  0  0  0  0  0  0  0  0  0
   -0.5562    2.8713    2.9360 C   0  0  0  0  0  0  0  0  0  0  0  0
   -1.5431    2.9100    3.4097 H   0  0  0  0  0  0  0  0  0  0  0  0
    0.1981    3.1262    3.6870 H   0  0  0  0  0  0  0  0  0  0  0  0
   -0.5190    3.6260    2.1430 H   0  0  0  0  0  0  0  0  0  0  0  0
  1  2  1  0  0  0  0
  2  3  1  0  0  0  0
  2  4  1  0  0  0  0
  2  5  1  0  0  0  0
  5  6  2  0  0  0  0
  5  7  1  0  0  0  0
  7  8  1  0  0  0  0
  7  9  1  0  0  0  0
  9 10  1  0  0  0  0
  9 11  1  0  0  0  0
  9 27  1  0  0  0  0
 11 12  1  0  0  0  0
 11 13  1  0  0  0  0
 11 14  1  0  0  0  0
 14 15  1  0  0  0  0
 14 16  1  0  0  0  0
 14 17  1  0  0  0  0
 17 18  1  0  0  0  0
 17 19  1  0  0  0  0
 17 20  1  0  0  0  0
 20 21  1  0  0  0  0
 20 22  1  0  0  0  0
 20 23  1  0  0  0  0
 23 24  1  0  0  0  0
 23 25  1  0  0  0  0
 23 26  1  0  0  0  0
 27 28  2  0  0  0  0
 27 29  1  0  0  0  0
 29 30  1  0  0  0  0
 29 31  1  0  0  0  0
 31 32  1  0  0  0  0
 31 33  1  0  0  0  0
 31 34  1  0  0  0  0
M  CHG  1  23   1
M  END
$$$$

  -OEChem-02102214153D

 34 33  0     1  0  0  0  0  0999 V2000
   -3.7126   -4.0533    1.7661 H   0  0  0  0  0  0  0  0  0  0  0  0
   -3.7401   -3.0455    1.3421 C   0  0  0  0  0  0  0  0  0  0  0  0
   -4.3789   -2.4183    1.9687 H   0  0  0  0  0  0  0  0  0  0  0  0
   -4.1660   -3.0977    0.3374 H   0  0  0  0  0  0  0  0  0  0  0  0
   -2.3401   -2.4655    1.2837 C   0  0  0  0  0  0  0  0  0  0  0  0
   -1.3807   -3.1301    1.6424 O   0  0  0  0  0  0  0  0  0  0  0  0
   -2.1376   -1.1825    0.8179 N   0  0  0  0  0  0  0  0  0  0  0  0
   -2.9652   -0.6237    0.6097 H   0  0  0  0  0  0  0  0  0  0  0  0
   -0.8500   -0.4784    0.8953 C   0  0  1  0  0  0  0  0  0  0  0  0
   -0.1736   -0.9669    1.6047 H   0  0  0  0  0  0  0  0  0  0  0  0
   -0.2339   -0.5282   -0.5173 C   0  0  0  0  0  0  0  0  0  0  0  0
    0.1044   -1.5557   -0.6911 H   0  0  0  0  0  0  0  0  0  0  0  0
   -1.0053   -0.3082   -1.2643 H   0  0  0  0  0  0  0  0  0  0  0  0
    0.9323    0.4556   -0.7226 C   0  0  0  0  0  0  0  0  0  0  0  0
    0.5362    1.4264   -1.0433 H   0  0  0  0  0  0  0  0  0  0  0  0
    1.4622    0.6052    0.2246 H   0  0  0  0  0  0  0  0  0  0  0  0
    1.9296   -0.0931   -1.7500 C   0  0  0  0  0  0  0  0  0  0  0  0
    2.3578   -1.0308   -1.3782 H   0  0  0  0  0  0  0  0  0  0  0  0
    1.4003   -0.3078   -2.6852 H   0  0  0  0  0  0  0  0  0  0  0  0
    3.0396    0.9238   -2.0045 C   0  0  0  0  0  0  0  0  0  0  0  0
    2.5917    1.8703   -2.3421 H   0  0  0  0  0  0  0  0  0  0  0  0
    3.5645    1.1320   -1.0606 H   0  0  0  0  0  0  0  0  0  0  0  0
    3.9647    0.3798   -3.0225 N   0  3  0  0  0  0  0  0  0  0  0  0
    3.4597    0.2043   -3.8935 H   0  0  0  0  0  0  0  0  0  0  0  0
    4.7187    1.0456   -3.2051 H   0  0  0  0  0  0  0  0  0  0  0  0
    4.3702   -0.4986   -2.6930 H   0  0  0  0  0  0  0  0  0  0  0  0
   -1.0786    0.9660    1.3890 C   0  0  0  0  0  0  0  0  0  0  0  0
   -1.9282    1.6592    0.8450 O   0  0  0  0  0  0  0  0  0  0  0  0
   -0.2670    1.5212    2.3623 N   0  0  0  0  0  0  0  0  0  0  0  0
    0.3121    0.8803    2.8985 H   0  0  0  0  0  0  0  0  0  0  0  0
   -0.4988    2.8569    2.9047 C   0  0  0  0  0  0  0  0  0  0  0  0
   -1.4789    2.9092    3.3914 H   0  0  0  0  0  0  0  0  0  0  0  0
    0.2686    3.1056    3.6445 H   0  0  0  0  0  0  0  0  0  0  0  0
   -0.4632    3.6081    2.1083 H   0  0  0  0  0  0  0  0  0  0  0  0
  1  2  1  0  0  0  0
  2  3  1  0  0  0  0
  2  4  1  0  0  0  0
  2  5  1  0  0  0  0
  5  6  2  0  0  0  0
  5  7  1  0  0  0  0
  7  8  1  0  0  0  0
  7  9  1  0  0  0  0
  9 10  1  0  0  0  0
  9 11  1  0  0  0  0
  9 27  1  0  0  0  0
 11 12  1  0  0  0  0
 11 13  1  0  0  0  0
 11 14  1  0  0  0  0
 14 15  1  0  0  0  0
 14 16  1  0  0  0  0
 14 17  1  0  0  0  0
 17 18  1  0  0  0  0
 17 19  1  0  0  0  0
 17 20  1  0  0  0  0
 20 21  1  0  0  0  0
 20 22  1  0  0  0  0
 20 23  1  0  0  0  0
 23 24  1  0  0  0  0
 23 25  1  0  0  0  0
 23 26  1  0  0  0  0
 27 28  2  0  0  0  0
 27 29  1  0  0  0  0
 29 30  1  0  0  0  0
 29 31  1  0  0  0  0
 31 32  1  0  0  0  0
 31 33  1  0  0  0  0
 31 34  1  0  0  0  0
M  CHG  1  23   1
M  END
$$$$

  -OEChem-02102214153D

 34 33  0     1  0  0  0  0  0999 V2000
   -3.7185   -4.0505    1.7718 H   0  0  0  0  0  0  0  0  0  0  0  0
   -3.7452   -3.0432    1.3466 C   0  0  0  0  0  0  0  0  0  0  0  0
   -4.3806   -2.4143    1.9749 H   0  0  0  0  0  0  0  0  0  0  0  0
   -4.1742   -3.0956    0.3432 H   0  0  0  0  0  0  0  0  0  0  0  0
   -2.3443   -2.4661    1.2823 C   0  0  0  0  0  0  0  0  0  0  0  0
   -1.3846   -3.1335    1.6340 O   0  0  0  0  0  0  0  0  0  0  0  0
   -2.1427   -1.1828    0.8170 N   0  0  0  0  0  0  0  0  0  0  0  0
   -2.9712   -0.6237    0.6147 H   0  0  0  0  0  0  0  0  0  0  0  0
   -0.8539   -0.4800    0.8867 C   0  0  1  0  0  0  0  0  0  0  0  0
   -0.1768   -0.9703    1.5943 H   0  0  0  0  0  0  0  0  0  0  0  0
   -0.2395   -0.5349   -0.5265 C   0  0  0  0  0  0  0  0  0  0  0  0
    0.1014   -1.5607   -0.7041 H   0  0  0  0  0  0  0  0  0  0  0  0
   -1.0145   -0.3119   -1.2684 H   0  0  0  0  0  0  0  0  0  0  0  0
    0.9248    0.4482   -0.7325 C   0  0  0  0  0  0  0  0  0  0  0  0
    0.5331    1.4692   -0.8115 H   0  0  0  0  0  0  0  0  0  0  0  0
    1.5963    0.4079    0.1324 H   0  0  0  0  0  0  0  0  0  0  0  0
    1.7105    0.0876   -1.9984 C   0  0  0  0  0  0  0  0  0  0  0  0
    2.1412   -0.9139   -1.8878 H   0  0  0  0  0  0  0  0  0  0  0  0
    1.0261    0.0709   -2.8541 H   0  0  0  0  0  0  0  0  0  0  0  0
    2.8178    1.1099   -2.2416 C   0  0  0  0  0  0  0  0  0  0  0  0
    2.3726    2.1134   -2.3137 H   0  0  0  0  0  0  0  0  0  0  0  0
    3.4998    1.1190   -1.3787 H   0  0  0  0  0  0  0  0  0  0  0  0
    3.5342    0.7553   -3.4861 N   0  3  0  0  0  0  0  0  0  0  0  0
    2.8849    0.7622   -4.2755 H   0  0  0  0  0  0  0  0  0  0  0  0
    4.2822    1.4287   -3.6665 H   0  0  0  0  0  0  0  0  0  0  0  0
    3.9415   -0.1782   -3.4012 H   0  0  0  0  0  0  0  0  0  0  0  0
   -1.0730    0.9643    1.3831 C   0  0  0  0  0  0  0  0  0  0  0  0
   -1.9214    1.6629    0.8437 O   0  0  0  0  0  0  0  0  0  0  0  0
   -0.2509    1.5137    2.3504 N   0  0  0  0  0  0  0  0  0  0  0  0
    0.3334    0.8697    2.8776 H   0  0  0  0  0  0  0  0  0  0  0  0
   -0.4696    2.8497    2.8970 C   0  0  0  0  0  0  0  0  0  0  0  0
   -1.4444    2.9064    3.3936 H   0  0  0  0  0  0  0  0  0  0  0  0
    0.3067    3.0923    3.6294 H   0  0  0  0  0  0  0  0  0  0  0  0
   -0.4377    3.6019    2.1015 H   0  0  0  0  0  0  0  0  0  0  0  0
  1  2  1  0  0  0  0
  2  3  1  0  0  0  0
  2  4  1  0  0  0  0
  2  5  1  0  0  0  0
  5  6  2  0  0  0  0
  5  7  1  0  0  0  0
  7  8  1  0  0  0  0
  7  9  1  0  0  0  0
  9 10  1  0  0  0  0
  9 11  1  0  0  0  0
  9 27  1  0  0  0  0
 11 12  1  0  0  0  0
 11 13  1  0  0  0  0
 11 14  1  0  0  0  0
 14 15  1  0  0  0  0
 14 16  1  0  0  0  0
 14 17  1  0  0  0  0
 17 18  1  0  0  0  0
 17 19  1  0  0  0  0
 17 20  1  0  0  0  0
 20 21  1  0  0  0  0
 20 22  1  0  0  0  0
 20 23  1  0  0  0  0
 23 24  1  0  0  0  0
 23 25  1  0  0  0  0
 23 26  1  0  0  0  0
 27 28  2  0  0  0  0
 27 29  1  0  0  0  0
 29 30  1  0  0  0  0
 29 31  1  0  0  0  0
 31 32  1  0  0  0  0
 31 33  1  0  0  0  0
 31 34  1  0  0  0  0
M  CHG  1  23   1
M  END
$$$$
